data_mof_unit_64594.cif
_audit_creation_date              2012-12-10T18:16:41-0500
_audit_creation_method            fapswitch 2.2
_symmetry_space_group_name_H-M    P1
_symmetry_Int_Tables_number       1
_space_group_crystal_system       triclinic
_cell_length_a                    38.755478
_cell_length_b                    32.249465
_cell_length_c                    21.448398
_cell_angle_alpha                 89.992339
_cell_angle_beta                  123.686653
_cell_angle_gamma                 90.009015
_cell_volume                      22305.7740073

loop_
_atom_site_label
_atom_site_type_symbol
_atom_type_description
_atom_site_fract_x
_atom_site_fract_y
_atom_site_fract_z
_atom_type_partial_charge
C1    C     C_R   0.920432 0.000002 0.420260 0.801551
C2    C     C_R   0.079568 0.000005 0.579740 0.801527
C3    C     C_R   0.420440 0.500005 0.420273 0.803783
C4    C     C_R   0.579567 0.500005 0.579722 0.802729
C5    C     C_3   0.999902 0.000129 0.688360 -0.128840
C6    C     C_3   0.000097 0.000141 0.311639 -0.128753
C7    C     C_3   0.499923 0.500180 0.688389 -0.128623
C8    C     C_3   0.500033 0.500200 0.311577 -0.127513
C9    C     C_R   0.727494 0.972160 0.190334 -0.293435
C10   C     C_R   0.272499 0.972169 0.809667 -0.293758
C11   C     C_R   0.227548 0.500563 0.171066 -0.292339
C12   C     C_R   0.772480 0.471457 0.808392 -0.293001
C13   C     C_R   0.706271 0.000494 0.206922 -0.060522
C14   C     C_R   0.293730 0.000504 0.793079 -0.060597
C15   C     C_R   0.206317 0.499947 0.206813 -0.061944
C16   C     C_R   0.793726 0.500539 0.793139 -0.060477
C17   C     C_R   0.728798 0.028594 0.266787 0.464011
C18   C     C_R   0.271208 0.028607 0.733215 0.464042
C19   C     C_R   0.228859 0.499379 0.285739 0.464179
C20   C     C_R   0.771219 0.529398 0.734597 0.463974
C21   C     C_R   0.772311 0.027803 0.308955 -0.296174
C22   C     C_R   0.227696 0.027817 0.691049 -0.296463
C23   C     C_R   0.272360 0.499451 0.327480 -0.296859
C24   C     C_R   0.727706 0.528591 0.692372 -0.295767
C25   C     C_R   0.793540 0.999465 0.292370 -0.060397
C26   C     C_R   0.206459 0.999478 0.707634 -0.060467
C27   C     C_R   0.293585 0.500054 0.291757 -0.057800
C28   C     C_R   0.706456 0.499501 0.707613 -0.060324
C29   C     C_R   0.771006 0.971321 0.232565 0.468091
C30   C     C_R   0.228988 0.971332 0.767438 0.468128
C31   C     C_R   0.271078 0.500636 0.212828 0.469557
C32   C     C_R   0.728966 0.470619 0.766124 0.467662
C33   C     C_1   0.661414 0.000204 0.161680 0.114437
C34   C     C_1   0.338585 0.000211 0.838320 0.114295
C35   C     C_1   0.161446 0.499983 0.161467 0.112253
C36   C     C_1   0.838583 0.500218 0.838354 0.114731
C37   C     C_1   0.838397 0.999799 0.337574 0.113589
C38   C     C_1   0.161602 0.999812 0.662427 0.113494
C39   C     C_1   0.338428 0.500028 0.337287 0.115395
C40   C     C_1   0.661600 0.499826 0.662378 0.113914
C41   C     C_1   0.875848 0.999961 0.375347 -0.102461
C42   C     C_1   0.124152 0.999971 0.624654 -0.102541
C43   C     C_1   0.375870 0.500003 0.375251 -0.103035
C44   C     C_1   0.624150 0.499976 0.624611 -0.102262
C45   C     C_R   0.999931 0.000019 0.620376 0.831743
C46   C     C_R   0.000068 0.000024 0.379623 0.831702
C47   C     C_R   0.499937 0.500026 0.620385 0.831995
C48   C     C_R   0.500056 0.500030 0.379611 0.832935
C49   C     C_1   0.623964 0.000055 0.124036 -0.092405
C50   C     C_1   0.376036 0.000059 0.875963 -0.092571
C51   C     C_1   0.123985 0.500000 0.123933 -0.094280
C52   C     C_1   0.876034 0.500057 0.875974 -0.092069
C53   C     C_R   0.999998 0.920489 0.999996 0.781817
C54   C     C_R   0.499999 0.420487 0.000007 0.781806
C55   C     C_R   0.999918 0.000462 0.879369 0.850029
C56   C     C_R   0.000082 0.000466 0.120631 0.849891
C57   C     C_R   0.499933 0.500626 0.879390 0.846571
C58   C     C_R   0.500045 0.500754 0.120589 0.843648
C59   C     C_R   0.000002 0.079617 0.000003 0.860174
C60   C     C_R   0.499999 0.579617 0.999982 0.850004
C61   C     C_R   0.500000 0.920664 0.000006 0.802770
C62   C     C_R   0.000003 0.420665 0.000007 0.805016
C63   C     C_R   0.579376 0.999993 0.079360 0.802651
C64   C     C_R   0.420624 0.999994 0.920640 0.802599
C65   C     C_R   0.079382 0.500006 0.079349 0.800580
C66   C     C_R   0.920623 0.499990 0.920641 0.802537
C67   C     C_R   0.500001 0.079441 0.999997 0.817668
C68   C     C_R   0.999987 0.579443 0.999983 0.813356
C69   C     C_R   0.492115 0.227967 0.047225 -0.205309
C70   C     C_R   0.507903 0.227991 0.952791 -0.205159
C71   C     C_R   0.990824 0.727994 0.045483 -0.205564
C72   C     C_R   0.009036 0.728004 0.954320 -0.208846
C73   C     C_R   0.500005 0.206256 0.999997 -0.008012
C74   C     C_R   0.999928 0.706272 0.999900 -0.008671
C75   C     C_R   0.009195 0.771532 0.953895 0.404343
C76   C     C_R   0.990685 0.771522 0.045932 0.403427
C77   C     C_R   0.508039 0.271518 0.952344 0.404635
C78   C     C_R   0.491987 0.271494 0.047706 0.404799
C79   C     C_3   0.974001 0.970220 0.702791 -0.150188
C80   C     C_3   0.026016 0.970252 0.297239 -0.150441
C81   C     C_3   0.471681 0.472521 0.700557 -0.152077
C82   C     C_3   0.529303 0.473698 0.300365 -0.150607
C83   C     C_R   0.999950 0.793562 0.999926 -0.133681
C84   C     C_R   0.500009 0.293547 0.000026 -0.133802
C85   C     C_1   0.500004 0.161494 0.999989 0.051934
C86   C     C_1   0.999942 0.661505 0.999920 0.048780
C87   C     C_1   0.999973 0.838504 0.999956 0.205687
C88   C     C_1   0.500003 0.338494 0.000027 0.207498
C89   C     C_1   0.999989 0.875942 0.999979 -0.057497
C90   C     C_1   0.499998 0.375934 0.000017 -0.055851
C91   C     C_1   0.500002 0.124040 0.999989 -0.118493
C92   C     C_1   0.999962 0.624049 0.999947 -0.121892
C93   C     C_R   0.478802 0.772112 0.932229 -0.206291
C94   C     C_R   0.520973 0.772074 0.067773 -0.205002
C95   C     C_R   0.974661 0.272102 0.933054 -0.206289
C96   C     C_R   0.025359 0.272098 0.067000 -0.204880
C97   C     C_R   0.499916 0.793824 0.000016 0.011245
C98   C     C_R   0.000010 0.293830 0.000027 0.011514
C99   C     C_R   0.025600 0.228574 0.067735 0.314570
C100  C     C_R   0.974419 0.228578 0.932314 0.315340
C101  C     C_R   0.521130 0.728547 0.068473 0.317095
C102  C     C_R   0.478578 0.728588 0.931456 0.317049
C103  C     C_R   0.000010 0.206538 0.000023 -0.124412
C104  C     C_R   0.499875 0.706531 0.999946 -0.124335
C105  C     C_1   0.499959 0.838595 0.000029 0.028755
C106  C     C_1   0.000010 0.338598 0.000027 0.029475
C107  C     C_3   0.012655 0.963645 0.783243 0.094320
C108  C     C_3   0.987366 0.963645 0.216794 0.094311
C109  C     C_3   0.509687 0.462889 0.780375 0.091359
C110  C     C_3   0.491677 0.462647 0.220939 0.089448
C111  C     C_1   0.000009 0.161599 0.000019 0.173311
C112  C     C_1   0.499933 0.661595 0.999924 0.171454
C113  C     C_1   0.000006 0.124164 0.000012 0.022806
C114  C     C_1   0.499980 0.624160 0.999953 0.012724
C115  C     C_1   0.499983 0.876054 0.000015 -0.130905
C116  C     C_1   0.000007 0.376056 0.000020 -0.129208
C117  C     C_3   0.999633 0.000649 0.810879 -0.143110
C118  C     C_3   0.000366 0.000659 0.189120 -0.143063
C119  C     C_3   0.499714 0.500873 0.810970 -0.142920
C120  C     C_3   0.500170 0.501036 0.188922 -0.139827
C121  C     C_3   0.961431 0.007656 0.730975 0.079882
C122  C     C_3   0.038564 0.007698 0.269016 0.080257
C123  C     C_3   0.462204 0.510899 0.731765 0.077481
C124  C     C_3   0.537271 0.512459 0.267709 0.078329
C125  C     C_3   0.986727 0.037696 0.715031 -0.215198
C126  C     C_3   0.013250 0.037718 0.284930 -0.215116
C127  C     C_3   0.489849 0.538742 0.718089 -0.212817
C128  C     C_3   0.508585 0.539162 0.280421 -0.207576
C129  C     C_3   0.025058 0.030026 0.795042 0.424230
C130  C     C_3   0.974923 0.030016 0.204926 0.423849
C131  C     C_3   0.527438 0.528042 0.797350 0.422729
C132  C     C_3   0.471416 0.527061 0.201608 0.422419
C133  C     C_3   0.038309 0.993074 0.767667 0.075982
C134  C     C_3   0.961694 0.993055 0.232340 0.075953
C135  C     C_3   0.537637 0.490088 0.767014 0.078120
C136  C     C_3   0.462713 0.488694 0.233376 0.053606
Cu1   Cu    Cu3+1 1.000000 0.041030 0.500000 1.042006
Cu2   Cu    Cu3+1 0.500000 0.541030 0.500000 1.047190
Cu3   Cu    Cu3+1 1.000000 0.958990 0.500000 1.042668
Cu4   Cu    Cu3+1 0.500000 0.458990 0.500000 1.030789
Cu5   Cu    Cu3+1 0.041030 0.000050 0.040990 1.081125
Cu6   Cu    Cu3+1 0.958970 0.000050 0.959010 1.082353
Cu7   Cu    Cu3+1 0.541030 0.500050 0.040990 1.082650
Cu8   Cu    Cu3+1 0.458970 0.500050 0.959010 1.089851
Cu9   Cu    Cu3+1 0.500010 0.000050 0.062750 1.045234
Cu10  Cu    Cu3+1 0.499990 0.000050 0.937250 1.045158
Cu11  Cu    Cu3+1 0.000010 0.500050 0.062750 1.049669
Cu12  Cu    Cu3+1 0.999990 0.500050 0.937250 1.044069
H1    H     H_    0.789856 0.049324 0.354965 0.208268
H2    H     H_    0.210155 0.049340 0.645039 0.208301
H3    H     H_    0.289902 0.499062 0.388134 0.204343
H4    H     H_    0.710176 0.550682 0.647358 0.208376
H5    H     H_    0.486069 0.210827 0.083634 0.203877
H6    H     H_    0.513957 0.210869 0.916382 0.203964
H7    H     H_    0.983841 0.710864 0.080636 0.204438
H8    H     H_    0.016015 0.710881 0.919162 0.203523
H9    H     H_    0.462531 0.789238 0.880023 0.199338
H10   H     H_    0.537260 0.789169 0.120010 0.199449
H11   H     H_    0.955102 0.289215 0.881455 0.199111
H12   H     H_    0.044918 0.289208 0.118600 0.200250
H13   H     H_    0.952963 0.945643 0.664001 0.173586
H14   H     H_    0.047069 0.945692 0.336054 0.173355
H15   H     H_    0.448725 0.449710 0.659891 0.170099
H16   H     H_    0.553126 0.451776 0.341845 0.169755
H17   H     H_    0.976052 0.068189 0.686445 0.200697
H18   H     H_    0.023906 0.068220 0.313485 0.200740
H19   H     H_    0.481672 0.569991 0.691974 0.203163
H20   H     H_    0.515562 0.570690 0.305368 0.203557
H21   H     H_    0.709936 0.950711 0.144207 0.208998
H22   H     H_    0.290053 0.950718 0.855792 0.209020
H23   H     H_    0.209990 0.501001 0.110419 0.210572
H24   H     H_    0.790019 0.449415 0.853488 0.209023
O1    O     O_R   0.940150 0.034650 0.440170 -0.574160
O2    O     O_R   0.059850 0.034650 0.559830 -0.574165
O3    O     O_R   0.440150 0.534650 0.440170 -0.564050
O4    O     O_R   0.559850 0.534650 0.559830 -0.573594
O5    O     O_R   0.559860 0.000050 0.112810 -0.559232
O6    O     O_R   0.440140 0.000050 0.887190 -0.559311
O7    O     O_R   0.059860 0.500050 0.112810 -0.555716
O8    O     O_R   0.940140 0.500050 0.887190 -0.559403
O9    O     O_R   0.559850 0.999980 0.006800 -0.574873
O10   O     O_R   0.440150 0.999980 0.993200 -0.574959
O11   O     O_R   0.059850 0.499980 0.006800 -0.577106
O12   O     O_R   0.940150 0.499980 0.993200 -0.574436
O13   O     O_R   0.500000 0.059900 0.052920 -0.568144
O14   O     O_R   0.500000 0.059900 0.947080 -0.568067
O15   O     O_R   1.000000 0.559900 0.052920 -0.566506
O16   O     O_R   1.000000 0.559900 0.947080 -0.569164
O17   O     O_R   0.940170 0.965370 0.440140 -0.561468
O18   O     O_R   0.059830 0.965370 0.559860 -0.561502
O19   O     O_R   0.440170 0.465370 0.440140 -0.575687
O20   O     O_R   0.559830 0.465370 0.559860 -0.561633
O21   O     O_R   0.000010 0.034650 0.591580 -0.574726
O22   O     O_R   0.999990 0.034650 0.408420 -0.574703
O23   O     O_R   0.500010 0.534650 0.591580 -0.575515
O24   O     O_R   0.499990 0.534650 0.408420 -0.574534
O25   O     O_R   0.000020 0.965370 0.591550 -0.581593
O26   O     O_R   0.999980 0.965370 0.408450 -0.581619
O27   O     O_R   0.500020 0.465370 0.591550 -0.582411
O28   O     O_R   0.499980 0.465370 0.408450 -0.582481
O29   O     O_R   0.034640 0.940200 0.034570 -0.575794
O30   O     O_R   0.965360 0.940200 0.965430 -0.575194
O31   O     O_R   0.534640 0.440200 0.034570 -0.574822
O32   O     O_R   0.465360 0.440200 0.965430 -0.572999
O33   O     O_R   0.034640 0.000050 0.943030 -0.548119
O34   O     O_R   0.965360 0.000050 0.056970 -0.547969
O35   O     O_R   0.534640 0.500050 0.943030 -0.544466
O36   O     O_R   0.465360 0.500050 0.056970 -0.541768
O37   O     O_R   0.965370 0.000070 0.873780 -0.592944
O38   O     O_R   0.034630 0.000070 0.126220 -0.593120
O39   O     O_R   0.465370 0.500070 0.873780 -0.593134
O40   O     O_R   0.534630 0.500070 0.126220 -0.594124
O41   O     O_R   0.034650 0.059910 0.034650 -0.553560
O42   O     O_R   0.965350 0.059910 0.965350 -0.553280
O43   O     O_R   0.534650 0.559910 0.034650 -0.555570
O44   O     O_R   0.465350 0.559910 0.965350 -0.554565
O45   O     O_R   0.500030 0.940190 0.053050 -0.570721
O46   O     O_R   0.499970 0.940190 0.946950 -0.570875
O47   O     O_R   0.000030 0.440190 0.053050 -0.570133
O48   O     O_R   0.999970 0.440190 0.946950 -0.570503
C137  C     C_3   0.027135 0.921886 0.822458 -0.760822
H25   H     H_    0.033908 0.900800 0.789664 0.254491
H26   H     H_    0.055626 0.926106 0.879328 0.237153
H27   H     H_    0.002516 0.908044 0.827338 0.254671
C138  C     C_3   0.972910 0.921875 0.177622 -0.760839
H28   H     H_    0.966145 0.900785 0.210434 0.254554
H29   H     H_    0.944420 0.926072 0.120746 0.237310
H30   H     H_    0.997539 0.908049 0.172765 0.254458
C139  C     C_3   0.520771 0.420164 0.816396 -0.752202
H31   H     H_    0.525969 0.398542 0.782136 0.254690
H32   H     H_    0.549429 0.422201 0.873595 0.235399
H33   H     H_    0.495066 0.408360 0.820095 0.254936
C140  C     C_3   0.482216 0.419569 0.186419 -0.744854
H34   H     H_    0.477774 0.397714 0.221367 0.255352
H35   H     H_    0.453537 0.420587 0.129124 0.235591
H36   H     H_    0.508375 0.408772 0.183211 0.253467
S1    S     S_3+6 0.978938 0.797827 0.104450 0.020761
O49   O     O_2   0.968049 0.767562 0.144291 -0.249295
O50   O     O_2   0.015979 0.822909 0.161235 -0.290895
O51   O     O_3   0.938632 0.829881 0.051768 -0.526159
H37   H     H_    0.932975 0.842644 0.087224 0.378532
S2    S     S_3+6 0.020955 0.797848 0.895392 0.019990
O52   O     O_2   0.031805 0.767590 0.855499 -0.250687
O53   O     O_2   0.983934 0.822965 0.838650 -0.288775
O54   O     O_3   0.061294 0.829868 0.948101 -0.528542
H38   H     H_    0.066980 0.842612 0.912663 0.378485
S3    S     S_3+6 0.481812 0.297767 0.108372 0.019898
O55   O     O_2   0.472226 0.267458 0.150052 -0.253455
O56   O     O_2   0.519202 0.322972 0.163543 -0.288595
O57   O     O_3   0.441135 0.329681 0.057454 -0.526515
H39   H     H_    0.435541 0.341392 0.093694 0.378725
S4    S     S_3+6 0.518269 0.297827 0.891768 0.020039
O58   O     O_2   0.527831 0.267542 0.850036 -0.252513
O59   O     O_2   0.480924 0.323094 0.836640 -0.288226
O60   O     O_3   0.558990 0.329682 0.942805 -0.527754
H40   H     H_    0.564611 0.341428 0.906617 0.378259
S5    S     S_3+6 0.941832 0.202294 0.846183 0.052407
O61   O     O_2   0.910328 0.177550 0.850403 -0.213759
O62   O     O_2   0.919678 0.232354 0.782014 -0.246170
O63   O     O_3   0.970271 0.169609 0.831091 -0.474585
H41   H     H_    0.992146 0.187143 0.834140 0.360158
S6    S     S_3+6 0.058187 0.202284 0.153862 0.052490
O64   O     O_2   0.089691 0.177555 0.149641 -0.214942
O65   O     O_2   0.080340 0.232338 0.218035 -0.244693
O66   O     O_3   0.029747 0.169582 0.168949 -0.474497
H42   H     H_    0.007876 0.187109 0.165914 0.360444
S7    S     S_3+6 0.451399 0.702331 0.844270 0.049286
O67   O     O_2   0.416957 0.677391 0.838404 -0.217980
O68   O     O_2   0.433273 0.732420 0.780021 -0.248259
O69   O     O_3   0.483754 0.669856 0.839382 -0.474244
H43   H     H_    0.507049 0.687533 0.848586 0.360178
S8    S     S_3+6 0.548179 0.702226 0.155611 0.048601
O70   O     O_2   0.583118 0.677900 0.162166 -0.218963
O71   O     O_2   0.565619 0.732238 0.219873 -0.246736
O72   O     O_3   0.515968 0.669106 0.159680 -0.478527
H44   H     H_    0.492338 0.686390 0.149955 0.361548
C141  C     C_3   0.917311 0.016251 0.708161 -0.707702
H45   H     H_    0.897055 0.020843 0.646606 0.229678
H46   H     H_    0.905584 0.989578 0.723934 0.242013
H47   H     H_    0.916715 0.044677 0.736709 0.258566
C142  C     C_3   0.082678 0.016328 0.291819 -0.708518
H48   H     H_    0.102931 0.020940 0.353369 0.229667
H49   H     H_    0.094422 0.989662 0.276080 0.241747
H50   H     H_    0.083255 0.044752 0.263235 0.258624
C143  C     C_3   0.418985 0.523117 0.710010 -0.700692
H51   H     H_    0.399179 0.529593 0.648984 0.230887
H52   H     H_    0.405041 0.497420 0.723318 0.243386
H53   H     H_    0.420829 0.551357 0.741299 0.258118
C144  C     C_3   0.579947 0.526402 0.288825 -0.705899
H54   H     H_    0.599490 0.533744 0.349541 0.231498
H55   H     H_    0.594915 0.501258 0.276620 0.242079
H56   H     H_    0.576937 0.554498 0.256259 0.259011
S9    S     S_3+6 0.058518 0.070174 0.855560 0.027933
O73   O     O_2   0.034981 0.098063 0.875518 -0.283506
O74   O     O_2   0.094792 0.051373 0.925599 -0.258627
O75   O     O_3   0.075535 0.097678 0.811160 -0.512687
H57   H     H_    0.093650 0.119364 0.847418 0.389790
S10   S     S_3+6 0.941440 0.070139 0.144368 0.028456
O76   O     O_2   0.964960 0.098048 0.124385 -0.283310
O77   O     O_2   0.905177 0.051309 0.074347 -0.257969
O78   O     O_3   0.924406 0.097628 0.188741 -0.512407
H58   H     H_    0.906269 0.119293 0.152455 0.390236
S11   S     S_3+6 0.564089 0.565420 0.860707 0.031759
O79   O     O_2   0.543139 0.594813 0.883999 -0.274962
O80   O     O_2   0.599144 0.543779 0.928575 -0.258733
O81   O     O_3   0.582577 0.591831 0.817657 -0.512276
H59   H     H_    0.602477 0.611975 0.855494 0.390310
S12   S     S_3+6 0.433252 0.563055 0.137232 0.027101
O82   O     O_2   0.453003 0.593780 0.113520 -0.269464
O83   O     O_2   0.399263 0.540201 0.069754 -0.261477
O84   O     O_3   0.413468 0.588020 0.179424 -0.520779
H60   H     H_    0.391353 0.605985 0.140015 0.390809
C145  C     C_3   0.081789 0.984725 0.786800 -0.704384
H61   H     H_    0.103417 0.980472 0.848194 0.259786
H62   H     H_    0.081601 0.956208 0.757667 0.225734
H63   H     H_    0.092298 0.011285 0.768467 0.258033
C146  C     C_3   0.918218 0.984672 0.213213 -0.704162
H64   H     H_    0.896593 0.980404 0.151822 0.259911
H65   H     H_    0.918421 0.956155 0.242371 0.225735
H66   H     H_    0.907694 0.011224 0.231520 0.258037
C147  C     C_3   0.580316 0.478228 0.785421 -0.709211
H67   H     H_    0.601526 0.472360 0.846438 0.259829
H68   H     H_    0.577884 0.449741 0.754199 0.226265
H69   H     H_    0.592910 0.503804 0.769052 0.258828
C148  C     C_3   0.420525 0.475216 0.215588 -0.659351
H70   H     H_    0.399232 0.469330 0.154596 0.265369
H71   H     H_    0.423921 0.446409 0.246823 0.231814
H72   H     H_    0.407430 0.499984 0.232474 0.248215
S13   S     S_3+6 0.796602 0.935176 0.209542 0.036156
O85   O     O_2   0.824349 0.908224 0.276444 -0.260359
O86   O     O_2   0.765782 0.908452 0.144711 -0.254816
O87   O     O_3   0.825637 0.961164 0.186577 -0.531873
H73   H     H_    0.838037 0.939424 0.172245 0.378867
S14   S     S_3+6 0.203384 0.935182 0.790455 0.035898
O88   O     O_2   0.175654 0.908218 0.723565 -0.260387
O89   O     O_2   0.234201 0.908472 0.855316 -0.255013
O90   O     O_3   0.174329 0.961161 0.813366 -0.532165
H74   H     H_    0.161932 0.939418 0.827710 0.378759
S15   S     S_3+6 0.296769 0.501481 0.165644 0.029828
O91   O     O_2   0.322797 0.463042 0.185474 -0.285016
O92   O     O_2   0.265989 0.503198 0.082201 -0.250413
O93   O     O_3   0.327761 0.543371 0.193521 -0.516623
H75   H     H_    0.339892 0.542848 0.163258 0.394537
S16   S     S_3+6 0.703324 0.433481 0.787346 0.037278
O94   O     O_2   0.676276 0.406830 0.719603 -0.261049
O95   O     O_2   0.734109 0.406592 0.851917 -0.252890
O96   O     O_3   0.673482 0.458329 0.809717 -0.530747
H76   H     H_    0.660225 0.436005 0.821107 0.379293
S17   S     S_3+6 0.703154 0.064879 0.289467 0.039992
O97   O     O_2   0.733835 0.089432 0.357929 -0.247126
O98   O     O_2   0.678256 0.093858 0.224368 -0.268958
O99   O     O_3   0.670988 0.039358 0.305567 -0.515277
H77   H     H_    0.654880 0.061316 0.310780 0.387758
S18   S     S_3+6 0.296860 0.064891 0.710532 0.039731
O100  O     O_2   0.266184 0.089444 0.642069 -0.247257
O101  O     O_2   0.321764 0.093869 0.775627 -0.269024
O102  O     O_3   0.329021 0.039372 0.694435 -0.515637
H78   H     H_    0.345128 0.061332 0.689213 0.387634
S19   S     S_3+6 0.203235 0.498684 0.332992 0.042482
O103  O     O_2   0.233881 0.495685 0.416334 -0.249041
O104  O     O_2   0.178379 0.537860 0.314847 -0.266889
O105  O     O_3   0.171051 0.457672 0.303159 -0.513391
H79   H     H_    0.152541 0.462997 0.320694 0.387010
S20   S     S_3+6 0.796890 0.566644 0.713633 0.039944
O106  O     O_2   0.766227 0.591977 0.646341 -0.247314
O107  O     O_2   0.821812 0.594770 0.780069 -0.268767
O108  O     O_3   0.829035 0.542109 0.696356 -0.515313
H80   H     H_    0.845191 0.564482 0.692265 0.387695

loop_
_geom_bond_atom_site_label_1
_geom_bond_atom_site_label_2
_ccdc_geom_bond_type
C99   C103  A    
C22   H2    S    
C11   H23   S    
O102  H78   S    
C88   C90   T    
C9    H21   S    
O90   H74   S    
C12   H24   S    
O78   H58   S    
C142  H50   S    
C79   C121  S    
C47   O23   A    
C60   O43   A    
C121  C141  S    
C46   O26   A    
C28   C40   S    
Cu7   Cu8   S    
C96   C99   A    
C138  H30   S    
C9    C13   A    
Cu8   O32   S    
C11   C15   A    
C12   C16   A    
C68   O15   A    
S8    O70   D    
C61   C115  S    
S2    O53   D    
S12   O84   S    
C97   C105  S    
O54   H38   S    
C136  C148  S    
C130  C134  S    
Cu7   O43   S    
C79   H13   S    
C76   C83   A    
C82   C124  S    
Cu9   Cu10  S    
C25   C29   A    
C101  S8    S    
S2    O54   S    
C27   C31   A    
C84   C88   S    
C28   C32   A    
S11   O80   D    
O93   H75   S    
C26   C38   S    
C94   C97   A    
C126  H18   S    
Cu2   O23   S    
C17   C21   A    
C76   S1    S    
C146  H66   S    
C19   C23   A    
C13   C33   S    
C139  H31   S    
C55   O37   A    
C10   C30   A    
C6    C80   S    
S11   O79   D    
C129  S9    S    
C16   C20   A    
O99   H77   S    
O81   H59   S    
C111  C113  T    
Cu2   Cu4   S    
C129  C133  S    
C1    C41   S    
O75   H57   S    
C87   C89   T    
C53   C89   S    
C10   H22   S    
S10   O76   D    
C110  C120  S    
Cu8   O44   S    
C55   C117  S    
S3    O57   S    
C100  S5    S    
Cu10  O9    S    
C19   S19   S    
C2    O18   A    
C61   O45   A    
C39   C43   T    
C59   O41   A    
C119  C123  S    
S9    O75   S    
C98   C106  S    
C62   O47   A    
Cu4   O28   S    
C143  H52   S    
S14   O90   S    
C82   H16   S    
S8    O72   S    
C68   C92   S    
Cu6   O34   S    
C122  C142  S    
C127  C131  S    
Cu10  O46   S    
Cu11  O7    S    
C139  H32   S    
C147  H67   S    
S19   O103  D    
C20   S20   S    
Cu8   O39   S    
C67   O13   A    
S4    O58   D    
Cu7   O31   S    
C57   O39   A    
S17   O97   D    
C72   H8    S    
C109  C135  S    
C110  C136  S    
Cu11  Cu12  S    
Cu3   O18   S    
C112  C114  T    
C5    C133  S    
C1    O1    A    
C137  H25   S    
C130  S10   S    
C95   H11   S    
C131  S11   S    
C54   C90   S    
C139  H33   S    
S7    O69   S    
C145  H62   S    
O105  H79   S    
C45   O25   A    
C54   O31   A    
S20   O106  D    
Cu10  O6    S    
S5    O61   D    
C118  C122  S    
C148  H71   S    
C8    C128  S    
C96   C98   A    
C119  C131  S    
C21   H1    S    
C5    C79   S    
C117  C129  S    
C140  H34   S    
C36   C52   T    
C110  C140  S    
C64   O10   A    
S1    O49   D    
C70   C77   A    
S13   O86   D    
C47   O27   A    
C109  C139  S    
C72   C75   A    
C134  C146  S    
S12   O83   D    
C46   O22   A    
O87   H73   S    
C10   C14   A    
C104  C112  S    
S14   O88   D    
C18   S18   S    
C77   C84   A    
Cu9   O13   S    
C125  H17   S    
C121  C125  S    
S9    O73   D    
C125  C129  S    
C123  C127  S    
C58   O36   A    
C132  C136  S    
C147  H69   S    
C80   H14   S    
C144  H54   S    
C63   O9    A    
C77   S4    S    
C73   C85   S    
S4    O60   S    
C7    C81   S    
C26   C30   A    
S17   O99   S    
C102  S7    S    
C4    O4    A    
C29   S13   S    
C93   C97   A    
C31   S15   S    
C21   C25   A    
Cu1   O22   S    
S15   O92   D    
C18   C22   A    
C105  C115  T    
C24   C28   A    
O63   H41   S    
C14   C34   S    
S7    O67   D    
S6    O64   D    
Cu2   O24   S    
C142  H49   S    
C80   C108  S    
S20   O108  S    
C13   C17   A    
S5    O63   S    
S1    O50   D    
C60   O44   A    
C16   C36   S    
C2    C42   S    
Cu12  O11   S    
O51   H37   S    
C138  H29   S    
S19   O105  S    
C37   C41   T    
C140  H36   S    
Cu5   O33   S    
Cu12  O16   S    
C40   C44   T    
S15   O93   S    
C56   O34   A    
S16   O94   D    
C68   O16   A    
Cu12  O8    S    
S18   O100  D    
S1    O51   S    
C5    C125  S    
Cu2   O3    S    
Cu4   O19   S    
Cu6   O37   S    
C7    C127  S    
C1    O17   A    
Cu11  O12   S    
C83   C87   S    
C8    C136  S    
C4    O20   A    
O72   H44   S    
C133  C145  S    
S6    O66   S    
Cu3   O26   S    
C80   C122  S    
C15   C19   A    
Cu1   Cu3   S    
C48   O28   A    
C8    C82   S    
Cu6   O30   S    
C138  H28   S    
C137  H27   S    
C71   C76   A    
C102  C104  A    
C108  C138  S    
C126  C130  S    
C33   C49   T    
C144  H56   S    
C103  C111  S    
C51   C65   S    
C146  H65   S    
C66   O12   A    
C24   H4    S    
C60   C114  S    
Cu7   O35   S    
C69   C73   A    
C124  C128  S    
C94   H10   S    
C120  C132  S    
S10   O77   D    
C132  S12   S    
S11   O81   S    
S3    O56   D    
C45   O21   A    
C55   O33   A    
C95   C98   A    
C30   S14   S    
C61   O46   A    
Cu6   O42   S    
C72   C74   A    
C124  C144  S    
O96   H76   S    
C95   C100  A    
C65   O7    A    
Cu11  O15   S    
O57   H39   S    
C66   O8    A    
C100  C103  A    
C69   H5    S    
C106  C116  T    
S10   O78   S    
C62   O48   A    
C8    C48   S    
C56   O38   A    
C143  H51   S    
C118  C130  S    
C64   O6    A    
S15   O91   D    
S16   O96   S    
C71   H7    S    
C70   C73   A    
C67   C91   S    
S2    O52   D    
C79   C107  S    
Cu12  O48   S    
C6    C126  S    
Cu7   O40   S    
C3    O3    A    
C81   C123  S    
C101  C104  A    
C52   C66   S    
C109  C119  S    
S4    O59   D    
C56   C118  S    
Cu10  O14   S    
Cu3   O17   S    
C93   C102  A    
C71   C74   A    
C58   O40   A    
C135  C147  S    
C4    C44   S    
C53   O30   A    
C137  H26   S    
Cu1   O1    S    
Cu1   O2    S    
C107  C133  S    
C75   S2    S    
S7    O68   D    
C75   C83   A    
C145  H61   S    
C5    C45   S    
C54   O32   A    
S20   O107  D    
C148  H70   S    
C53   O29   A    
C62   C116  S    
Cu9   O45   S    
S9    O74   D    
C22   C26   A    
O69   H43   S    
Cu5   O38   S    
C107  C117  S    
C7    C47   S    
Cu8   O36   S    
O84   H60   S    
C49   C63   S    
C50   C64   S    
S13   O85   D    
C14   C18   A    
O108  H80   S    
C85   C91   T    
C59   O42   A    
C108  C134  S    
C3    C43   S    
C82   C110  S    
Cu4   O27   S    
Cu5   O29   S    
C38   C42   T    
C143  H53   S    
C131  C135  S    
S14   O89   D    
C17   S17   S    
C117  C121  S    
C123  C143  S    
C25   C37   S    
C20   C24   A    
C99   S6    S    
C27   C39   S    
C147  H68   S    
C23   C27   A    
O66   H42   S    
C67   O14   A    
C59   C113  S    
C57   C119  S    
C11   C31   A    
S17   O98   D    
C12   C32   A    
C81   H15   S    
C69   C78   A    
C128  C132  S    
C15   C35   S    
Cu1   O21   S    
C34   C50   T    
C108  C118  S    
C94   C101  A    
Cu5   O41   S    
C145  H63   S    
S6    O65   D    
C142  H48   S    
Cu9   O10   S    
S5    O62   D    
C122  C126  S    
C148  H72   S    
C7    C135  S    
C3    O19   A    
C78   S3    S    
S19   O104  D    
C74   C86   S    
C93   H9    S    
C140  H35   S    
S8    O71   D    
C96   H12   S    
S16   O95   D    
S18   O101  D    
C141  H46   S    
Cu2   O4    S    
Cu4   O20   S    
S13   O87   S    
C141  H47   S    
C58   C120  S    
O60   H40   S    
C32   S16   S    
S12   O82   D    
C65   O11   A    
C23   H3    S    
C6    C46   S    
C70   H6    S    
C81   C109  S    
S3    O55   D    
Cu3   O25   S    
C9    C29   A    
S18   O102  S    
C57   O35   A    
C63   O5    A    
C6    C134  S    
C86   C92   T    
Cu5   Cu6   S    
C2    O2    A    
C35   C51   T    
C144  H55   S    
C146  H64   S    
Cu11  O47   S    
C78   C84   A    
C127  H19   S    
Cu9   O5    S    
C128  H20   S    
C141  H45   S    
C48   O24   A    
C120  C124  S    
C107  C137  S    
