data_mof_unit_26251.cif
_audit_creation_date              2012-12-10T16:48:50-0500
_audit_creation_method            fapswitch 2.2
_symmetry_space_group_name_H-M    P1
_symmetry_Int_Tables_number       1
_space_group_crystal_system       triclinic
_cell_length_a                    17.298423
_cell_length_b                    8.693838
_cell_length_c                    7.491087
_cell_angle_alpha                 103.298903
_cell_angle_beta                  90.302348
_cell_angle_gamma                 93.82171
_cell_volume                      1093.68655587

loop_
_atom_site_label
_atom_site_type_symbol
_atom_type_description
_atom_site_fract_x
_atom_site_fract_y
_atom_site_fract_z
_atom_type_partial_charge
C1    C     C_R   0.497153 0.199749 0.453534 0.857486
C2    C     C_R   0.502847 0.800251 0.546466 0.857486
C3    C     C_2   0.494322 0.031422 0.428352 -0.370232
C4    C     C_2   0.505678 0.968577 0.571648 -0.370232
C5    C     C_R   0.351219 0.498570 0.525195 0.766834
C6    C     C_R   0.648781 0.501430 0.474805 0.766835
C7    C     C_R   0.266938 0.488670 0.538544 -0.025293
C8    C     C_R   0.733062 0.511329 0.461456 -0.025293
C9    C     C_R   0.221485 0.443829 0.376854 -0.210775
C10   C     C_R   0.778515 0.556170 0.623146 -0.210775
C11   C     C_R   0.141513 0.436569 0.384985 -0.151923
C12   C     C_R   0.858487 0.563430 0.615015 -0.151923
C13   C     C_R   0.105535 0.476583 0.555005 0.195700
C14   C     C_R   0.894465 0.523417 0.444995 0.195700
C15   C     C_R   0.150492 0.514773 0.717363 -0.181298
C16   C     C_R   0.849508 0.485227 0.282637 -0.181298
C17   C     C_R   0.231080 0.521233 0.709387 -0.187001
C18   C     C_R   0.768920 0.478767 0.290613 -0.187001
C19   C     C_2   0.021221 0.480384 0.565656 -0.228923
C20   C     C_2   0.978779 0.519615 0.434344 -0.228923
Cu1   Cu    Cu3+1 0.508700 0.517250 0.683000 1.019556
Cu2   Cu    Cu3+1 0.491300 0.482750 0.317000 1.019556
H1    H     H_    0.734915 0.446126 0.164072 0.171618
H2    H     H_    0.265085 0.553873 0.835928 0.171618
N1    N     N_2   0.478180 0.456750 0.041980 0.155004
N2    N     N_2   0.521820 0.543250 0.958020 0.155004
O1    O     O_R   0.505650 0.286040 0.618880 -0.555025
O2    O     O_R   0.494350 0.713960 0.381120 -0.555025
O3    O     O_R   0.490960 0.256910 0.309800 -0.625860
O4    O     O_R   0.509040 0.743090 0.690200 -0.625860
O5    O     O_R   0.394600 0.516230 0.672450 -0.541349
O6    O     O_R   0.605400 0.483770 0.327550 -0.541349
O7    O     O_R   0.379910 0.487100 0.363380 -0.595571
O8    O     O_R   0.620090 0.512900 0.636620 -0.595571
H3    H     H_    0.247540 0.414039 0.243221 0.158617
H4    H     H_    0.752460 0.585960 0.756779 0.158617
H5    H     H_    0.005857 0.545907 0.313356 0.141922
H6    H     H_    0.994143 0.454093 0.686644 0.141922
H7    H     H_    0.123272 0.543395 0.849753 0.121573
H8    H     H_    0.876728 0.456604 0.150247 0.121573
H9    H     H_    0.891803 0.600832 0.742118 0.122710
H10   H     H_    0.108197 0.399168 0.257882 0.122710
H11   H     H_    0.482191 0.958920 0.291161 0.164915
H12   H     H_    0.517808 0.041080 0.708839 0.164915
O9    O     O_3   0.412144 0.395528 0.949448 -0.481797
C21   C     C_3   0.395660 0.243139 0.979119 -0.141151
H13   H     H_    0.367488 0.248652 0.112542 0.159934
H14   H     H_    0.448115 0.174393 0.968327 0.135811
H15   H     H_    0.353950 0.177492 0.870805 0.124517
O10   O     O_3   0.587855 0.604472 0.050552 -0.481797
C22   C     C_3   0.604340 0.756861 0.020881 -0.141150
H16   H     H_    0.551885 0.825607 0.031672 0.135811
H17   H     H_    0.632512 0.751348 0.887458 0.159934
H18   H     H_    0.646050 0.822508 0.129195 0.124516

loop_
_geom_bond_atom_site_label_1
_geom_bond_atom_site_label_2
_ccdc_geom_bond_type
C2    C4    S    
Cu1   N2    S    
C15   C17   A    
C12   H9    S    
Cu2   O3    S    
C14   C20   S    
Cu1   O5    S    
Cu1   O4    S    
C6    O6    A    
C19   C20   D    
C2    O4    A    
C22   H18   S    
C3    H11   S    
N2    O10   S    
C1    O3    A    
O10   C22   S    
Cu1   O1    S    
C16   C18   A    
Cu2   O2    S    
O9    C21   S    
C20   H5    S    
C11   C13   A    
C21   H15   S    
C15   H7    S    
C10   H4    S    
C6    O8    A    
Cu2   O6    S    
C16   H8    S    
C10   C12   A    
C8    C10   A    
C19   H6    S    
C12   C14   A    
C7    C9    A    
C13   C15   A    
C14   C16   A    
C5    O5    A    
C17   H2    S    
C2    O2    A    
C13   C19   S    
C9    H3    S    
C18   H1    S    
C21   H14   S    
N1    O9    S    
C11   H10   S    
C1    O1    A    
C5    C7    S    
Cu2   O7    S    
C9    C11   A    
C21   H13   S    
C6    C8    S    
Cu1   O8    S    
C4    H12   S    
C1    C3    S    
N1    N2    D    
Cu1   Cu2   S    
C8    C18   A    
C3    C4    D    
C22   H16   S    
C5    O7    A    
C22   H17   S    
Cu2   N1    S    
C7    C17   A    
