data_mof_unit_44078.cif
_audit_creation_date              2012-12-10T17:44:28-0500
_audit_creation_method            fapswitch 2.2
_symmetry_space_group_name_H-M    P1
_symmetry_Int_Tables_number       1
_space_group_crystal_system       triclinic
_cell_length_a                    9.948815
_cell_length_b                    10.713442
_cell_length_c                    15.199363
_cell_angle_alpha                 93.28658
_cell_angle_beta                  69.258782
_cell_angle_gamma                 89.866014
_cell_volume                      1512.10782663

loop_
_atom_site_label
_atom_site_type_symbol
_atom_type_description
_atom_site_fract_x
_atom_site_fract_y
_atom_site_fract_z
_atom_type_partial_charge
C1    C     C_R   0.503200 0.739063 0.492025 0.884042
C2    C     C_R   0.739431 0.455477 0.023828 0.064513
C3    C     C_R   0.601470 0.412411 0.078755 0.095178
C4    C     C_R   0.411292 0.491036 0.675512 0.844560
C5    C     C_R   0.823795 0.521898 0.068054 0.079969
C6    C     C_R   0.776424 0.536329 0.166690 0.116351
C7    C     C_R   0.557872 0.427746 0.176848 -0.286206
C8    C     C_R   0.267514 0.884815 0.458937 -0.150421
C9    C     C_R   0.133864 0.945405 0.483696 -0.174379
C10   C     C_R   0.108833 0.059808 0.535340 -0.136968
C11   C     C_R   0.221573 0.118898 0.553809 -0.132148
C12   C     C_R   0.443633 0.375643 0.894541 0.082069
C13   C     C_R   0.361677 0.063387 0.520358 0.089248
C14   C     C_R   0.378012 0.938276 0.486584 0.095896
C15   C     C_R   0.503542 0.872194 0.483717 -0.132533
C16   C     C_R   0.495146 0.261016 0.507923 0.879631
C17   C     C_R   0.622326 0.935892 0.490103 -0.215874
C18   C     C_R   0.615913 0.063382 0.503370 -0.185586
C19   C     C_R   0.487528 0.128110 0.516713 -0.122408
C20   C     C_R   0.780218 0.625491 0.654063 0.156610
C21   C     C_R   0.802024 0.643511 0.739542 -0.255706
C22   C     C_R   0.938971 0.637994 0.740755 -0.260901
C23   C     C_R   0.304382 0.332103 0.942640 0.123342
C24   C     C_R   0.054069 0.619053 0.655920 0.159176
C25   C     C_R   0.031620 0.559073 0.575826 0.112762
C26   C     C_R   0.887273 0.560576 0.575298 0.140358
C27   C     C_R   0.967398 0.442948 0.428697 -0.109611
C28   C     C_R   0.589413 0.499121 0.323724 0.893774
C29   C     C_R   0.110092 0.443270 0.428596 -0.113591
C30   C     C_R   0.365026 0.445301 0.770658 -0.075174
C31   C     C_R   0.643816 0.487737 0.220715 -0.099837
C32   C     C_R   0.202677 0.331160 0.897348 -0.188444
C33   C     C_R   0.233252 0.387130 0.811470 -0.232722
C34   C     C_R   0.550653 0.371972 0.935101 0.004344
C35   C     C_R   0.467544 0.439402 0.813300 -0.200905
C36   C     C_R   0.507167 0.365438 0.033388 0.028933
C37   C     C_R   0.368361 0.319642 0.081783 -0.237074
C38   C     C_R   0.269928 0.297840 0.035967 0.124215
C39   C     C_R   0.698311 0.383368 0.882001 0.150067
C40   C     C_R   0.789912 0.430230 0.926028 -0.260544
H1    H     H_    0.720831 0.887450 0.484895 0.169604
H2    H     H_    0.956603 0.675429 0.803388 0.150755
H3    H     H_    0.194956 0.396276 0.370208 0.149408
H4    H     H_    0.900498 0.445539 0.883133 0.164809
H5    H     H_    0.097752 0.291782 0.928981 0.183348
H6    H     H_    0.154477 0.384824 0.777243 0.172709
H7    H     H_    0.566658 0.488046 0.783777 0.178464
H8    H     H_    0.333026 0.299647 0.155061 0.163742
H9    H     H_    0.926419 0.644122 0.970588 0.181847
H10   H     H_    0.027793 0.518044 0.973579 0.203071
H11   H     H_    0.581302 0.708343 0.702667 0.165777
H12   H     H_    0.283179 0.797458 0.416961 0.169650
H13   H     H_    0.714551 0.796899 0.637703 0.165369
H14   H     H_    0.198671 0.699608 0.706853 0.165535
H15   H     H_    0.139104 0.789508 0.641198 0.182047
H16   H     H_    0.962133 0.559968 0.191265 0.217699
H17   H     H_    0.873864 0.694629 0.188999 0.200854
H18   H     H_    0.048770 0.902029 0.464890 0.141570
H19   H     H_    0.003240 0.104403 0.558806 0.168074
H20   H     H_    0.197091 0.206875 0.595441 0.173907
H21   H     H_    0.712375 0.111025 0.502376 0.181502
H22   H     H_    0.945764 0.395867 0.370394 0.166841
H23   H     H_    0.717452 0.684393 0.801393 0.159555
H24   H     H_    0.455359 0.395260 0.221309 0.160161
I1    I     I_    0.064389 0.232700 0.118053 -0.449057
I2    I     I_    0.795490 0.303871 0.741404 -0.456967
N1    N     N_R   0.856800 0.501200 0.500850 -0.102817
N2    N     N_R   0.142390 0.501280 0.500880 -0.109977
N3    N     N_3   0.951656 0.584256 0.014719 -0.474615
N4    N     N_3   0.674707 0.706298 0.642499 -0.375933
N5    N     N_3   0.172662 0.698334 0.645825 -0.365644
N6    N     N_3   0.860732 0.603871 0.212108 -0.437209
O1    O     O_R   0.385310 0.683220 0.500000 -0.610290
O2    O     O_R   0.614640 0.683250 0.500010 -0.595792
O3    O     O_R   0.319840 0.499980 0.632240 -0.603803
O4    O     O_R   0.549160 0.500000 0.632250 -0.588144
O5    O     O_R   0.385360 0.316750 0.499990 -0.625697
O6    O     O_R   0.614690 0.316780 0.500000 -0.602703
O7    O     O_R   0.450840 0.500000 0.367750 -0.630073
O8    O     O_R   0.680160 0.500020 0.367760 -0.586305
Zn1   Zn    Zn3+2 0.346880 0.499980 0.499990 0.945163
Zn2   Zn    Zn3+2 0.653120 0.500020 0.500010 0.979559

loop_
_geom_bond_atom_site_label_1
_geom_bond_atom_site_label_2
_ccdc_geom_bond_type
C27   C29   A    
C32   H5    S    
C35   H7    S    
C6    N6    S    
C12   C23   A    
C30   C35   A    
N2    Zn1   S    
C36   C37   A    
H10   N3    S    
C9    H18   S    
C3    C7    A    
C5    C6    A    
C18   C19   A    
C28   O7    A    
C4    O3    A    
C5    N3    S    
H14   N5    S    
C8    C9    A    
H16   N6    S    
H15   N5    S    
C1    C15   S    
H11   N4    S    
C9    C10   A    
C8    H12   S    
C34   C36   A    
C6    C31   A    
H9    N3    S    
C13   C14   A    
C29   H3    S    
C33   H6    S    
C20   N4    S    
C25   N2    A    
O2    Zn2   S    
H13   N4    S    
O1    Zn1   S    
C4    O4    A    
C13   C19   A    
C34   C39   A    
C7    C31   A    
C24   C25   A    
O8    Zn2   S    
O4    Zn2   S    
C39   C40   A    
O7    Zn1   S    
O3    Zn1   S    
C25   C26   A    
C37   H8    S    
C37   C38   A    
C27   H22   S    
C29   N2    A    
O6    Zn2   S    
C38   I1    S    
O5    Zn1   S    
C17   C18   A    
C12   C35   A    
C39   I2    S    
C22   C24   A    
C2    C5    A    
C26   N1    A    
C12   C34   A    
C11   H20   S    
C1    O2    A    
C15   C17   A    
C8    C14   A    
C30   C33   A    
C28   C31   S    
C18   H21   S    
C23   C38   A    
C1    O1    A    
C32   C33   A    
C2    C3    A    
C23   C32   A    
C11   C13   A    
C22   H2    S    
C20   C26   A    
C3    C36   A    
C16   C19   S    
C10   H19   S    
C16   O6    A    
H17   N6    S    
C28   O8    A    
C17   H1    S    
C7    H24   S    
C21   H23   S    
C27   N1    A    
C10   C11   A    
C2    C40   A    
C40   H4    S    
C20   C21   A    
N1    Zn2   S    
C14   C15   A    
C16   O5    A    
C21   C22   A    
C4    C30   S    
C24   N5    S    
