data_mof_unit_47531.cif
_audit_creation_date              2012-12-11T15:54:54-0500
_audit_creation_method            fapswitch 2.2
_symmetry_space_group_name_H-M    P1
_symmetry_Int_Tables_number       1
_space_group_crystal_system       triclinic
_cell_length_a                    17.942116
_cell_length_b                    24.507459
_cell_length_c                    15.063932
_cell_angle_alpha                 89.978633
_cell_angle_beta                  125.675616
_cell_angle_gamma                 90.136824
_cell_volume                      5380.74194595

loop_
_atom_site_label
_atom_site_type_symbol
_atom_type_description
_atom_site_fract_x
_atom_site_fract_y
_atom_site_fract_z
_atom_type_partial_charge
Br1   Br    Br    0.832567 0.026820 0.224973 -0.360352
Br2   Br    Br    0.688341 0.892571 0.065227 -0.271129
Br3   Br    Br    0.207346 0.612526 0.099107 -0.338770
Br4   Br    Br    0.270058 0.343281 0.112110 -0.298789
Br5   Br    Br    0.568884 0.875611 0.638990 -0.501678
Br6   Br    Br    0.596744 0.918383 0.453574 -0.400414
Br7   Br    Br    0.063026 0.395727 0.687301 -0.439594
Br8   Br    Br    0.090726 0.393361 0.487726 -0.425687
Br9   Br    Br    0.555959 0.969514 0.764927 -0.402837
Br10  Br    Br    0.628035 0.040231 0.451358 -0.410065
Br11  Br    Br    0.035436 0.510974 0.740330 -0.416539
Br12  Br    Br    0.899857 0.899115 0.321254 -0.447287
Br13  Br    Br    0.159763 0.500543 0.457112 -0.392027
Br14  Br    Br    0.095887 0.114631 0.366281 -0.547202
Br15  Br    Br    0.116855 0.888159 0.365880 -0.534261
Br16  Br    Br    0.608965 0.614413 0.362642 -0.545621
Br17  Br    Br    0.635665 0.392120 0.366434 -0.515692
Br18  Br    Br    0.880445 0.112550 0.634678 -0.497140
Br19  Br    Br    0.870157 0.888938 0.637218 -0.444102
Br20  Br    Br    0.392316 0.612303 0.628467 -0.494548
Br21  Br    Br    0.371277 0.390504 0.632846 -0.404991
Br22  Br    Br    0.343054 0.492526 0.228338 -0.341569
Br23  Br    Br    0.454417 0.381329 0.376628 -0.352246
Br24  Br    Br    0.320851 0.752781 0.879523 -0.417660
Br25  Br    Br    0.355339 0.217781 0.848820 -0.423217
Br26  Br    Br    0.966159 0.283842 0.030401 -0.398692
Br27  Br    Br    0.833199 0.740850 0.900639 -0.455771
Br28  Br    Br    0.678447 0.140922 0.972774 -0.349850
C1    C     C_R   0.906713 0.869767 0.091131 -0.056423
C2    C     C_R   0.155504 0.850865 0.090320 -0.035717
C3    C     C_R   0.319943 0.642458 0.999893 0.068378
C4    C     C_R   0.678977 0.998502 0.676316 0.104032
C5    C     C_R   0.180608 0.498702 0.675826 0.106275
C6    C     C_R   0.050488 0.998794 0.361003 -0.085895
C7    C     C_R   0.564467 0.498612 0.367961 -0.129135
C8    C     C_R   0.255928 0.954389 0.300496 -0.088895
C9    C     C_R   0.254099 0.045695 0.302700 -0.092922
C10   C     C_R   0.765119 0.455333 0.286496 -0.098948
C11   C     C_R   0.762648 0.547762 0.284414 0.014891
C12   C     C_R   0.943704 0.044873 0.692494 0.224092
C13   C     C_R   0.648123 0.651910 0.088960 -0.054061
C14   C     C_R   0.942869 0.954314 0.693328 0.235972
C15   C     C_R   0.451549 0.544510 0.695064 0.261643
C16   C     C_R   0.448295 0.453885 0.695486 0.235603
C17   C     C_2   0.581642 0.271385 0.793879 1.024742
C18   C     C_2   0.516516 0.783420 0.848503 1.179100
C19   C     C_2   0.021131 0.718121 0.866949 1.066578
C20   C     C_2   0.081149 0.257842 0.901242 1.213129
C21   C     C_2   0.080907 0.764511 0.774259 1.096267
C22   C     C_2   0.100465 0.211191 0.772049 0.978485
C23   C     C_2   0.693827 0.336110 0.803130 1.039872
C24   C     C_R   0.682481 0.369688 0.089785 -0.133190
C25   C     C_2   0.581555 0.728683 0.772291 1.052927
C26   C     C_2   0.626562 0.246031 0.042874 1.205919
C27   C     C_2   0.618888 0.785919 0.104090 1.145205
C28   C     C_2   0.140808 0.722983 0.128358 1.163752
C29   C     C_2   0.232667 0.233826 0.163230 1.135325
C30   C     C_2   0.330487 0.826315 0.109608 0.996068
C31   C     C_2   0.358936 0.124604 0.048363 1.027265
C32   C     C_2   0.875670 0.347546 0.164476 1.050664
C33   C     C_2   0.822109 0.676039 0.121660 0.965389
C34   C     C_2   0.365439 0.941529 0.565173 1.178835
C35   C     C_R   0.302845 0.000193 0.361628 0.099811
C36   C     C_2   0.422544 0.035274 0.303508 1.119070
C37   C     C_2   0.855391 0.468172 0.542638 1.175643
C38   C     C_2   0.955262 0.519278 0.292430 1.207701
C39   C     C_R   0.816109 0.502572 0.334276 0.056861
C40   C     C_R   0.928868 0.999364 0.629651 0.005470
C41   C     C_R   0.441570 0.498525 0.635417 -0.011979
C42   C     C_R   0.128969 0.821571 0.997271 0.025452
C43   C     C_R   0.175904 0.143049 0.993898 0.029493
C44   C     C_R   0.674394 0.354078 0.995551 0.069123
C45   C     C_R   0.928605 0.146959 0.090133 -0.026184
C46   C     C_R   0.619634 0.681485 0.995656 0.035547
C47   C     C_3   0.928982 0.035063 0.381572 0.206077
C48   C     C_3   0.995651 0.938571 0.450629 0.226178
C49   C     C_3   0.431577 0.519336 0.377346 0.205346
C50   C     C_3   0.536473 0.437051 0.484223 0.254553
C51   C     C_3   0.888341 0.028324 0.446981 -0.336793
C52   C     C_3   0.968633 0.939702 0.529227 -0.393696
C53   C     C_3   0.394266 0.510399 0.445823 -0.313092
C54   C     C_3   0.514735 0.440252 0.568341 -0.427049
C55   C     C_3   0.092278 0.020960 0.545587 -0.422015
C56   C     C_R   0.437811 0.349339 0.089516 -0.025317
C57   C     C_3   0.595445 0.532463 0.542066 -0.454302
C58   C     C_3   0.016520 0.997869 0.431111 0.085528
C59   C     C_3   0.531976 0.496080 0.439535 0.063227
C60   C     C_3   0.958609 0.998993 0.555837 0.148730
C61   C     C_3   0.474467 0.497102 0.564712 0.143760
C62   C     C_R   0.840439 0.146442 0.906206 0.008792
C63   C     C_R   0.815636 0.871868 0.907365 0.020594
C64   C     C_R   0.314773 0.626508 0.908406 0.006379
C65   C     C_R   0.346251 0.350828 0.906398 -0.012304
C66   C     C_3   0.054365 0.027271 0.613803 -0.420285
C67   C     C_R   0.405544 0.627462 0.092060 -0.068642
C68   C     C_3   0.553765 0.539064 0.605845 -0.380969
C69   C     C_3   0.741800 0.241490 0.874948 -0.479917
C70   C     C_3   0.667487 0.809378 0.881993 -0.366192
C71   C     C_3   0.165524 0.685647 0.892009 -0.444674
C72   C     C_3   0.215078 0.280339 0.893229 -0.364426
C73   C     C_3   0.109973 0.736518 0.882994 -0.376398
C74   C     C_3   0.154526 0.233976 0.890213 -0.317387
C75   C     C_3   0.683384 0.290010 0.866365 -0.337288
C76   C     C_3   0.607471 0.761455 0.874783 -0.344690
C77   C     C_3   0.313054 0.741881 0.002947 0.122383
C78   C     C_R   0.062105 0.850831 0.907402 0.024124
C79   C     C_3   0.355474 0.220356 0.979495 0.117676
C80   C     C_3   0.880111 0.267647 0.065099 0.097259
C81   C     C_3   0.813153 0.756475 0.012876 0.091863
C82   C     C_3   0.759057 0.204936 0.044583 0.181626
C83   C     C_3   0.744947 0.820710 0.083237 0.210049
C84   C     C_3   0.258069 0.683360 0.096657 0.162609
C85   C     C_3   0.321329 0.274577 0.098471 0.152838
C86   C     C_3   0.810669 0.221386 0.994463 0.076572
C87   C     C_3   0.762073 0.811320 0.994186 0.010896
C88   C     C_3   0.264586 0.687376 0.997849 0.078087
C89   C     C_R   0.093971 0.123620 0.905124 -0.002066
C90   C     C_3   0.316795 0.274423 0.992024 0.041861
C91   C     C_3   0.173842 0.771490 0.995331 0.034616
C92   C     C_3   0.223140 0.191758 0.989508 -0.019175
C93   C     C_3   0.721968 0.306389 0.990561 0.030181
C94   C     C_3   0.666092 0.730196 0.991868 -0.017348
C95   C     C_3   0.263865 0.791303 0.008999 -0.348790
C96   C     C_3   0.298489 0.171180 0.974432 -0.327182
C97   C     C_3   0.828042 0.319916 0.053804 -0.344580
C98   C     C_3   0.759846 0.708858 0.016748 -0.286478
C99   C     C_3   0.207142 0.734188 0.098406 -0.374743
C100  C     C_R   0.593250 0.374844 0.906031 0.038600
C101  C     C_3   0.277025 0.222831 0.104061 -0.414816
C102  C     C_3   0.714996 0.256476 0.053843 -0.375879
C103  C     C_3   0.692123 0.771345 0.086875 -0.409285
C104  C     C_3   0.426424 0.950454 0.526737 -0.417379
C105  C     C_3   0.451280 0.992774 0.391063 -0.400822
C106  C     C_3   0.926147 0.463731 0.517717 -0.421098
C107  C     C_3   0.967333 0.482502 0.382227 -0.438722
C108  C     C_R   0.735805 0.953879 0.714873 -0.027233
C109  C     C_R   0.732812 0.045365 0.722867 -0.003176
C110  C     C_R   0.234929 0.453119 0.722213 0.030635
C111  C     C_R   0.556955 0.650543 0.907046 0.018589
C112  C     C_R   0.235157 0.545103 0.716339 -0.066842
C113  C     C_3   0.530437 0.951952 0.621614 0.479115
C114  C     C_3   0.557120 0.988308 0.476271 0.487772
C115  C     C_3   0.025693 0.468855 0.621832 0.501552
C116  C     C_3   0.068924 0.472221 0.480285 0.490371
C117  C     C_3   0.434226 0.052798 0.518881 -0.294913
C118  C     C_3   0.945764 0.560937 0.475926 -0.340572
C119  C     C_3   0.401424 0.000015 0.448960 0.032219
C120  C     C_3   0.911689 0.503200 0.426222 0.042724
C121  C     C_3   0.578955 0.996533 0.593122 -0.017154
C122  C     C_R   0.186854 0.123763 0.088117 -0.008212
C123  C     C_3   0.083623 0.498089 0.586265 -0.032475
C124  C     C_3   0.538593 0.053637 0.592336 -0.455115
C125  C     C_3   0.049012 0.558966 0.557190 -0.437076
C126  C     C_R   0.044156 0.044808 0.302880 0.295060
C127  C     C_R   0.047128 0.953964 0.302817 0.330669
C128  C     C_R   0.551117 0.544825 0.305818 0.278077
C129  C     C_R   0.555400 0.454087 0.306168 0.379560
C130  C     C_R   0.820959 0.854771 0.998139 0.081139
C131  C     C_R   0.859227 0.173465 0.996806 0.076506
C132  C     C_R   0.369447 0.321394 0.996336 -0.013474
H1    H     H_    0.936852 0.858309 0.174514 0.173000
H2    H     H_    0.021862 0.917616 0.605248 0.195156
H3    H     H_    0.988366 0.589102 0.251549 0.374246
H4    H     H_    0.357271 0.547682 0.441874 0.215544
H5    H     H_    0.578367 0.432896 0.651539 0.201940
H6    H     H_    0.118271 0.061060 0.540708 0.251335
H7    H     H_    0.151714 0.992792 0.588531 0.195967
H8    H     H_    0.605353 0.573723 0.521502 0.250318
H9    H     H_    0.664487 0.513614 0.595938 0.208776
H10   H     H_    0.048410 0.071538 0.625161 0.217863
H11   H     H_    0.103795 0.009336 0.696301 0.199199
H12   H     H_    0.527600 0.581430 0.594284 0.228237
H13   H     H_    0.963752 0.160904 0.173047 0.152788
H14   H     H_    0.608372 0.533358 0.694623 0.209059
H15   H     H_    0.782213 0.252358 0.842749 0.207845
H16   H     H_    0.678253 0.804208 0.817432 0.215123
H17   H     H_    0.166582 0.683545 0.819555 0.163274
H18   H     H_    0.211056 0.280263 0.816870 0.209956
H19   H     H_    0.696217 0.207301 0.822445 0.191040
H20   H     H_    0.633820 0.849710 0.863636 0.265698
H21   H     H_    0.132482 0.646324 0.886744 0.250112
H22   H     H_    0.190628 0.321890 0.892211 0.253815
H23   H     H_    0.799040 0.158624 0.821474 0.107305
H24   H     H_    0.478938 0.335678 0.173251 0.160672
H25   H     H_    0.764789 0.862737 0.823093 0.141771
H26   H     H_    0.263952 0.636407 0.824526 0.114296
H27   H     H_    0.304522 0.338793 0.821528 0.154633
H28   H     H_    0.243876 0.819194 0.941092 0.232929
H29   H     H_    0.262932 0.152183 0.893122 0.222035
H30   H     H_    0.836273 0.348951 0.004069 0.232083
H31   H     H_    0.743558 0.679229 0.952689 0.234672
H32   H     H_    0.810075 0.189838 0.129386 0.110335
H33   H     H_    0.812440 0.821823 0.163513 0.154539
H34   H     H_    0.328345 0.684218 0.174045 0.113655
H35   H     H_    0.434153 0.636258 0.176201 0.149579
H36   H     H_    0.393795 0.273149 0.171561 0.128171
H37   H     H_    0.260541 0.757377 0.171556 0.128103
H38   H     H_    0.334750 0.195422 0.162360 0.110192
H39   H     H_    0.760418 0.267281 0.141434 0.132487
H40   H     H_    0.742258 0.750561 0.165056 0.153152
H41   H     H_    0.385757 0.740359 0.075887 0.153271
H42   H     H_    0.428548 0.217849 0.050416 0.160233
H43   H     H_    0.923534 0.253776 0.151628 0.141576
H44   H     H_    0.882967 0.759552 0.090782 0.128318
H45   H     H_    0.413804 0.913838 0.476164 0.160309
H46   H     H_    0.823614 0.004183 0.399842 0.250774
H47   H     H_    0.426787 0.953144 0.346465 0.170496
H48   H     H_    0.918058 0.421690 0.485322 0.160900
H49   H     H_    0.937027 0.442609 0.342250 0.174340
H50   H     H_    0.722234 0.913253 0.682725 0.200060
H51   H     H_    0.712745 0.087556 0.703189 0.114625
H52   H     H_    0.218805 0.410710 0.702331 0.174412
H53   H     H_    0.218652 0.586237 0.685382 0.130443
H54   H     H_    0.408187 0.054517 0.569958 0.237319
H55   H     H_    0.410010 0.090694 0.469904 0.209019
H56   H     H_    0.914371 0.574439 0.517556 0.239317
H57   H     H_    0.902587 0.918002 0.492544 0.263854
H58   H     H_    0.928555 0.592519 0.413978 0.188929
H59   H     H_    0.562428 0.066709 0.675743 0.229780
H60   H     H_    0.561695 0.086082 0.561890 0.235335
H61   H     H_    0.068317 0.583458 0.629897 0.200534
H62   H     H_    0.080348 0.580262 0.521258 0.251489
H63   H     H_    0.271996 0.911954 0.323003 0.125605
H64   H     H_    0.266990 0.087896 0.328046 0.136718
H65   H     H_    0.785119 0.413751 0.313628 0.124065
H66   H     H_    0.777425 0.590375 0.306156 0.110657
H67   H     H_    0.017091 0.838340 0.824016 0.168619
H68   H     H_    0.344064 0.476121 0.412166 0.254013
H69   H     H_    0.066271 0.125523 0.820209 0.120983
H70   H     H_    0.564623 0.372479 0.820927 0.123820
H71   H     H_    0.510396 0.662619 0.823901 0.166928
H72   H     H_    0.244680 0.128845 0.172115 0.062583
H73   H     H_    0.201122 0.838502 0.174808 0.098669
H74   H     H_    0.691794 0.665365 0.173023 0.107663
H75   H     H_    0.732182 0.356604 0.172567 0.120738
H76   H     H_    0.950964 0.078385 0.390274 0.141569
H77   H     H_    0.058717 0.913528 0.489876 0.162564
H78   H     H_    0.434596 0.564168 0.367560 0.131460
H79   H     H_    0.466794 0.407106 0.552433 0.259898
H80   H     H_    0.607417 0.421049 0.526656 0.175305
H81   H     H_    0.485613 0.216492 0.764326 0.384192
H82   H     H_    0.443882 0.846519 0.848022 0.385033
H83   H     H_    0.952599 0.659928 0.888089 0.384259
H84   H     H_    0.012821 0.324956 0.896029 0.392426
H85   H     H_    0.999075 0.701118 0.680251 0.288391
H86   H     H_    0.980189 0.207805 0.621706 0.372603
H87   H     H_    0.655634 0.287393 0.673692 0.317700
H88   H     H_    0.504781 0.726349 0.607201 0.369209
H89   H     H_    0.506792 0.277094 0.998163 0.321651
H90   H     H_    0.870650 0.069234 0.460569 0.210151
H91   H     H_    0.590042 0.824861 0.198771 0.361711
H92   H     H_    0.020079 0.737767 0.103874 0.343769
H93   H     H_    0.253499 0.253168 0.306412 0.369461
H94   H     H_    0.434052 0.830286 0.270399 0.368722
H95   H     H_    0.484371 0.098130 0.172753 0.384045
H96   H     H_    0.919871 0.343316 0.322083 0.353620
H97   H     H_    0.914977 0.675303 0.285685 0.351986
H98   H     H_    0.270177 0.970265 0.582978 0.335409
H99   H     H_    0.407926 0.115105 0.264074 0.322812
H100  H     H_    0.758296 0.512497 0.536847 0.336988
N1    N     N_R   0.950530 0.896220 0.057200 -0.048537
N2    N     N_R   0.818150 0.028600 0.792440 -0.055196
N3    N     N_R   0.318150 0.471400 0.792440 -0.061740
N4    N     N_R   0.318150 0.528600 0.792440 -0.056088
N5    N     N_R   0.025710 0.028600 0.207560 -0.083478
N6    N     N_R   0.025710 0.971400 0.207560 -0.086933
N7    N     N_R   0.525710 0.528600 0.207560 -0.082803
N8    N     N_R   0.525710 0.471400 0.207560 -0.081702
N9    N     N_R   0.181850 0.971400 0.207560 -0.044979
N10   N     N_R   0.181850 0.028600 0.207560 -0.058317
N11   N     N_R   0.681850 0.471400 0.207560 -0.046688
N12   N     N_R   0.950530 0.103780 0.057200 -0.044991
N13   N     N_R   0.681850 0.528600 0.207560 -0.054650
N14   N     N_R   0.974290 0.028600 0.792440 -0.101706
N15   N     N_R   0.974290 0.971400 0.792440 -0.097899
N16   N     N_R   0.474290 0.528600 0.792440 -0.095780
N17   N     N_R   0.474290 0.471400 0.792440 -0.105134
N18   N     N_R   0.049470 0.896220 0.942800 -0.060442
N19   N     N_R   0.049470 0.103780 0.942800 -0.034998
N20   N     N_R   0.549470 0.396220 0.942800 -0.048182
N21   N     N_R   0.549470 0.603780 0.942800 -0.060694
N22   N     N_R   0.106670 0.103780 0.057200 -0.042372
N23   N     N_R   0.450530 0.396220 0.057200 -0.040322
N24   N     N_R   0.106670 0.896220 0.057200 -0.048814
N25   N     N_R   0.606670 0.603780 0.057200 -0.051676
N26   N     N_R   0.606670 0.396220 0.057200 -0.048600
N27   N     N_R   0.450530 0.603780 0.057200 -0.044791
N28   N     N_R   0.893330 0.103780 0.942800 -0.055847
N29   N     N_R   0.893330 0.896220 0.942800 -0.054363
N30   N     N_R   0.393330 0.603780 0.942800 -0.051898
N31   N     N_R   0.393330 0.396220 0.942800 -0.054027
N32   N     N_R   0.818150 0.971400 0.792440 -0.065363
Ni1   Ni    Ni4+2 0.065600 0.934400 0.131190 0.285392
Ni2   Ni    Ni4+2 0.065600 0.065600 0.131190 0.296303
Ni3   Ni    Ni4+2 0.565600 0.434400 0.131190 0.280877
Ni4   Ni    Ni4+2 0.565600 0.565600 0.131190 0.287933
Ni5   Ni    Ni4+2 0.934400 0.065600 0.868810 0.309139
Ni6   Ni    Ni4+2 0.934400 0.934400 0.868810 0.302453
Ni7   Ni    Ni4+2 0.434400 0.565600 0.868810 0.297935
Ni8   Ni    Ni4+2 0.434400 0.434400 0.868810 0.299208
O1    O     O_2   0.525781 0.294468 0.707400 -0.604978
O2    O     O_R   0.019232 0.738615 0.673630 -0.700326
O3    O     O_2   0.139480 0.187851 0.738302 -0.595713
O4    O     O_R   0.006272 0.221399 0.698194 -0.720674
O5    O     O_2   0.714656 0.382621 0.838737 -0.608423
O6    O     O_R   0.676295 0.326067 0.700917 -0.706110
O7    O     O_2   0.618431 0.685637 0.778414 -0.625957
O8    O     O_R   0.516102 0.750406 0.668729 -0.698637
O9    O     O_2   0.625690 0.211941 0.101667 -0.563339
O10   O     O_R   0.549240 0.277952 0.974888 -0.778668
O11   O     O_2   0.541969 0.766170 0.047313 -0.628462
O12   O     O_R   0.553001 0.225176 0.820330 -0.708913
O13   O     O_R   0.643011 0.818839 0.193059 -0.691999
O14   O     O_2   0.167800 0.697389 0.211770 -0.553277
O15   O     O_R   0.053342 0.745909 0.069428 -0.779010
O16   O     O_2   0.149981 0.230913 0.116633 -0.579935
O17   O     O_R   0.289312 0.246829 0.274535 -0.724214
O18   O     O_2   0.330085 0.875940 0.100179 -0.566955
O19   O     O_R   0.394112 0.802342 0.211384 -0.800091
O20   O     O_2   0.327635 0.078271 0.027239 -0.558450
O21   O     O_R   0.450962 0.133243 0.134994 -0.761772
O22   O     O_2   0.902628 0.394423 0.174821 -0.551194
O23   O     O_2   0.449367 0.753526 0.805781 -0.563442
O24   O     O_R   0.892662 0.319321 0.255300 -0.805016
O25   O     O_2   0.824743 0.626354 0.116182 -0.611222
O26   O     O_R   0.877750 0.701993 0.223266 -0.795042
O27   O     O_2   0.368620 0.897829 0.606552 -0.531102
O28   O     O_R   0.305496 0.982042 0.552975 -0.793627
O29   O     O_2   0.384545 0.020708 0.208821 -0.560852
O30   O     O_R   0.436841 0.090722 0.330250 -0.789882
O31   O     O_2   0.847264 0.430718 0.590127 -0.525799
O32   O     O_R   0.800824 0.514657 0.513482 -0.789717
O33   O     O_2   0.908593 0.503573 0.197617 -0.530367
O34   O     O_R   0.507833 0.837626 0.870381 -0.714288
O35   O     O_R   0.996414 0.570836 0.316964 -0.788430
O36   O     O_2   0.952752 0.746840 0.815694 -0.567034
O37   O     O_R   0.015932 0.667932 0.907531 -0.724936
O38   O     O_2   0.024207 0.227531 0.895396 -0.572554
O39   O     O_R   0.071765 0.314253 0.906196 -0.703707
O40   O     O_2   0.112632 0.808210 0.772553 -0.586193

loop_
_geom_bond_atom_site_label_1
_geom_bond_atom_site_label_2
_ccdc_geom_bond_type
H85   O2    S    
H91   O13   S    
C77   C88   S    
C90   C132  S    
N4    Ni7   S    
C6    C127  A    
C21   O2    S    
C116  C123  S    
C57   C68   S    
H81   O12   S    
C122  H72   S    
C77   C95   S    
N14   N15   A    
Br18  C12   S    
C106  C115  S    
C23   O5    D    
N2    Ni5   S    
C78   N18   A    
C10   N11   A    
N9    Ni1   S    
C20   O39   S    
C109  N2    A    
C115  C123  S    
C13   C46   A    
C79   C96   S    
C13   N25   A    
C96   H29   S    
C9    C35   A    
C28   O14   D    
C34   O27   D    
C63   C130  A    
C55   H6    S    
Br2   C83   S    
C111  N21   A    
C25   O8    S    
C34   C104  S    
Br4   C85   S    
C32   O24   S    
C79   H42   S    
C71   C88   S    
C15   N16   A    
C57   H9    S    
C48   H77   S    
N13   Ni4   S    
C73   C91   S    
C7    C129  A    
C24   C44   A    
C50   C54   S    
C47   C58   S    
Br3   C84   S    
N3    Ni8   S    
C31   O20   D    
C69   C75   S    
C37   O32   S    
C108  H50   S    
C71   C73   S    
H84   O39   S    
C62   N28   A    
C49   H78   S    
N20   Ni8   S    
C70   H20   S    
C75   C93   S    
N16   Ni7   S    
Br25  C79   S    
C72   C74   S    
C31   C96   S    
C63   N29   A    
C1    C130  A    
C91   C95   S    
C53   H4    S    
C61   C68   S    
C26   O9    D    
C125  H62   S    
C52   C60   S    
C66   H10   S    
N18   Ni6   S    
C110  H52   S    
C123  C125  S    
C2    H73   S    
H100  O32   S    
C117  H54   S    
C118  H58   S    
C55   C58   S    
C10   C39   A    
C64   N30   A    
C18   O34   S    
C78   H67   S    
C29   O16   D    
H93   O17   S    
C47   C51   S    
H89   O10   S    
C54   H5    S    
C50   C59   S    
C94   C98   S    
C69   H15   S    
N1    Ni1   S    
C93   C102  S    
C72   H18   S    
Br7   C115  S    
C105  C114  S    
C54   C61   S    
N6    Ni1   S    
C114  C121  S    
H3    O35   S    
C24   N26   A    
C64   H26   S    
C43   C122  A    
C76   C94   S    
C25   C76   S    
C77   H41   S    
Br13  C116  S    
C33   O25   D    
C30   O19   S    
C11   H66   S    
C7    C59   S    
N23   Ni3   S    
C105  C119  S    
C17   O1    D    
Br17  C129  S    
C82   C86   S    
C79   C90   S    
Br15  C127  S    
Br19  C14   S    
H88   O8    S    
C104  H45   S    
C15   C41   A    
Br14  C126  S    
C41   C61   S    
C35   C119  S    
C20   O38   D    
C26   C102  S    
C56   N23   A    
C60   C66   S    
C43   C89   A    
C87   C130  S    
C92   C101  S    
C56   H24   S    
C22   O4    S    
C5    C123  S    
N14   Ni5   S    
Br26  C80   S    
C52   H57   S    
C36   O30   S    
Br28  C82   S    
C55   H7    S    
C28   C99   S    
C93   C97   S    
N10   Ni2   S    
Br21  C16   S    
C106  H48   S    
N11   Ni3   S    
C54   H79   S    
C47   H76   S    
C62   H23   S    
N31   Ni8   S    
C84   H34   S    
C33   C98   S    
C112  H53   S    
C83   C103  S    
C51   H90   S    
C102  H39   S    
C94   C103  S    
C84   C88   S    
C104  C113  S    
C129  N8    A    
C104  C119  S    
C81   H44   S    
C48   C52   S    
C17   O12   S    
C111  H71   S    
N7    N8    A    
H87   O6    S    
C45   C131  A    
N19   Ni5   S    
C103  H40   S    
C70   C87   S    
Br11  C115  S    
C67   N27   A    
C89   H69   S    
C85   H36   S    
N20   N26   A    
C71   H21   S    
C117  C124  S    
H83   O37   S    
C19   O37   S    
C81   C98   S    
N16   N17   A    
Br27  C81   S    
C52   H2    S    
C69   C86   S    
C100  N20   A    
N12   Ni2   S    
C91   C99   S    
C53   H68   S    
C44   C93   S    
N32   Ni6   S    
C126  N5    A    
C56   C132  A    
C34   O28   S    
N3    N4    A    
C30   C95   S    
C68   H14   S    
C25   O7    D    
C32   C97   S    
C80   H43   S    
C21   C73   S    
H98   O28   S    
C23   C75   S    
C124  H59   S    
Br10  C114  S    
C80   C86   S    
C95   H28   S    
H99   O30   S    
C27   O11   D    
C2    C42   A    
H96   O24   S    
N1    N29   A    
Br16  C128  S    
C50   H80   S    
N28   Ni5   S    
C97   H30   S    
Br6   C114  S    
C72   H22   S    
C37   C106  S    
C37   O31   D    
C53   C61   S    
C11   N13   A    
C63   H25   S    
H86   O4    S    
C18   O23   D    
N9    N10   A    
C99   H37   S    
C51   C60   S    
C117  C119  S    
C118  C120  S    
C6    C126  A    
N21   N25   A    
C108  N32   A    
C4    C108  A    
N22   Ni2   S    
N23   N31   A    
C55   C66   S    
C18   C76   S    
C65   C132  A    
C26   O10   S    
C125  H61   S    
C66   H11   S    
C23   O6    S    
C70   H16   S    
C49   C53   S    
C5    C110  A    
C20   C74   S    
N27   N30   A    
C16   C41   A    
C38   O35   S    
C8    H63   S    
C83   H33   S    
C10   H65   S    
C14   N15   A    
C107  H49   S    
C44   C100  A    
C22   C74   S    
C27   C103  S    
Br12  C48   S    
C42   C78   A    
N12   N28   A    
C48   C58   S    
C74   C92   S    
C36   C105  S    
C67   H35   S    
Br22  C49   S    
C45   N12   A    
H97   O26   S    
C118  C125  S    
C3    C67   A    
N25   Ni4   S    
N2    N32   A    
N26   Ni3   S    
C82   C102  S    
Br23  C50   S    
C98   H31   S    
C127  N6    A    
C38   C107  S    
C12   C40   A    
C39   C120  S    
C24   H75   S    
C19   C73   S    
N21   Ni7   S    
C113  C121  S    
C85   C101  S    
C43   C92   S    
C109  H51   S    
N29   Ni6   S    
N24   Ni1   S    
C29   C101  S    
C71   H17   S    
C27   O13   S    
C6    C58   S    
C69   H19   S    
C13   H74   S    
C5    C112  A    
N17   Ni8   S    
C62   C131  A    
N27   Ni4   S    
C122  N22   A    
N19   N22   A    
C38   O33   D    
C17   C75   S    
C117  H55   S    
C4    C121  S    
C84   C99   S    
H92   O15   S    
C1    N1    A    
C8    N9    A    
C29   O17   S    
C80   C97   S    
C8    C35   A    
N5    N6    A    
C101  H38   S    
C28   O15   S    
N18   N24   A    
C31   O21   S    
C14   C40   A    
N7    Ni4   S    
C57   C59   S    
C65   N31   A    
Br1   C47   S    
C1    H1    S    
C7    C128  A    
C121  C124  S    
Br9   C113  S    
H82   O34   S    
C33   O26   S    
C30   O18   D    
Br5   C113  S    
C16   N17   A    
C12   N14   A    
C42   C91   S    
C2    N24   A    
Br8   C116  S    
C49   C59   S    
C65   H27   S    
C21   O40   D    
C107  C116  S    
C107  C120  S    
H95   O21   S    
C112  N4    A    
C40   C60   S    
C9    N10   A    
C3    C88   S    
Br20  C15   S    
N11   N13   A    
C100  H70   S    
C46   C94   S    
C57   H8    S    
C11   C39   A    
N30   Ni7   S    
C9    H64   S    
C22   O3    D    
C36   O29   D    
N15   Ni6   S    
C105  H47   S    
C51   H46   S    
C106  C120  S    
C46   C111  A    
N8    Ni3   S    
C32   O22   D    
C4    C109  A    
C89   N19   A    
C128  N7    A    
C19   O36   D    
C70   C76   S    
C124  H60   S    
C82   H32   S    
N5    Ni2   S    
C45   H13   S    
H94   O19   S    
C86   C131  S    
C81   C87   S    
C85   C90   S    
C72   C90   S    
C110  N3    A    
C3    C64   A    
C68   H12   S    
C83   C87   S    
Br24  C77   S    
C118  H56   S    
C92   C96   S    
