data_mof_unit_16580.cif
_audit_creation_date              2012-12-11T17:29:53-0500
_audit_creation_method            fapswitch 2.2
_symmetry_space_group_name_H-M    P1
_symmetry_Int_Tables_number       1
_space_group_crystal_system       triclinic
_cell_length_a                    19.202009
_cell_length_b                    18.928704
_cell_length_c                    20.54982
_cell_angle_alpha                 106.816244
_cell_angle_beta                  106.516556
_cell_angle_gamma                 111.613344
_cell_volume                      5971.72247371

loop_
_atom_site_label
_atom_site_type_symbol
_atom_type_description
_atom_site_fract_x
_atom_site_fract_y
_atom_site_fract_z
_atom_type_partial_charge
C1    C     C_R   0.079896 0.088965 0.352051 -0.137524
C2    C     C_R   0.237392 0.074122 0.495154 -0.000407
C3    C     C_R   0.161451 0.197231 0.718664 -0.015705
C4    C     C_R   0.756096 0.930153 0.455933 -0.129159
C5    C     C_R   0.050680 0.805259 0.478799 -0.133720
C6    C     C_R   0.241865 0.213540 0.727548 -0.105487
C7    C     C_R   0.034280 0.777421 0.530689 0.101741
C8    C     C_R   0.240669 0.005108 0.453717 0.013764
C9    C     C_R   0.992189 0.975456 0.725558 0.020880
C10   C     C_R   0.066260 0.720889 0.627185 -0.114096
C11   C     C_R   0.076213 0.737530 0.566469 0.094725
C12   C     C_R   0.750224 0.002869 0.466969 0.057303
C13   C     C_R   0.120679 0.707888 0.533409 -0.255102
C14   C     C_R   0.138487 0.647865 0.547039 0.135771
C15   C     C_R   0.111739 0.616631 0.594841 0.045371
C16   C     C_R   0.844526 0.780579 0.287942 -0.130105
C17   C     C_R   0.078706 0.655156 0.637970 0.032343
C18   C     C_R   0.174277 0.612039 0.506648 -0.190898
C19   C     C_R   0.175449 0.539375 0.507192 -0.194877
C20   C     C_R   0.140777 0.502357 0.548071 0.130078
C21   C     C_R   0.112901 0.543208 0.595208 0.040138
C22   C     C_R   0.079375 0.506551 0.637295 0.127925
C23   C     C_R   0.767474 0.732332 0.284768 0.050412
C24   C     C_R   0.054725 0.549135 0.685962 -0.173332
C25   C     C_R   0.055519 0.623544 0.687260 -0.192299
C26   C     C_R   0.126574 0.421600 0.537018 -0.241759
C27   C     C_R   0.083456 0.380309 0.571256 0.117773
C28   C     C_R   0.001730 0.236849 0.567424 -0.110477
C29   C     C_R   0.065326 0.425166 0.625511 -0.249787
C30   C     C_R   0.376254 0.028157 0.516546 -0.298974
C31   C     C_R   0.313545 0.006352 0.448452 0.055314
C32   C     C_R   0.321865 0.988145 0.380596 -0.088658
C33   C     C_R   0.396184 0.989344 0.382606 0.042721
C34   C     C_R   0.052113 0.289094 0.545333 0.043199
C35   C     C_R   0.460140 0.011653 0.452827 0.064654
C36   C     C_R   0.451061 0.033472 0.520886 0.032121
C37   C     C_R   0.407417 0.965863 0.316202 -0.202256
C38   C     C_R   0.479977 0.964555 0.318853 -0.182795
C39   C     C_R   0.542466 0.986099 0.387527 0.141895
C40   C     C_R   0.768485 0.774442 0.352719 -0.145225
C41   C     C_R   0.532673 0.010092 0.454813 0.043165
C42   C     C_R   0.595259 0.030939 0.524102 0.084217
C43   C     C_R   0.587015 0.054109 0.590901 -0.184551
C44   C     C_R   0.515606 0.056442 0.590741 -0.076068
C45   C     C_R   0.237799 0.192624 0.655116 0.017451
C46   C     C_R   0.614572 0.983163 0.390407 -0.265169
C47   C     C_R   0.675458 0.004898 0.459886 0.109998
C48   C     C_R   0.666104 0.028162 0.526031 -0.238981
C49   C     C_R   0.313146 0.236263 0.798134 0.142102
C50   C     C_R   0.302754 0.247818 0.864806 -0.210231
C51   C     C_R   0.370954 0.286295 0.934435 -0.158747
C52   C     C_R   0.077113 0.241733 0.502226 -0.108018
C53   C     C_R   0.451598 0.313184 0.938813 0.245630
C54   C     C_R   0.460637 0.288347 0.872418 -0.280550
C55   C     C_R   0.391553 0.245876 0.801879 0.011400
C56   C     C_R   0.969732 0.791193 0.538580 -0.070966
C57   C     C_R   0.660241 0.512230 0.126087 -0.157054
C58   C     C_R   0.722015 0.594192 0.179542 -0.186953
C59   C     C_R   0.579240 0.479995 0.121840 0.223898
C60   C     C_R   0.703905 0.644895 0.229320 0.140575
C61   C     C_R   0.624253 0.610894 0.227064 -0.179270
C62   C     C_R   0.562937 0.528921 0.174216 -0.174869
C63   C     C_R   0.085199 0.024717 0.226136 0.077710
C64   C     C_R   0.826823 0.071664 0.519643 -0.125519
C65   C     C_R   0.027567 0.962874 0.152482 -0.164469
C66   C     C_R   0.049149 0.956983 0.093476 -0.123184
C67   C     C_R   0.169029 0.933658 0.432895 -0.050597
C68   C     C_R   0.129046 0.013885 0.106307 0.188537
C69   C     C_R   0.186621 0.077272 0.178995 -0.190062
C70   C     C_R   0.166797 0.082130 0.240273 -0.042408
C71   C     C_R   0.141424 0.017520 0.913947 -0.193258
C72   C     C_R   0.106490 0.028168 0.851010 -0.132386
C73   C     C_R   0.097281 0.943540 0.920127 0.237694
C74   C     C_R   0.027493 0.965067 0.793019 0.211134
C75   C     C_R   0.987238 0.888143 0.795786 -0.267320
C76   C     C_R   0.012222 0.947989 0.288500 -0.066660
C77   C     C_R   0.022746 0.875713 0.857872 -0.058368
C78   C     C_R   0.017462 0.050579 0.718743 -0.099621
C79   C     C_R   0.057058 0.022239 0.285122 0.023344
C80   C     C_2   0.289914 0.161687 0.509324 0.400723
C81   C     C_2   0.143131 0.253331 0.769600 0.418967
C82   C     C_2   0.047592 0.774324 0.680320 0.513299
C83   C     C_2   0.255448 0.970760 0.309494 0.462670
C84   C     C_2   0.511888 0.084871 0.664542 0.521082
C85   C     C_2   0.403571 0.205342 0.736325 0.438401
C86   C     C_2   0.233847 0.142441 0.317575 0.477439
C87   C     C_2   0.976547 0.793374 0.858121 0.478498
C88   C     C_R   0.942789 0.910407 0.653301 -0.056652
H1    H     H_    0.121653 0.155447 0.371688 0.121059
H2    H     H_    0.035630 0.395564 0.655150 0.132161
H3    H     H_    0.032925 0.652217 0.723666 0.130204
H4    H     H_    0.364221 0.038972 0.565824 0.170286
H5    H     H_    0.359884 0.946195 0.261259 0.129186
H6    H     H_    0.486754 0.945635 0.266952 0.134829
H7    H     H_    0.623616 0.964575 0.339674 0.133061
H8    H     H_    0.869447 0.761685 0.249218 0.093091
H9    H     H_    0.714371 0.043425 0.579224 0.137056
H10   H     H_    0.637115 0.071239 0.643599 0.172610
H11   H     H_    0.783278 0.617761 0.180996 0.119733
H12   H     H_    0.935558 0.767892 0.567775 0.074004
H13   H     H_    0.675096 0.475702 0.086527 0.131069
H14   H     H_    0.522152 0.302988 0.875900 0.130468
H15   H     H_    0.608032 0.648388 0.264310 0.118006
H16   H     H_    0.360824 0.299402 0.984819 0.128016
H17   H     H_    0.500755 0.505219 0.170951 0.126298
H18   H     H_    0.980794 0.255758 0.609620 0.125171
H19   H     H_    0.247599 0.121388 0.187695 0.165205
H20   H     H_    0.927546 0.837737 0.749950 0.101252
H21   H     H_    0.001933 0.909870 0.036916 0.141708
H22   H     H_    0.964811 0.918942 0.140221 0.121976
H23   H     H_    0.148834 0.869939 0.393703 0.125410
H24   H     H_    0.126020 0.264826 0.485268 0.126662
H25   H     H_    0.841979 0.137181 0.544923 0.110729
H26   H     H_    0.994622 0.884587 0.250678 0.118217
H27   H     H_    0.288567 0.203793 0.640316 0.140089
H28   H     H_    0.350231 0.180406 0.508634 0.046151
H29   H     H_    0.192162 0.305230 0.823491 0.032250
H30   H     H_    0.096073 0.804584 0.458307 0.095101
H31   H     H_    0.004331 0.747077 0.701719 -0.029615
H32   H     H_    0.135126 0.724525 0.491093 0.124225
H33   H     H_    0.031042 0.522791 0.720354 0.138806
H34   H     H_    0.053403 0.112946 0.764936 0.123104
H35   H     H_    0.271968 0.993513 0.270419 0.022322
H36   H     H_    0.472536 0.111579 0.672746 0.048125
H37   H     H_    0.459259 0.239259 0.730641 -0.002913
H38   H     H_    0.242305 0.229078 0.864363 0.101013
H39   H     H_    0.141054 0.086314 0.848439 0.108276
H40   H     H_    0.200008 0.069516 0.960251 0.136460
H41   H     H_    0.230625 0.130751 0.365217 0.030274
H42   H     H_    0.914548 0.746968 0.813042 0.005781
H43   H     H_    0.725324 0.748572 0.374583 0.093869
H44   H     H_    0.906387 0.844322 0.637978 0.076793
H45   H     H_    0.196287 0.636881 0.470761 0.136366
H46   H     H_    0.705939 0.865485 0.422562 0.107245
H47   H     H_    0.198455 0.509244 0.471901 0.139586
H48   H     H_    0.143031 0.389026 0.496522 0.124384
N1    N     N_R   0.052570 0.055840 0.395080 -0.038648
N2    N     N_2   0.509513 0.406160 0.059474 -0.103954
N3    N     N_2   0.145901 0.016182 0.044366 -0.102253
N4    N     N_R   0.834730 0.954500 0.499860 -0.050736
N5    N     N_2   0.111529 0.943956 0.991555 -0.052775
N6    N     N_R   0.890190 0.849120 0.355200 -0.043903
N7    N     N_R   0.997110 0.161210 0.539740 -0.045590
N8    N     N_R   0.841940 0.845190 0.395070 -0.042162
N9    N     N_R   0.045360 0.165140 0.499870 -0.045229
N10   N     N_R   0.877490 0.041590 0.539730 -0.040599
N11   N     N_R   0.009810 0.968740 0.355210 -0.054337
N12   N     N_R   0.954640 0.834860 0.500130 -0.050795
N13   N     N_R   0.158060 0.154810 0.604930 -0.046735
N14   N     N_R   0.122510 0.958410 0.460270 -0.061110
N15   N     N_R   0.990190 0.031260 0.644790 -0.033928
N16   N     N_R   0.947430 0.944160 0.604920 -0.051964
N17   N     N_R   0.165270 0.045500 0.500140 -0.040682
N18   N     N_R   0.109810 0.150880 0.644800 -0.040635
N19   N     N_R   0.002890 0.838790 0.460260 -0.048584
N20   N     N_2   0.524481 0.373992 0.006769 -0.097701
Ni1   Ni    Ni4+2 0.104370 0.104380 0.500010 0.281897
Ni2   Ni    Ni4+2 0.895630 0.895620 0.499990 0.211247
Ni3   Ni    Ni4+2 0.006290 0.904630 0.408560 0.220933
Ni4   Ni    Ni4+2 0.993710 0.095370 0.591440 0.280349
O1    O     O_2   0.264914 0.212780 0.518711 -0.606026
O2    O     O_2   0.073188 0.245038 0.749596 -0.593497
O3    O     O_2   0.082376 0.850863 0.701724 -0.562059
O4    O     O_2   0.181696 0.930293 0.293242 -0.602562
O5    O     O_2   0.554823 0.080376 0.718210 -0.568136
O6    O     O_2   0.354268 0.131319 0.691179 -0.601662
O7    O     O_2   0.294894 0.204705 0.328591 -0.575416
O8    O     O_2   0.007363 0.775331 0.907146 -0.569400

loop_
_geom_bond_atom_site_label_1
_geom_bond_atom_site_label_2
_ccdc_geom_bond_type
C66   C68   A    
C83   O4    D    
C63   C65   A    
C55   C85   S    
C52   N9    A    
C6    C45   A    
C27   C29   A    
C11   C13   A    
C81   O2    D    
C14   C18   A    
C85   H37   S    
C35   C36   A    
C43   H10   S    
N6    Ni3   S    
C43   C44   A    
C3    C6    A    
N11   Ni3   S    
C69   H19   S    
N7    Ni4   S    
C39   C41   A    
C62   H17   S    
C63   C79   S    
C53   C54   A    
C7    C11   S    
C48   H9    S    
C26   C27   A    
C85   O6    D    
C7    C56   A    
C87   H42   S    
C2    N17   A    
C22   C29   A    
C9    C88   A    
C30   C31   A    
C12   C64   A    
C57   C59   A    
N10   Ni4   S    
C82   O3    D    
C52   H24   S    
C10   C17   A    
C19   H47   S    
C23   C40   A    
C81   H29   S    
C18   H45   S    
C15   C17   A    
C18   C19   A    
C41   C42   A    
C73   C77   A    
C84   O5    D    
N4    Ni2   S    
C46   C47   A    
C46   H7    S    
C80   H28   S    
C76   N11   A    
C28   H18   S    
C68   C69   A    
N14   N17   A    
C3    C81   S    
C76   H26   S    
N15   N16   A    
C76   C79   A    
C50   H38   S    
N12   N19   A    
C4    C12   A    
C45   N13   A    
C64   N10   A    
C28   C34   A    
C75   H20   S    
C66   H21   S    
C13   C14   A    
N13   Ni1   S    
C67   N14   A    
C88   N16   A    
C69   C70   A    
C82   H31   S    
C12   C47   S    
C35   C41   A    
C29   H2    S    
N1    N11   A    
C78   N15   A    
C27   C34   S    
C23   C60   S    
C80   O1    D    
N16   Ni2   S    
C25   H3    S    
C16   H8    S    
C74   C75   A    
C86   O7    D    
C72   H39   S    
N19   Ni3   S    
C26   H48   S    
C24   C25   A    
C72   C74   A    
N14   Ni3   S    
N4    N10   A    
C5    C7    A    
C42   C48   A    
C59   N2    S    
C51   H16   S    
C5    N19   A    
C10   C82   S    
C3    N18   A    
C33   C37   A    
C60   C61   A    
C51   C53   A    
C56   N12   A    
C16   N6    A    
N13   N18   A    
N18   Ni4   S    
C37   C38   A    
C4    N4    A    
N9    Ni1   S    
C45   H27   S    
C47   C48   A    
C63   C70   A    
C38   H6    S    
C50   C51   A    
C37   H5    S    
C28   N7    A    
N12   Ni2   S    
C75   C77   A    
C53   N20   S    
C39   C46   A    
C67   H23   S    
C40   H43   S    
C65   C66   A    
C16   C23   A    
C40   N8    A    
C87   O8    D    
C1    C79   A    
C22   C24   A    
C71   H40   S    
C36   C44   A    
C73   N5    S    
C42   C43   A    
C56   H12   S    
N8    Ni2   S    
C70   C86   S    
C13   H32   S    
C1    N1    A    
C4    H46   S    
N2    N20   D    
N7    N9    A    
C32   C83   S    
C54   C55   A    
C59   C62   A    
C1    H1    S    
C64   H25   S    
C61   H15   S    
C8    C31   S    
C54   H14   S    
C31   C32   A    
C2    C8    A    
C58   H11   S    
C44   C84   S    
C86   H41   S    
N1    Ni1   S    
C84   H36   S    
C57   H13   S    
C34   C52   A    
C30   C36   A    
C5    H30   S    
C17   C25   A    
C32   C33   A    
C19   C20   A    
C71   C72   A    
C49   C55   A    
N15   Ni4   S    
N3    N5    D    
C57   C58   A    
C38   C39   A    
C20   C26   A    
C24   H33   S    
C33   C35   A    
N6    N8    A    
C9    C78   A    
C6    C49   S    
N17   Ni1   S    
C61   C62   A    
C78   H34   S    
C65   H22   S    
C2    C80   S    
C10   C11   A    
C15   C21   A    
C20   C21   A    
C77   C87   S    
C8    C67   A    
C49   C50   A    
C9    C74   S    
C71   C73   A    
C88   H44   S    
C14   C15   A    
C68   N3    S    
C83   H35   S    
C21   C22   A    
C58   C60   A    
C30   H4    S    
