data_mof_unit_67504.cif
_audit_creation_date              2012-12-10T16:47:24-0500
_audit_creation_method            fapswitch 2.2
_symmetry_space_group_name_H-M    P1
_symmetry_Int_Tables_number       1
_space_group_crystal_system       triclinic
_cell_length_a                    10.63631
_cell_length_b                    8.756512
_cell_length_c                    7.478321
_cell_angle_alpha                 102.845739
_cell_angle_beta                  94.820432
_cell_angle_gamma                 92.476486
_cell_volume                      675.299665675

loop_
_atom_site_label
_atom_site_type_symbol
_atom_type_description
_atom_site_fract_x
_atom_site_fract_y
_atom_site_fract_z
_atom_type_partial_charge
C1    C     C_R   0.494285 0.200585 0.454234 0.831130
C2    C     C_R   0.505715 0.799415 0.545766 0.831130
C3    C     C_R   0.259928 0.497749 0.501031 0.813667
C4    C     C_R   0.740071 0.502251 0.498969 0.813667
C5    C     C_3   0.047673 0.468974 0.659395 0.114699
C6    C     C_3   0.952327 0.531026 0.340605 0.114699
C7    C     C_3   0.952303 0.360424 0.514842 -0.070216
C8    C     C_3   0.047696 0.639576 0.485157 -0.070216
C9    C     C_3   0.876139 0.502744 0.497395 -0.119859
C10   C     C_3   0.123861 0.497256 0.502605 -0.119859
C11   C     C_3   0.971085 0.611637 0.641769 -0.065259
C12   C     C_3   0.028915 0.388362 0.358231 -0.065259
C13   C     C_2   0.478031 0.034335 0.431846 -0.257123
C14   C     C_2   0.521969 0.965665 0.568154 -0.257123
Cu1   Cu    Cu3+1 0.514140 0.517380 0.684380 0.985048
Cu2   Cu    Cu3+1 0.485860 0.482620 0.315620 0.985048
H1    H     H_    0.401022 0.378138 0.948388 0.228938
H2    H     H_    0.598978 0.621862 0.051612 0.228938
N1    N     N_2   0.464560 0.456420 0.038510 -0.206453
N2    N     N_2   0.535440 0.543580 0.961490 -0.206452
O1    O     O_R   0.509190 0.286130 0.619780 -0.587364
O2    O     O_R   0.490810 0.713870 0.380220 -0.587364
O3    O     O_R   0.485310 0.256770 0.308360 -0.572385
O4    O     O_R   0.514690 0.743230 0.691640 -0.572385
O5    O     O_R   0.328790 0.514640 0.655680 -0.582076
O6    O     O_R   0.671210 0.485360 0.344320 -0.582077
O7    O     O_R   0.304910 0.485280 0.344260 -0.584068
O8    O     O_R   0.695090 0.514720 0.655740 -0.584068
C15   C     C_1   0.898306 0.206685 0.529029 0.284460
N3    N     N_1   0.856210 0.085347 0.539663 -0.280612
C16   C     C_1   0.101694 0.793315 0.470971 0.284460
N4    N     N_1   0.143790 0.914653 0.460337 -0.280612
C17   C     C_3   0.103271 0.425254 0.833502 -0.787833
H3    H     H_    0.025303 0.384476 0.903441 0.237246
H4    H     H_    0.166268 0.327600 0.797106 0.238188
H5    H     H_    0.157749 0.527919 0.925641 0.246650
C18   C     C_3   0.896728 0.574746 0.166498 -0.787834
H6    H     H_    0.974697 0.615524 0.096559 0.237246
H7    H     H_    0.842251 0.472081 0.074359 0.246650
H8    H     H_    0.833732 0.672400 0.202894 0.238188
C19   C     C_1   0.937094 0.738967 0.790174 0.274631
N5    N     N_1   0.909955 0.840014 0.905925 -0.244805
C20   C     C_1   0.062906 0.261033 0.209826 0.274631
N6    N     N_1   0.090045 0.159986 0.094075 -0.244805
C21   C     C_1   0.403508 0.950673 0.263195 0.346909
N7    N     N_1   0.344313 0.884857 0.129033 -0.243514
C22   C     C_1   0.596492 0.049327 0.736805 0.346909
N8    N     N_1   0.655686 0.115143 0.870966 -0.243514

loop_
_geom_bond_atom_site_label_1
_geom_bond_atom_site_label_2
_ccdc_geom_bond_type
C2    O2    A    
C4    O6    A    
C20   N6    T    
C1    O1    A    
C18   H6    S    
C7    C15   S    
Cu2   O3    S    
C19   N5    T    
N1    N2    D    
C3    O5    A    
Cu2   O7    S    
C3    O7    A    
C17   H3    S    
C6    C18   S    
C5    C10   S    
C18   H7    S    
C3    C10   S    
C13   C14   D    
C13   C21   S    
C9    C11   S    
Cu1   O8    S    
C15   N3    T    
C10   C12   S    
C6    C9    S    
Cu2   N1    S    
C6    C12   S    
Cu1   O4    S    
C17   H4    S    
C11   C19   S    
C12   C20   S    
H2    N2    S    
C8    C11   S    
C5    C11   S    
C2    O4    A    
Cu1   N2    S    
C2    C14   S    
C7    C12   S    
Cu1   O5    S    
C1    C13   S    
Cu1   Cu2   S    
C22   N8    T    
C7    C9    S    
Cu1   O1    S    
C17   H5    S    
C8    C10   S    
C4    O8    A    
C5    C7    S    
C18   H8    S    
C6    C8    S    
C1    O3    A    
H1    N1    S    
C4    C9    S    
C21   N7    T    
C14   C22   S    
C8    C16   S    
C16   N4    T    
Cu2   O2    S    
Cu2   O6    S    
C5    C17   S    
