data_mof_unit_27369.cif
_audit_creation_date              2012-12-11T14:56:07-0500
_audit_creation_method            fapswitch 2.2
_symmetry_space_group_name_H-M    P1
_symmetry_Int_Tables_number       1
_space_group_crystal_system       triclinic
_cell_length_a                    28.183163
_cell_length_b                    17.291304
_cell_length_c                    18.139076
_cell_angle_alpha                 89.508462
_cell_angle_beta                  138.204489
_cell_angle_gamma                 90.35468
_cell_volume                      5891.14739091

loop_
_atom_site_label
_atom_site_type_symbol
_atom_type_description
_atom_site_fract_x
_atom_site_fract_y
_atom_site_fract_z
_atom_type_partial_charge
C1    C     C_R   0.687180 0.898773 0.803306 -0.120780
C2    C     C_3   0.270374 0.663756 0.037648 -0.307925
C3    C     C_3   0.712178 0.726975 0.952750 0.674715
C4    C     C_3   0.180353 0.710119 0.995892 0.585606
C5    C     C_3   0.788758 0.246440 0.034745 0.667964
C6    C     C_3   0.831962 0.721459 0.014935 0.665720
C7    C     C_3   0.212184 0.226980 0.952761 0.674712
C8    C     C_3   0.259003 0.691560 0.104850 -0.279635
C9    C     C_3   0.711121 0.265684 0.927838 -0.316523
C10   C     C_3   0.758270 0.696712 0.899585 -0.303895
C11   C     C_3   0.284656 0.252550 0.065482 -0.312621
C12   C     C_3   0.758990 0.191574 0.104846 -0.279444
C13   C     C_3   0.300353 0.295870 0.010759 -0.313853
C14   C     C_3   0.211112 0.765700 0.927842 -0.316472
C15   C     C_3   0.258262 0.196709 0.899577 -0.303885
C16   C     C_3   0.784646 0.752548 0.065475 -0.312601
C17   C     C_3   0.277607 0.773914 0.100510 -0.055860
C18   C     C_3   0.692019 0.183070 0.930795 -0.064066
C19   C     C_3   0.726809 0.770156 0.897616 -0.090089
C20   C     C_3   0.316593 0.178599 0.069183 -0.073561
C21   C     C_3   0.777609 0.273916 0.100501 -0.055797
C22   C     C_3   0.192026 0.683076 0.930795 -0.063992
C23   C     C_3   0.226810 0.270157 0.897618 -0.090055
C24   C     C_3   0.743299 0.652895 0.955924 -0.303248
C25   C     C_3   0.816590 0.678603 0.069184 -0.073585
C26   C     C_3   0.199237 0.793264 0.993873 -0.354839
C27   C     C_3   0.770363 0.163742 0.037656 -0.307838
C28   C     C_3   0.800348 0.795873 0.010762 -0.313802
C29   C     C_3   0.243297 0.152896 0.955927 -0.303266
C30   C     C_R   0.720126 0.758211 0.637802 0.071929
C31   C     C_R   0.344461 0.192727 0.556878 0.143264
C32   C     C_R   0.384567 0.844972 0.635860 0.115614
C33   C     C_R   0.333524 0.076586 0.183404 -0.076925
C34   C     C_R   0.715663 0.243072 0.618460 0.111049
C35   C     C_R   0.220126 0.258211 0.637803 0.071935
C36   C     C_R   0.844462 0.692726 0.556881 0.143367
C37   C     C_R   0.884567 0.344973 0.635860 0.115622
C38   C     C_R   0.215663 0.743072 0.618460 0.111054
C39   C     C_R   0.362303 0.288153 0.672608 -0.145727
C40   C     C_R   0.736446 0.637681 0.592939 -0.163539
C41   C     C_R   0.739156 0.372152 0.598671 -0.177654
C42   C     C_R   0.391719 0.743086 0.736158 -0.186389
C43   C     C_R   0.862304 0.788151 0.672610 -0.146203
C44   C     C_R   0.313624 0.899347 0.195883 -0.107452
C45   C     C_R   0.236447 0.137682 0.592939 -0.163501
C46   C     C_R   0.239157 0.872152 0.598672 -0.177638
C47   C     C_R   0.891719 0.243088 0.736159 -0.186388
C48   C     C_R   0.374130 0.262838 0.615330 -0.121493
C49   C     C_R   0.700685 0.680583 0.604419 -0.162001
C50   C     C_R   0.694759 0.320752 0.584209 -0.143316
C51   C     C_R   0.418689 0.779144 0.704804 -0.096903
C52   C     C_R   0.874132 0.762836 0.615334 -0.121500
C53   C     C_R   0.200686 0.180584 0.604420 -0.161996
C54   C     C_R   0.194759 0.820752 0.584210 -0.143317
C55   C     C_R   0.670081 0.078408 0.817189 -0.093038
C56   C     C_R   0.918690 0.279145 0.704806 -0.096907
C57   C     C_R   0.304999 0.146640 0.560089 -0.230928
C58   C     C_R   0.786535 0.783658 0.690376 -0.147177
C59   C     C_R   0.786312 0.222035 0.686571 -0.183871
C60   C     C_R   0.333627 0.883449 0.619227 -0.220487
C61   C     C_R   0.804999 0.646639 0.560090 -0.230950
C62   C     C_R   0.286535 0.283658 0.690377 -0.147149
C63   C     C_R   0.286311 0.722034 0.686572 -0.183876
C64   C     C_R   0.833627 0.383450 0.619227 -0.220484
C65   C     C_R   0.288183 0.174744 0.609856 0.176572
C66   C     C_R   0.187179 0.398774 0.803308 -0.120739
C67   C     C_R   0.815954 0.746875 0.664390 0.178984
C68   C     C_R   0.829155 0.271398 0.694865 0.167112
C69   C     C_R   0.302949 0.844936 0.643226 0.174803
C70   C     C_R   0.788183 0.674743 0.609856 0.176567
C71   C     C_R   0.315954 0.246876 0.664390 0.178805
C72   C     C_R   0.329155 0.771398 0.694865 0.167113
C73   C     C_R   0.802949 0.344936 0.643226 0.174804
C74   C     C_R   0.337184 0.095130 0.444167 -0.125686
C75   C     C_R   0.675130 0.896476 0.599190 -0.103559
C76   C     C_R   0.673922 0.103474 0.592545 -0.094856
C77   C     C_R   0.833522 0.576589 0.183403 -0.076920
C78   C     C_R   0.357060 0.923099 0.486451 -0.094123
C79   C     C_R   0.837184 0.595129 0.444168 -0.125701
C80   C     C_R   0.175130 0.396476 0.599191 -0.103562
C81   C     C_R   0.173922 0.603474 0.592545 -0.094848
C82   C     C_R   0.857060 0.423099 0.486451 -0.094106
C83   C     C_R   0.441882 0.832130 0.576868 -0.116959
C84   C     C_R   0.591526 0.196548 0.503981 -0.099559
C85   C     C_R   0.593393 0.802897 0.511330 -0.088821
C86   C     C_R   0.421331 0.186808 0.534529 -0.078777
C87   C     C_R   0.941882 0.332130 0.576868 -0.116956
C88   C     C_R   0.813626 0.399350 0.195877 -0.107459
C89   C     C_R   0.091526 0.696548 0.503981 -0.099677
C90   C     C_R   0.093393 0.302897 0.511331 -0.088822
C91   C     C_R   0.921332 0.686808 0.534531 -0.078693
C92   C     C_R   0.587521 0.172104 0.728329 -0.099383
C93   C     C_R   0.397858 0.808116 0.284525 -0.038553
C94   C     C_R   0.418113 0.167544 0.273408 -0.114865
C95   C     C_R   0.604751 0.806358 0.713821 -0.069017
C96   C     C_R   0.087525 0.672108 0.728330 -0.099250
C97   C     C_R   0.897861 0.308118 0.284519 -0.038597
C98   C     C_R   0.918112 0.667545 0.273408 -0.114926
C99   C     C_R   0.170087 0.578413 0.817190 -0.093140
C100  C     C_R   0.104751 0.306359 0.713823 -0.069029
C101  C     C_R   0.674772 0.823246 0.807640 0.143548
C102  C     C_R   0.360603 0.135259 0.171105 0.169373
C103  C     C_R   0.327916 0.825465 0.190758 0.124635
C104  C     C_R   0.646566 0.140140 0.830206 0.180376
C105  C     C_R   0.174771 0.323248 0.807643 0.143549
C106  C     C_R   0.860600 0.635261 0.171105 0.169376
C107  C     C_R   0.827920 0.325470 0.190747 0.124630
C108  C     C_R   0.146574 0.640147 0.830207 0.180479
C109  C     C_R   0.362168 0.163357 0.504683 0.069032
C110  C     C_3   0.699243 0.293275 0.993857 -0.354898
C111  C     C_R   0.664866 0.816949 0.583610 0.040721
C112  C     C_R   0.662106 0.182739 0.569913 0.054194
C113  C     C_R   0.394250 0.866363 0.569259 0.068055
C114  C     C_R   0.862169 0.663356 0.504685 0.068983
C115  C     C_R   0.164866 0.316950 0.583611 0.040711
C116  C     C_R   0.162106 0.682739 0.569913 0.054197
C117  C     C_R   0.894250 0.366363 0.569259 0.068051
C118  C     C_3   0.680344 0.210142 0.995880 0.585212
C119  C     C_3   0.288753 0.746464 0.034741 0.667956
C120  C     C_3   0.331959 0.221452 0.014923 0.665732
H1    H     H_    0.738506 0.926175 0.856039 0.099253
H2    H     H_    0.216402 0.081075 0.555151 0.119173
H3    H     H_    0.219420 0.929362 0.561937 0.121375
H4    H     H_    0.913997 0.188073 0.779456 0.142017
H5    H     H_    0.383609 0.343666 0.713737 0.125962
H6    H     H_    0.716401 0.581075 0.555150 0.119179
H7    H     H_    0.719420 0.429362 0.561936 0.121373
H8    H     H_    0.413996 0.688072 0.779454 0.142024
H9    H     H_    0.285637 0.069393 0.393920 0.100075
H10   H     H_    0.725586 0.926021 0.661599 0.087263
H11   H     H_    0.724988 0.074866 0.653946 0.088845
H12   H     H_    0.285198 0.044375 0.118371 0.109311
H13   H     H_    0.312495 0.955278 0.454866 0.088236
H14   H     H_    0.785637 0.569392 0.393921 0.100083
H15   H     H_    0.225586 0.426021 0.661599 0.087265
H16   H     H_    0.224988 0.574866 0.653946 0.088840
H17   H     H_    0.812495 0.455278 0.454866 0.088235
H18   H     H_    0.478866 0.786184 0.631635 0.147789
H19   H     H_    0.566752 0.251975 0.484461 0.087355
H20   H     H_    0.568735 0.747282 0.492403 0.089981
H21   H     H_    0.449773 0.240601 0.571559 0.077928
H22   H     H_    0.978866 0.286184 0.631635 0.147780
H23   H     H_    0.261918 0.926014 0.142004 0.102799
H24   H     H_    0.066752 0.751975 0.484461 0.087384
H25   H     H_    0.068735 0.247282 0.492404 0.089984
H26   H     H_    0.949774 0.740601 0.571561 0.077981
H27   H     H_    0.563126 0.226717 0.712985 0.097003
H28   H     H_    0.423357 0.752124 0.311071 0.121138
H29   H     H_    0.448140 0.218098 0.291658 0.152801
H30   H     H_    0.580746 0.749540 0.685783 0.130681
H31   H     H_    0.063128 0.726719 0.712987 0.097248
H32   H     H_    0.923359 0.252126 0.311066 0.121159
H33   H     H_    0.948140 0.718098 0.291657 0.152769
H34   H     H_    0.718372 0.045611 0.880949 0.103249
H35   H     H_    0.080746 0.249541 0.685787 0.130671
H36   H     H_    0.279203 0.663350 0.179315 0.173813
H37   H     H_    0.691921 0.295340 0.854793 0.174210
H38   H     H_    0.746873 0.675737 0.829933 0.181178
H39   H     H_    0.295054 0.275115 0.133673 0.185113
H40   H     H_    0.779182 0.163377 0.179312 0.173784
H41   H     H_    0.191904 0.795368 0.854796 0.174190
H42   H     H_    0.246858 0.175732 0.829919 0.181173
H43   H     H_    0.795037 0.775110 0.133660 0.185117
H44   H     H_    0.670311 0.346311 0.976962 0.163623
H45   H     H_    0.238506 0.426175 0.856041 0.099245
H46   H     H_    0.299648 0.610784 0.055404 0.173302
H47   H     H_    0.323957 0.354527 0.033222 0.176121
H48   H     H_    0.720116 0.594024 0.933846 0.177951
H49   H     H_    0.170299 0.846289 0.976990 0.163551
H50   H     H_    0.799630 0.110759 0.055423 0.173284
H51   H     H_    0.823949 0.854532 0.033226 0.176145
H52   H     H_    0.220110 0.094027 0.933849 0.177953
H53   H     H_    0.805889 0.840568 0.726829 0.115810
H54   H     H_    0.283709 0.091377 0.518422 0.108461
H55   H     H_    0.310369 0.937318 0.573321 0.112763
H56   H     H_    0.785194 0.544379 0.118370 0.109309
H57   H     H_    0.804805 0.163866 0.719148 0.116238
H58   H     H_    0.305889 0.340568 0.726829 0.115820
H59   H     H_    0.783709 0.591376 0.518422 0.108461
H60   H     H_    0.810368 0.437318 0.573320 0.112762
H61   H     H_    0.304805 0.663866 0.719148 0.116234
H62   H     H_    0.652719 0.656610 0.572762 0.120721
H63   H     H_    0.405842 0.299273 0.616282 0.104292
H64   H     H_    0.461558 0.750812 0.725997 0.175883
H65   H     H_    0.642063 0.340752 0.537162 0.120220
H66   H     H_    0.152720 0.156610 0.572764 0.120720
H67   H     H_    0.761919 0.426015 0.141997 0.102826
H68   H     H_    0.905846 0.799270 0.616289 0.104348
H69   H     H_    0.961559 0.250814 0.726000 0.175885
H70   H     H_    0.142064 0.840753 0.537163 0.120228
H71   H     H_    0.535597 0.263174 0.829189 0.315806
H72   H     H_    0.473596 0.750539 0.186159 0.384050
H73   H     H_    0.522541 0.246582 0.204543 0.386378
H74   H     H_    0.549152 0.641583 0.820049 0.362918
H75   H     H_    0.035488 0.763367 0.829557 0.316141
H76   H     H_    0.973606 0.250463 0.186186 0.384045
H77   H     H_    0.022543 0.746630 0.204618 0.386340
H78   H     H_    0.218378 0.545616 0.880948 0.103259
H79   H     H_    0.049167 0.141591 0.820090 0.362910
H80   H     H_    0.883610 0.843664 0.713740 0.125941
N1    N     N_R   0.625380 0.928280 0.709340 -0.044598
N2    N     N_R   0.613900 0.929750 0.547530 -0.038658
N3    N     N_R   0.613900 0.070250 0.547530 -0.039754
N4    N     N_R   0.386100 0.929750 0.452470 -0.045403
N5    N     N_R   0.886100 0.570250 0.452470 -0.038671
N6    N     N_R   0.113900 0.429750 0.547530 -0.038658
N7    N     N_R   0.113900 0.570250 0.547530 -0.039749
N8    N     N_R   0.886100 0.429750 0.452470 -0.045400
N9    N     N_R   0.437800 0.869550 0.507970 -0.056138
N10   N     N_R   0.562200 0.130450 0.492030 -0.043235
N11   N     N_R   0.562200 0.869550 0.492030 -0.040967
N12   N     N_R   0.374620 0.071720 0.290660 -0.051915
N13   N     N_R   0.437800 0.130450 0.507970 -0.044078
N14   N     N_R   0.937800 0.369550 0.507970 -0.056137
N15   N     N_R   0.062200 0.630450 0.492030 -0.043228
N16   N     N_R   0.062200 0.369550 0.492030 -0.040966
N17   N     N_R   0.937800 0.630450 0.507970 -0.044097
N18   N     N_R   0.573690 0.128980 0.653840 -0.057057
N19   N     N_R   0.426310 0.871020 0.346160 -0.053741
N20   N     N_R   0.426310 0.128980 0.346160 -0.061114
N21   N     N_R   0.573690 0.871020 0.653840 -0.054147
N22   N     N_R   0.073690 0.628980 0.653840 -0.057106
N23   N     N_R   0.374620 0.928280 0.290660 -0.048302
N24   N     N_R   0.926310 0.371020 0.346160 -0.053742
N25   N     N_R   0.926310 0.628980 0.346160 -0.061102
N26   N     N_R   0.073690 0.371020 0.653840 -0.054145
N27   N     N_R   0.625380 0.071720 0.709340 -0.054033
N28   N     N_R   0.125380 0.428280 0.709340 -0.044594
N29   N     N_R   0.874620 0.571720 0.290660 -0.051912
N30   N     N_R   0.874620 0.428280 0.290660 -0.048305
N31   N     N_R   0.125380 0.571720 0.709340 -0.054031
N32   N     N_R   0.386100 0.070250 0.452470 -0.038673
Ni1   Ni    Ni4+2 0.616560 1.000000 0.627280 0.229317
Ni2   Ni    Ni4+2 0.383440 1.000000 0.372720 0.244865
Ni3   Ni    Ni4+2 0.116560 0.500000 0.627280 0.229321
Ni4   Ni    Ni4+2 0.883440 0.500000 0.372720 0.244879
Ni5   Ni    Ni4+2 0.497990 0.870580 0.500000 0.222016
Ni6   Ni    Ni4+2 0.502010 0.129420 0.500000 0.222305
Ni7   Ni    Ni4+2 0.997990 0.370580 0.500000 0.222019
Ni8   Ni    Ni4+2 0.002010 0.629420 0.500000 0.222300
O1    O     O_2   0.607822 0.097235 0.980624 -0.214214
O2    O     O_2   0.651298 0.696027 0.012663 -0.301623
O3    O     O_2   0.605208 0.808025 0.890456 -0.269352
O4    O     O_3   0.572189 0.670244 0.805690 -0.605563
O5    O     O_2   0.107782 0.597157 0.980444 -0.214185
O6    O     O_2   0.110988 0.723450 0.044486 -0.256716
O7    O     O_3   0.030261 0.707653 0.835472 -0.510336
O8    O     O_2   0.843193 0.242303 0.961088 -0.284552
O9    O     O_2   0.869094 0.357298 0.064894 -0.270475
O10   O     O_3   0.935643 0.229132 0.174358 -0.562280
O11   O     O_2   0.929752 0.632469 0.062696 -0.242632
O12   O     O_2   0.610936 0.223627 0.044382 -0.256523
O13   O     O_2   0.904187 0.758714 0.975880 -0.275283
O14   O     O_3   0.978899 0.755932 0.183327 -0.564449
O15   O     O_2   0.151313 0.196046 0.012693 -0.301630
O16   O     O_2   0.105220 0.308040 0.890479 -0.269314
O17   O     O_3   0.072195 0.170257 0.805718 -0.605568
O18   O     O_3   0.530239 0.207591 0.835416 -0.510046
O19   O     O_2   0.343180 0.742375 0.961069 -0.284545
O20   O     O_2   0.369066 0.857356 0.064883 -0.270483
O21   O     O_3   0.435640 0.729196 0.174340 -0.562269
O22   O     O_2   0.429648 0.132466 0.062402 -0.242480
O23   O     O_2   0.404202 0.258843 0.975938 -0.275408
O24   O     O_3   0.478934 0.255748 0.183389 -0.564469
S1    S     S_3+6 0.606483 0.183190 0.966384 0.006812
S2    S     S_3+6 0.360133 0.770991 0.056706 -0.036575
S3    S     S_3+6 0.412745 0.215848 0.057635 -0.017142
S4    S     S_3+6 0.633524 0.727104 0.916624 -0.068974
S5    S     S_3+6 0.106495 0.683130 0.966384 0.006678
S6    S     S_3+6 0.860146 0.270935 0.056719 -0.036584
S7    S     S_3+6 0.912761 0.715860 0.057684 -0.017162
S8    S     S_3+6 0.133535 0.227118 0.916648 -0.068961

loop_
_geom_bond_atom_site_label_1
_geom_bond_atom_site_label_2
_ccdc_geom_bond_type
C61   C70   A    
C16   C28   S    
C55   H34   S    
C80   N6    A    
C24   C25   S    
C39   H5    S    
C50   H65   S    
C35   C53   A    
C34   C112  S    
C83   C113  A    
C15   H42   S    
C88   N30   A    
N1    N21   A    
N2    N11   A    
C4    C8    S    
O6    S5    D    
C36   C114  S    
C9    C18   S    
C93   C103  A    
C74   C109  A    
C82   N8    A    
C21   C110  S    
C76   N3    A    
C11   H39   S    
C94   H29   S    
O23   S3    D    
C99   C108  A    
O16   S8    D    
N5    N17   A    
C100  C105  A    
C95   N21   A    
C80   H15   S    
H74   O4    S    
C7    C29   S    
C17   C26   S    
N10   Ni6   S    
C77   C106  A    
C24   H48   S    
C78   N4    A    
C87   C117  A    
C90   H25   S    
O24   S3    S    
O7    S5    S    
C33   N12   A    
C84   N10   A    
C43   C52   A    
C13   H47   S    
C6    C25   S    
C20   C102  S    
C40   C49   A    
C23   C105  S    
O14   S7    S    
C4    S5    S    
C4    C22   S    
C15   C120  S    
C13   C23   S    
C93   H28   S    
H71   O18   S    
C55   N27   A    
C41   H7    S    
H72   O21   S    
C46   C69   A    
N4    Ni2   S    
C5    C27   S    
C37   C56   A    
N1    Ni1   S    
C44   C103  A    
C88   H67   S    
C6    C28   S    
C84   H19   S    
N28   Ni3   S    
C10   H38   S    
N4    N9    A    
C2    C22   S    
C44   N23   A    
C64   C73   A    
N11   Ni5   S    
N3    N10   A    
C35   C115  S    
C43   H80   S    
C3    S4    S    
O2    S4    D    
C32   C113  S    
C2    H46   S    
C36   C52   A    
C75   H10   S    
C42   H8    S    
C42   C51   A    
O15   S8    D    
C98   N25   A    
C89   N15   A    
C15   C23   S    
C96   C108  A    
C89   C116  A    
C1    N1    A    
C29   H52   S    
C120  S3    S    
C39   C71   A    
O13   S7    D    
C92   H27   S    
N12   Ni2   S    
N20   Ni6   S    
C3    C24   S    
C37   C117  S    
C85   N11   A    
N32   Ni2   S    
N24   Ni7   S    
C75   N2    A    
C25   C106  S    
C15   C29   S    
C20   C29   S    
C16   H43   S    
N27   Ni1   S    
N15   Ni8   S    
C11   C20   S    
C34   C50   A    
H73   O24   S    
C41   C73   A    
C12   C27   S    
N7    Ni3   S    
C33   C102  A    
C59   H57   S    
C86   C109  A    
O3    S4    D    
C26   H49   S    
C74   N32   A    
C51   H64   S    
C19   C101  S    
O11   S7    D    
O22   S3    D    
O17   S8    S    
C88   C107  A    
C110  H44   S    
C18   C104  S    
N12   N20   A    
C10   C24   S    
C68   C73   A    
C65   C71   A    
C96   H31   S    
H75   O7    S    
C55   C104  A    
C45   C53   A    
C14   C26   S    
C92   N18   A    
N21   Ni5   S    
N6    Ni3   S    
O4    S4    S    
C97   C107  A    
C91   N17   A    
C69   C72   A    
C7    C11   S    
C53   H66   S    
C77   N29   A    
C32   C51   A    
C5    C9    S    
C19   C28   S    
N23   Ni2   S    
N24   N30   A    
C59   C68   A    
H79   O17   S    
C118  S1    S    
C38   C116  S    
C64   H60   S    
C58   C67   A    
C28   H51   S    
C4    C26   S    
C38   C54   A    
C80   C115  A    
C9    H37   S    
C10   C19   S    
C76   C112  A    
C40   H6    S    
C3    C19   S    
C46   C54   A    
N7    N15   A    
C31   C109  S    
C5    C21   S    
C63   H61   S    
C95   H30   S    
C84   C112  A    
C90   N16   A    
C12   H40   S    
C100  N26   A    
C110  C118  S    
N17   Ni8   S    
C83   N9    A    
N13   N32   A    
C40   C70   A    
C12   C118  S    
C100  H35   S    
C13   C120  S    
C21   C107  S    
C30   C49   A    
N22   N31   A    
N13   Ni6   S    
C77   H56   S    
C96   N22   A    
C31   C48   A    
C45   C65   A    
C34   C59   A    
O1    S1    D    
C46   H3    S    
C74   H9    S    
C58   H53   S    
C94   N20   A    
O10   S6    S    
C66   C105  A    
O20   S2    D    
C36   C61   A    
C1    C101  A    
C41   C50   A    
C20   C120  S    
C37   C64   A    
C47   C68   A    
C33   H12   S    
C81   H16   S    
C38   C63   A    
N6    N16   A    
C16   C25   S    
N25   Ni8   S    
C79   H14   S    
N8    Ni4   S    
C56   H69   S    
C7    S8    S    
N8    N14   A    
N26   Ni7   S    
C54   H70   S    
C66   H45   S    
C6    S7    S    
N16   Ni7   S    
C75   C111  A    
O9    S6    D    
N5    Ni4   S    
C2    C8    S    
C18   C27   S    
N9    Ni5   S    
C85   C111  A    
H77   O14   S    
C48   H63   S    
C99   N31   A    
C2    C119  S    
C97   N24   A    
C61   H59   S    
C18   C118  S    
C9    C110  S    
C45   H2    S    
C82   H17   S    
C89   H24   S    
C119  S2    S    
C27   H50   S    
C8    C17   S    
C98   C106  A    
C91   C114  A    
C81   N7    A    
C30   C111  S    
C93   N19   A    
C67   C70   A    
N30   Ni4   S    
C31   C57   A    
C14   H41   S    
C90   C115  A    
C62   H58   S    
C17   C103  S    
C86   N13   A    
C81   C116  A    
O21   S2    S    
O19   S2    D    
C79   N5    A    
N2    Ni1   S    
C11   C13   S    
C14   C22   S    
C47   H4    S    
C49   H62   S    
C7    C23   S    
C60   C69   A    
N29   Ni4   S    
C44   H23   S    
C22   C108  S    
N19   Ni5   S    
C30   C58   A    
C99   H78   S    
N22   Ni8   S    
C85   H20   S    
C76   H11   S    
C87   N14   A    
C62   C71   A    
N14   Ni7   S    
C35   C62   A    
C5    S6    S    
C91   H26   S    
C87   H22   S    
C8    H36   S    
C78   H13   S    
C1    H1    S    
C98   H33   S    
C3    C16   S    
C6    C10   S    
C17   C119  S    
N19   N23   A    
C57   H54   S    
C12   C21   S    
N3    Ni1   S    
O12   S1    D    
O8    S6    D    
C63   C72   A    
C94   C102  A    
C43   C67   A    
C14   C119  S    
C92   C104  A    
C79   C114  A    
C66   N28   A    
C32   C60   A    
C60   H55   S    
N18   Ni6   S    
C47   C56   A    
C97   H32   S    
N31   Ni3   S    
N18   N27   A    
C52   H68   S    
C82   C117  A    
H76   O10   S    
C42   C72   A    
O5    S5    D    
O18   S1    S    
N25   N29   A    
C78   C113  A    
C83   H18   S    
N26   N28   A    
C95   C101  A    
C86   H21   S    
C39   C48   A    
C57   C65   A    
