data_mof_unit_19211.cif
_audit_creation_date              2012-12-10T17:33:51-0500
_audit_creation_method            fapswitch 2.2
_symmetry_space_group_name_H-M    P1
_symmetry_Int_Tables_number       1
_space_group_crystal_system       triclinic
_cell_length_a                    10.666066
_cell_length_b                    11.972165
_cell_length_c                    12.912537
_cell_angle_alpha                 92.750246
_cell_angle_beta                  90.228541
_cell_angle_gamma                 86.303759
_cell_volume                      1643.55222355

loop_
_atom_site_label
_atom_site_type_symbol
_atom_type_description
_atom_site_fract_x
_atom_site_fract_y
_atom_site_fract_z
_atom_type_partial_charge
C1    C     C_R   0.495693 0.521152 0.700439 0.907308
C2    C     C_R   0.465255 0.454391 0.977420 0.030672
C3    C     C_R   0.520226 0.548540 0.025694 0.087647
C4    C     C_R   0.742131 0.499747 0.496355 0.895267
C5    C     C_R   0.534835 0.552225 0.132366 -0.259820
C6    C     C_R   0.434644 0.376665 0.143298 -0.229104
C7    C     C_R   0.418165 0.371752 0.037413 -0.178174
C8    C     C_R   0.366995 0.957464 0.418046 -0.333372
C9    C     C_R   0.381723 0.840555 0.423827 0.025114
C10   C     C_R   0.559882 0.856529 0.532758 -0.023492
C11   C     C_R   0.549109 0.974487 0.528945 0.093813
C12   C     C_3   0.121813 0.497946 0.492818 0.026500
C13   C     C_R   0.450889 0.025486 0.471114 0.092311
C14   C     C_R   0.439719 0.143464 0.467736 -0.045287
C15   C     C_R   0.619608 0.159293 0.574637 0.000795
C16   C     C_R   0.500658 0.478516 0.300038 0.857439
C17   C     C_R   0.633772 0.042461 0.581114 -0.343364
C18   C     C_R   0.258078 0.499053 0.494220 0.914069
C19   C     C_3   0.934725 0.391826 0.432947 -0.379783
C20   C     C_3   0.078941 0.386357 0.438592 0.045847
C21   C     C_3   0.922449 0.609145 0.446889 0.352289
C22   C     C_3   0.927443 0.495713 0.608222 0.354909
C23   C     C_3   0.065190 0.599819 0.432618 -0.530805
C24   C     C_3   0.878214 0.499136 0.494022 -0.112082
C25   C     C_3   0.613625 0.739832 0.014588 -0.921927
C26   C     C_3   0.503974 0.260015 0.817514 -0.269049
C27   C     C_3   0.137110 0.355411 0.330622 -0.983207
C28   C     C_3   0.846021 0.579544 0.274079 -0.245318
C29   C     C_3   0.835190 0.408939 0.744861 -0.311609
C30   C     C_3   0.143936 0.436589 0.685950 -0.692334
C31   C     C_3   0.071437 0.510628 0.607721 -0.168463
C32   C     C_R   0.493455 0.466525 0.189929 -0.041547
C33   C     C_R   0.496434 0.532204 0.811846 -0.230128
C34   C     C_R   0.558094 0.636611 0.966454 0.197994
C35   C     C_R   0.543414 0.627919 0.859616 -0.299591
C36   C     C_R   0.459286 0.443566 0.870003 0.433086
H1    H     H_    0.900709 0.386873 0.352001 0.164976
H2    H     H_    0.902499 0.314746 0.466607 0.213589
H3    H     H_    0.685953 0.211437 0.613782 0.151694
H4    H     H_    0.290636 0.994227 0.372766 0.146264
H5    H     H_    0.710589 0.005713 0.625894 0.145311
H6    H     H_    0.316519 0.788273 0.383362 0.132350
H7    H     H_    0.634051 0.815911 0.577671 0.117075
H8    H     H_    0.109057 0.315758 0.487910 0.188935
H9    H     H_    0.092864 0.592434 0.349925 0.203540
H10   H     H_    0.881904 0.569757 0.653260 0.010338
H11   H     H_    0.635368 0.800244 0.955539 0.237626
H12   H     H_    0.085176 0.598413 0.636243 0.125012
H13   H     H_    0.545998 0.783423 0.070481 0.247824
H14   H     H_    0.702540 0.715741 0.055102 0.231811
H15   H     H_    0.519971 0.223924 0.894305 0.140045
H16   H     H_    0.471315 0.192413 0.764294 0.196565
H17   H     H_    0.595010 0.285141 0.787400 0.149211
H18   H     H_    0.113656 0.420075 0.274116 0.246416
H19   H     H_    0.240673 0.342576 0.334918 0.254404
H20   H     H_    0.101397 0.275298 0.299648 0.245643
H21   H     H_    0.771688 0.520868 0.285854 0.143285
H22   H     H_    0.936543 0.534797 0.252132 0.144468
H23   H     H_    0.904973 0.675867 0.509324 0.092429
H24   H     H_    0.816231 0.629051 0.206889 0.170481
H25   H     H_    0.741423 0.451297 0.732202 0.159336
H26   H     H_    0.888206 0.458605 0.803056 0.155581
H27   H     H_    0.821652 0.326261 0.776829 0.174561
H28   H     H_    0.242335 0.460121 0.693659 0.236819
H29   H     H_    0.102003 0.450464 0.764297 0.229028
H30   H     H_    0.143591 0.346266 0.662521 0.262746
H31   H     H_    0.101831 0.679901 0.463449 0.172286
H32   H     H_    0.577825 0.621761 0.171977 0.175418
H33   H     H_    0.398413 0.312267 0.188875 0.154738
H34   H     H_    0.368202 0.303239 0.003224 0.179591
H35   H     H_    0.573278 0.694229 0.812885 0.181263
H36   H     H_    0.365196 0.184031 0.423233 0.121135
N1    N     N_R   0.523380 0.207800 0.519350 -0.097801
N2    N     N_R   0.476620 0.792180 0.480650 -0.098851
O1    O     O_R   0.506240 0.421700 0.658830 -0.582726
O2    O     O_3   0.855236 0.654281 0.360974 -0.572609
O3    O     O_3   0.901150 0.391815 0.650376 -0.584318
O4    O     O_R   0.491240 0.609310 0.646410 -0.633089
O5    O     O_R   0.692710 0.406190 0.506230 -0.610959
O6    O     O_R   0.677700 0.593810 0.493810 -0.608247
O7    O     O_R   0.508760 0.390690 0.353590 -0.634537
O8    O     O_R   0.493760 0.578300 0.341170 -0.615296
O9    O     O_R   0.322300 0.406190 0.506190 -0.629985
O10   O     O_R   0.307290 0.593810 0.493770 -0.640895
O11   O     O_3   0.410471 0.349641 0.821682 -0.607484
Zn1   Zn    Zn3+2 0.510020 0.374730 0.508290 0.947933
Zn2   Zn    Zn3+2 0.489980 0.625270 0.491710 0.950464

loop_
_geom_bond_atom_site_label_1
_geom_bond_atom_site_label_2
_ccdc_geom_bond_type
O4    Zn2   S    
C6    H33   S    
C6    C32   A    
C29   H27   S    
C8    C13   A    
C23   H9    S    
C30   H28   S    
C10   N2    A    
C19   C20   S    
O10   Zn2   S    
C7    H34   S    
C27   H18   S    
C1    C33   S    
C28   H21   S    
C12   C23   S    
C9    H6    S    
C4    O6    A    
O6    Zn2   S    
C30   C31   S    
C4    C24   S    
C27   H19   S    
O8    Zn2   S    
C33   C36   A    
C34   C35   A    
C23   H31   S    
C25   H14   S    
C19   H1    S    
C2    C7    A    
C8    C9    A    
C18   O10   A    
N2    Zn2   S    
C25   H11   S    
O7    Zn1   S    
C25   C34   S    
C5    C32   A    
C35   H35   S    
C13   C14   A    
C1    O4    A    
C5    H32   S    
C20   H8    S    
C25   H13   S    
C28   H24   S    
C29   H25   S    
C22   C31   S    
C1    O1    A    
C14   N1    A    
C4    O5    A    
C27   H20   S    
C3    C34   A    
C19   H2    S    
C26   H16   S    
O1    Zn1   S    
C21   O2    S    
C12   C20   S    
C16   O8    A    
C18   O9    A    
C15   H3    S    
C30   H30   S    
C22   H10   S    
C31   H12   S    
C21   C23   S    
C12   C31   S    
C22   C24   S    
C9    N2    A    
C28   O2    S    
C26   H17   S    
C2    C36   A    
C15   C17   A    
C29   H26   S    
C11   C17   A    
C15   N1    A    
C10   H7    S    
C14   H36   S    
C22   O3    S    
C3    C5    A    
C21   H23   S    
C6    C7    A    
C20   C27   S    
C28   H22   S    
C36   O11   S    
C16   C32   S    
C19   C24   S    
C26   H15   S    
C11   C13   A    
C26   O11   S    
C16   O7    A    
C33   C35   A    
C2    C3    A    
C17   H5    S    
N1    Zn1   S    
C30   H29   S    
C10   C11   A    
O9    Zn1   S    
C29   O3    S    
C21   C24   S    
C12   C18   S    
C8    H4    S    
O5    Zn1   S    
