data_mof_unit_31720.cif
_audit_creation_date              2012-12-11T17:39:35-0500
_audit_creation_method            fapswitch 2.2
_symmetry_space_group_name_H-M    P1
_symmetry_Int_Tables_number       1
_space_group_crystal_system       triclinic
_cell_length_a                    14.921358
_cell_length_b                    15.020679
_cell_length_c                    14.863905
_cell_angle_alpha                 109.079084
_cell_angle_beta                  108.938443
_cell_angle_gamma                 110.389179
_cell_volume                      2564.38051562

loop_
_atom_site_label
_atom_site_type_symbol
_atom_type_description
_atom_site_fract_x
_atom_site_fract_y
_atom_site_fract_z
_atom_type_partial_charge
C1    C     C_R   0.905948 0.978621 0.718453 -0.127750
C2    C     C_R   0.904601 0.704565 0.508764 -0.137276
C3    C     C_R   0.741498 0.777182 0.185781 -0.130310
C4    C     C_R   0.092708 0.315438 0.552417 -0.122700
C5    C     C_R   0.256083 0.941240 0.530438 -0.126041
C6    C     C_R   0.707353 0.673909 0.176010 0.127987
C7    C     C_R   0.285908 0.960931 0.455587 0.055728
C8    C     C_R   0.992193 0.702737 0.573811 0.105546
C9    C     C_R   0.998012 0.055064 0.190109 0.056541
C10   C     C_R   0.495272 0.586011 0.392206 -0.118315
C11   C     C_R   0.462746 0.654109 0.363761 -0.134825
C12   C     C_R   0.000346 0.327406 0.527525 0.093020
C13   C     C_R   0.467348 0.741258 0.442754 0.110777
C14   C     C_R   0.503102 0.758144 0.549898 -0.182690
C15   C     C_R   0.539039 0.692056 0.578643 -0.136117
C16   C     C_R   0.302713 0.206176 0.797353 -0.139819
C17   C     C_R   0.534186 0.605485 0.499765 -0.113803
C18   C     C_R   0.364928 0.840055 0.429460 -0.240248
C19   C     C_R   0.346959 0.919676 0.410159 0.067934
C20   C     C_R   0.395580 0.962857 0.355106 0.027159
C21   C     C_R   0.467795 0.934864 0.332870 -0.231173
C22   C     C_R   0.508482 0.882214 0.381567 0.050389
C23   C     C_R   0.367323 0.297805 0.798107 0.143011
C24   C     C_R   0.446351 0.821141 0.416332 0.029881
C25   C     C_R   0.315307 0.029169 0.235571 -0.179155
C26   C     C_R   0.308720 0.114317 0.220996 -0.160883
C27   C     C_R   0.380715 0.222845 0.306143 -0.117760
C28   C     C_R   0.694085 0.988512 0.398605 -0.138486
C29   C     C_R   0.459949 0.246335 0.405865 -0.128376
C30   C     C_R   0.466204 0.161346 0.421250 -0.159366
C31   C     C_R   0.392191 0.052285 0.336795 0.107705
C32   C     C_R   0.751735 0.214704 0.192828 -0.116705
C33   C     C_R   0.834080 0.299289 0.298708 -0.128350
C34   C     C_R   0.626516 0.919827 0.421469 0.072848
C35   C     C_R   0.807813 0.330534 0.382209 0.139048
C36   C     C_R   0.697643 0.277501 0.357489 -0.186520
C37   C     C_R   0.615581 0.192645 0.251455 -0.121245
C38   C     C_R   0.642646 0.161388 0.169261 -0.114664
C39   C     C_R   0.887874 0.514663 0.525413 -0.236414
C40   C     C_R   0.303978 0.298375 0.707023 -0.112052
C41   C     C_R   0.982338 0.616385 0.601319 -0.012360
C42   C     C_R   0.077212 0.624870 0.672504 -0.147636
C43   C     C_R   0.089124 0.532597 0.639576 0.507747
C44   C     C_R   0.995539 0.428601 0.554417 -0.128631
C45   C     C_R   0.739423 0.685616 0.278935 -0.144244
C46   C     C_R   0.895389 0.422003 0.494211 -0.017997
C47   C     C_R   0.273500 0.779761 0.821295 -0.132297
C48   C     C_R   0.344575 0.881340 0.917231 -0.152030
C49   C     C_R   0.302863 0.934377 0.972430 -0.090357
C50   C     C_R   0.189674 0.885424 0.932384 -0.128828
C51   C     C_R   0.118274 0.783683 0.837103 -0.139676
C52   C     C_R   0.693154 0.897974 0.489759 -0.156839
C53   C     C_R   0.158732 0.729447 0.779122 0.164441
C54   C     C_2   0.543270 0.462122 0.878196 -0.123238
C55   C     C_2   0.484782 0.368688 0.873766 -0.195595
C56   C     C_R   0.251467 0.031027 0.436594 -0.135091
C57   C     C_2   0.636818 0.556746 0.982722 -0.116163
C58   C     C_2   0.639093 0.569225 0.076762 -0.198736
C59   C     C_R   0.372977 0.375320 0.095206 -0.129064
C60   C     C_R   0.287091 0.288133 0.085039 -0.193982
C61   C     C_R   0.179847 0.270392 0.039946 0.126786
C62   C     C_R   0.160034 0.341038 0.004315 -0.130936
C63   C     C_R   0.246144 0.428453 0.015081 -0.097163
C64   C     C_R   0.908674 0.222499 0.466310 -0.126791
C65   C     C_R   0.352605 0.445765 0.060756 -0.092143
C66   C     C_R   0.086582 0.165174 0.115690 -0.253528
C67   C     C_R   0.086803 0.791323 0.598337 -0.149682
C68   C     C_R   0.992127 0.081979 0.101626 0.064104
C69   C     C_R   0.892321 0.024900 0.000629 0.013643
C70   C     C_R   0.892017 0.046953 0.917430 -0.231129
C71   C     C_R   0.991142 0.104000 0.922325 0.052556
C72   C     C_R   0.086569 0.176898 0.025528 0.017628
C73   C     C_R   0.788439 0.823433 0.919082 -0.125025
C74   C     C_R   0.690396 0.725633 0.870727 -0.172858
C75   C     C_R   0.597902 0.727459 0.872135 -0.114158
C76   C     C_R   0.089109 0.068292 0.811842 -0.118584
C77   C     C_R   0.601133 0.826934 0.915336 -0.114816
C78   C     C_R   0.909029 0.000885 0.199953 -0.132013
C79   C     C_R   0.697462 0.924924 0.958642 -0.195750
C80   C     C_R   0.792956 0.923790 0.964607 0.119547
C81   C     C_R   0.996513 0.058559 0.821167 0.054448
C82   C     C_3   0.223350 0.560192 0.595115 0.225857
C83   C     C_3   0.337852 0.577036 0.627627 -0.957140
C84   C     C_R   0.090830 0.091006 0.286740 -0.148079
H1    H     H_    0.820306 0.949129 0.693431 0.100647
H2    H     H_    0.492384 0.519466 0.331519 0.112793
H3    H     H_    0.436325 0.640584 0.281097 0.118462
H4    H     H_    0.178434 0.376320 0.601450 0.163838
H5    H     H_    0.508763 0.825823 0.612268 0.119060
H6    H     H_    0.321038 0.797234 0.461206 0.123728
H7    H     H_    0.505397 0.971673 0.293651 0.126327
H8    H     H_    0.258262 0.945374 0.169920 0.129560
H9    H     H_    0.515854 0.330260 0.471475 0.104204
H10   H     H_    0.526923 0.180020 0.499292 0.118307
H11   H     H_    0.579121 0.096429 0.087141 0.096453
H12   H     H_    0.252675 0.060144 0.380430 0.137961
H13   H     H_    0.331542 0.173229 0.847696 0.093772
H14   H     H_    0.918267 0.340442 0.315820 0.106395
H15   H     H_    0.675968 0.301221 0.420647 0.124743
H16   H     H_    0.531059 0.151316 0.232941 0.135449
H17   H     H_    0.812830 0.508146 0.473699 0.131815
H18   H     H_    0.309645 0.744679 0.779604 0.152896
H19   H     H_    0.432185 0.919871 0.947752 0.098808
H20   H     H_    0.358237 0.013643 0.045749 0.106659
H21   H     H_    0.156757 0.926378 0.974492 0.108256
H22   H     H_    0.669493 0.011527 0.337208 0.097361
H23   H     H_    0.170841 0.820386 0.654953 0.104039
H24   H     H_    0.030684 0.747772 0.807604 0.113541
H25   H     H_    0.512286 0.476954 0.811122 0.114223
H26   H     H_    0.519642 0.351124 0.937623 0.132371
H27   H     H_    0.694076 0.624381 0.982328 0.137689
H28   H     H_    0.583541 0.503743 0.081420 0.126159
H29   H     H_    0.455207 0.387809 0.129242 0.100889
H30   H     H_    0.303617 0.232282 0.107868 0.108588
H31   H     H_    0.077860 0.328593 0.968514 0.110702
H32   H     H_    0.230278 0.482703 0.987866 0.119043
H33   H     H_    0.333508 0.349004 0.673861 0.079311
H34   H     H_    0.826494 0.983360 0.156039 0.113084
H35   H     H_    0.815164 0.000493 0.841233 0.126923
H36   H     H_    0.859821 0.821080 0.917911 0.109716
H37   H     H_    0.686344 0.648343 0.832657 0.111830
H38   H     H_    0.523263 0.651736 0.838359 0.125870
H39   H     H_    0.528513 0.827715 0.913670 0.111062
H40   H     H_    0.698314 0.001419 0.988807 0.108574
H41   H     H_    0.669034 0.838808 0.515237 0.129188
H42   H     H_    0.823611 0.197821 0.440049 0.122312
H43   H     H_    0.173931 0.120321 0.875556 0.115464
H44   H     H_    0.723936 0.621685 0.300305 0.098449
H45   H     H_    0.174312 0.150997 0.315671 0.111070
H46   H     H_    0.570239 0.707701 0.662038 0.146230
H47   H     H_    0.246228 0.095332 0.144235 0.117198
H48   H     H_    0.374914 0.288929 0.295669 0.108371
H49   H     H_    0.772543 0.190999 0.129005 0.107227
H50   H     H_    0.222855 0.631589 0.587746 0.088782
H51   H     H_    0.165709 0.486015 0.512485 0.098390
H52   H     H_    0.349559 0.521294 0.657857 0.252531
H53   H     H_    0.348980 0.559161 0.554846 0.240837
H54   H     H_    0.400066 0.663063 0.692297 0.246626
H55   H     H_    0.419024 0.513543 0.069016 0.112338
H56   H     H_    0.819780 0.658744 0.487682 0.087541
H57   H     H_    0.160461 0.218683 0.194972 0.128715
H58   H     H_    0.726413 0.796741 0.120550 0.121053
H59   H     H_    0.268850 0.890266 0.564250 0.090780
H60   H     H_    0.560989 0.553797 0.522107 0.100905
N1    N     N_R   0.941940 0.944580 0.650780 -0.042066
N2    N     N_R   0.204460 0.150250 0.707090 -0.042090
N3    N     N_R   0.794270 0.003240 0.446420 -0.039955
N4    N     N_R   0.204920 0.207570 0.650770 -0.045725
N5    N     N_R   0.793810 0.945920 0.502740 -0.041361
N6    N     N_R   0.943620 0.152590 0.446420 -0.044878
N7    N     N_R   0.055110 0.000900 0.707100 -0.041250
N8    N     N_R   0.795080 0.792430 0.349230 -0.039621
N9    N     N_R   0.206190 0.054080 0.497260 -0.044237
N10   N     N_R   0.056380 0.847410 0.553580 -0.040822
N11   N     N_R   0.944890 0.999100 0.292900 -0.040373
N12   N     N_R   0.058060 0.055420 0.349220 -0.040676
N13   N     N_R   0.943200 0.791100 0.497260 -0.039380
N14   N     N_R   0.795540 0.849750 0.292910 -0.044077
N15   N     N_R   0.205730 0.996760 0.553580 -0.040177
N16   N     N_R   0.056800 0.208900 0.502740 -0.052030
Ni1   Ni    Ni4+2 0.869690 0.869690 0.500000 0.213254
Ni2   Ni    Ni4+2 0.130310 0.130310 0.500000 0.209080
Ni3   Ni    Ni4+2 0.129250 0.998840 0.629170 0.215100
Ni4   Ni    Ni4+2 0.870750 0.001160 0.370830 0.213609
O1    O     O_3   0.193748 0.548297 0.674097 -0.648179

loop_
_geom_bond_atom_site_label_1
_geom_bond_atom_site_label_2
_ccdc_geom_bond_type
C25   C31   A    
C66   C68   A    
C63   C65   A    
N9    N15   A    
C6    C45   A    
C27   C29   A    
C75   H38   S    
C11   C13   A    
C41   C42   A    
C6    C58   S    
C1    N1    A    
C35   C36   A    
C3    C6    A    
C54   C57   S    
C49   H20   S    
N2    Ni3   S    
C39   C41   A    
C66   H57   S    
C4    N16   A    
C26   C27   A    
C37   C38   A    
N6    N16   A    
C67   N10   A    
C58   H28   S    
C22   C24   A    
C36   C37   A    
C78   H34   S    
C18   C19   A    
N3    Ni4   S    
C42   C53   S    
C32   H49   S    
C12   C64   A    
C16   H13   S    
C5    H59   S    
C45   H44   S    
C1    C81   A    
C23   C40   A    
C84   H45   S    
C16   N2    A    
C33   H14   S    
C73   C74   A    
C82   H51   S    
C60   H30   S    
C66   C72   A    
C19   C20   A    
C28   H22   S    
C52   N5    A    
C5    N15   A    
C38   H11   S    
C3    N14   A    
C64   H42   S    
C70   C71   A    
C32   C38   A    
C4    C12   A    
C29   C30   A    
N8    Ni1   S    
N14   Ni4   S    
C47   C53   A    
C77   C79   A    
C40   H33   S    
N12   Ni2   S    
C59   C60   A    
C47   H18   S    
C13   C14   A    
C27   H48   S    
C61   C62   A    
C3    H58   S    
C7    C56   A    
C44   C46   A    
C39   H17   S    
N2    N4    A    
C43   O1    S    
C1    H1    S    
C22   C34   S    
N8    N14   A    
C74   C75   A    
C40   N4    A    
C18   H6    S    
N10   Ni3   S    
C8    C41   S    
N10   N13   A    
C11   H3    S    
C5    C7    A    
C68   C69   A    
C76   N7    A    
C25   C26   A    
C48   H19   S    
C82   C83   S    
C13   C24   S    
C64   N6    A    
C60   C61   A    
C51   C53   A    
N16   Ni2   S    
C82   H50   S    
C43   C44   A    
C14   H5    S    
C62   C63   A    
C77   H39   S    
C50   H21   S    
C47   C48   A    
C70   H35   S    
C59   H29   S    
C50   C51   A    
C75   C77   A    
C83   H52   S    
N1    N7    A    
C39   C46   A    
C63   H32   S    
C61   C72   S    
C48   C49   A    
C51   H24   S    
C16   C23   A    
N7    Ni3   S    
C17   H60   S    
C55   H26   S    
C18   C24   A    
N5    Ni1   S    
C42   C43   A    
N13   Ni1   S    
C83   H53   S    
C21   H7    S    
C15   C17   A    
C54   C55   D    
C10   H2    S    
C25   H8    S    
N3    N5    A    
C34   C52   A    
C2    C8    A    
C56   N9    A    
C76   C81   A    
C52   H41   S    
C23   C55   S    
C4    H4    S    
N11   Ni4   S    
N6    Ni4   S    
C79   H40   S    
C7    C19   S    
N9    Ni2   S    
C45   N8    A    
N4    Ni2   S    
C32   C33   A    
C9    C68   S    
C2    H56   S    
C71   C72   A    
C30   H10   S    
C59   C65   A    
C29   H9    S    
C84   N12   A    
C30   C31   A    
C67   H23   S    
C57   C58   D    
C57   H27   S    
C15   H46   S    
N1    Ni1   S    
C2    N13   A    
C33   C35   A    
C73   C80   A    
C36   H15   S    
N15   Ni3   S    
C9    C78   A    
C83   H54   S    
C56   H12   S    
C69   C70   A    
C78   N11   A    
C10   C11   A    
C9    C84   A    
C28   C34   A    
C79   C80   A    
C65   H55   S    
C62   H31   S    
C74   H37   S    
C20   C21   A    
C54   H25   S    
C8    C67   A    
C12   C44   S    
C49   C50   A    
N11   N12   A    
C73   H36   S    
C76   H43   S    
C14   C15   A    
C69   C80   S    
C10   C17   A    
C71   C81   S    
C21   C22   A    
C35   C46   S    
C20   C31   S    
C37   H16   S    
C26   H47   S    
C28   N3    A    
C82   O1    S    
