data_mof_unit_40295.cif
_audit_creation_date              2012-12-11T15:57:40-0500
_audit_creation_method            fapswitch 2.2
_symmetry_space_group_name_H-M    P1
_symmetry_Int_Tables_number       1
_space_group_crystal_system       triclinic
_cell_length_a                    10.724857
_cell_length_b                    10.729802
_cell_length_c                    16.949226
_cell_angle_alpha                 100.226719
_cell_angle_beta                  100.261168
_cell_angle_gamma                 61.514257
_cell_volume                      1677.20157222

loop_
_atom_site_label
_atom_site_type_symbol
_atom_type_description
_atom_site_fract_x
_atom_site_fract_y
_atom_site_fract_z
_atom_type_partial_charge
C1    C     C_R   0.355372 0.768698 0.398120 0.529390
C2    C     C_2   0.313528 0.309811 0.810577 -0.091085
C3    C     C_2   0.361384 0.193223 0.756430 -0.161218
C4    C     C_R   0.407079 0.374272 0.356470 0.568282
C5    C     C_2   0.383041 0.198109 0.675495 -0.159455
C6    C     C_1   0.848139 0.328850 0.704842 -0.031780
C7    C     C_1   0.895377 0.292400 0.771227 -0.038610
C8    C     C_1   0.323062 0.843909 0.704621 -0.040148
C9    C     C_1   0.284020 0.890162 0.770401 -0.043678
C10   C     C_R   0.891884 0.309418 0.085760 0.553180
C11   C     C_R   0.322229 0.302589 0.118719 0.561590
C12   C     C_2   0.820954 0.337363 0.156537 -0.103380
C13   C     C_R   0.249398 0.973597 0.092239 0.602766
C14   C     C_R   0.944565 0.272526 0.853910 0.535803
C15   C     C_R   0.303995 0.288388 0.890398 0.549022
C16   C     C_R   0.775028 0.376930 0.404021 0.546928
C17   C     C_R   0.244726 0.942383 0.849977 0.530216
C18   C     C_R   0.355236 0.777310 0.625654 0.549167
C19   C     C_R   0.365135 0.345020 0.578853 0.563950
C20   C     C_R   0.778301 0.378958 0.628823 0.554996
C21   C     C_1   0.377326 0.360135 0.271926 0.020033
C22   C     C_1   0.351233 0.342365 0.200810 0.029542
C23   C     C_2   0.829329 0.228540 0.189122 -0.158833
C24   C     C_2   0.839015 0.331022 0.329092 -0.112940
C25   C     C_2   0.803777 0.244826 0.272521 -0.165046
C26   C     C_2   0.328254 0.820569 0.319645 0.195364
C27   C     C_2   0.260069 0.989629 0.179956 -0.052555
C28   C     C_2   0.386311 0.928656 0.224425 -0.116954
C29   C     C_2   0.395048 0.892140 0.305219 -0.167672
C30   C     C_2   0.305730 0.315766 0.638881 -0.109874
Cr1   Cr    Cr6+3 0.608020 0.610770 0.522990 1.031123
Cr2   Cr    Cr6+3 0.289390 0.599570 0.488050 1.066412
Cr3   Cr    Cr6+3 0.602610 0.289690 0.489020 1.021577
Cr4   Cr    Cr6+3 0.053780 0.052210 0.965970 1.056955
Cr5   Cr    Cr6+3 0.060060 0.372530 0.992430 1.069609
Cr6   Cr    Cr6+3 0.372600 0.061970 0.991430 1.034588
H1    H     H_    0.860804 0.123985 0.155475 0.202680
H2    H     H_    0.162287 0.041040 0.208292 0.141386
H3    H     H_    0.398904 0.087401 0.773904 0.154466
H4    H     H_    0.017460 0.935190 0.275533 0.336352
H5    H     H_    0.475281 0.108727 0.650266 0.163332
H6    H     H_    0.275722 0.417078 0.795442 0.112594
H7    H     H_    0.208583 0.401177 0.661685 0.112838
H8    H     H_    0.750654 0.188028 0.286351 0.163508
H9    H     H_    0.781583 0.443763 0.188833 0.129371
H10   H     H_    0.895463 0.384609 0.315375 0.116609
H11   H     H_    0.485951 0.885711 0.198170 0.163231
H12   H     H_    0.470177 0.910337 0.351851 0.124143
O1    O     O_R   0.749250 0.499990 0.439200 -0.505274
O2    O     O_R   0.411120 0.181190 0.091480 -0.529612
O3    O     O_R   0.364220 0.944920 0.062310 -0.492813
O4    O     O_R   0.477870 0.725740 0.440280 -0.519491
O5    O     O_R   0.158740 0.906940 0.874970 -0.487768
O6    O     O_R   0.930920 0.176940 0.885610 -0.494092
O7    O     O_R   0.910730 0.394510 0.895320 -0.484672
O8    O     O_R   0.185840 0.361180 0.920280 -0.501941
O9    O     O_R   0.399210 0.173040 0.915160 -0.509576
O10   O     O_R   0.353170 0.937370 0.898860 -0.481467
O11   O     O_3   0.162150 0.162240 0.983280 -0.346233
O12   O     O_R   0.299400 0.468710 0.556310 -0.494430
O13   O     O_R   0.260770 0.742210 0.412610 -0.475538
O14   O     O_R   0.297990 0.466320 0.394220 -0.462258
O15   O     O_R   0.487720 0.253870 0.385870 -0.532456
O16   O     O_R   0.721940 0.304340 0.422320 -0.517871
O17   O     O_R   0.750770 0.502570 0.614050 -0.499686
O18   O     O_R   0.479280 0.728140 0.602370 -0.490930
O19   O     O_R   0.262290 0.744790 0.587460 -0.508543
O20   O     O_2   0.291713 0.702365 0.166908 -0.241597
O21   O     O_2   0.194401 0.652259 0.269026 -0.269128
O22   O     O_3   0.057612 0.900576 0.223044 -0.539716
O23   O     O_R   0.489240 0.256450 0.560730 -0.506816
O24   O     O_R   0.723350 0.306730 0.584410 -0.491384
O25   O     O_3   0.500010 0.500010 0.500020 -0.276382
O26   O     O_R   0.170650 0.915100 0.051290 -0.420588
O27   O     O_R   0.941960 0.184500 0.049060 -0.517843
O28   O     O_R   0.922640 0.402670 0.071640 -0.489450
O29   O     O_R   0.196880 0.368740 0.083740 -0.464155
S1    S     S_3+6 0.219550 0.763900 0.242869 0.013935

loop_
_geom_bond_atom_site_label_1
_geom_bond_atom_site_label_2
_ccdc_geom_bond_type
Cr1   O18   S    
C28   H11   S    
O22   S1    S    
C19   O23   A    
Cr1   O4    S    
Cr6   O11   S    
C12   C23   D    
C26   S1    S    
H4    O22   S    
C28   C29   S    
Cr2   O13   S    
Cr6   O10   S    
Cr1   O25   S    
C27   H2    S    
C4    O14   A    
Cr5   O11   S    
C11   O29   A    
Cr3   O24   S    
C13   O3    A    
C10   O28   A    
C7    C14   S    
C8    C9    T    
C26   C29   D    
C17   O10   A    
C14   O7    A    
C3    H3    S    
C16   C24   S    
C21   C22   T    
C15   O9    A    
O21   S1    D    
Cr1   O1    S    
C25   H8    S    
O20   S1    D    
Cr5   O28   S    
C29   H12   S    
Cr5   O7    S    
C20   O17   A    
C24   C25   D    
Cr6   O9    S    
Cr2   O25   S    
C18   O19   A    
C23   H1    S    
Cr5   O29   S    
C8    C18   S    
C10   O27   A    
C4    O15   A    
Cr3   O15   S    
C16   O1    A    
C2    C15   S    
Cr6   O3    S    
C10   C12   S    
Cr4   O26   S    
Cr2   O19   S    
C9    C17   S    
C14   O6    A    
Cr4   O6    S    
C1    C26   S    
C30   H7    S    
Cr2   O12   S    
C17   O5    A    
Cr6   O2    S    
C5    C30   D    
Cr3   O25   S    
Cr1   O17   S    
C5    H5    S    
Cr5   O8    S    
C13   C27   S    
C12   H9    S    
C3    C5    S    
C1    O13   A    
C6    C7    T    
C19   O12   A    
C18   O18   A    
C6    C20   S    
Cr4   O27   S    
C11   C22   S    
C24   H10   S    
C15   O8    A    
C2    C3    D    
Cr2   O14   S    
C11   O2    A    
C4    C21   S    
Cr4   O11   S    
C2    H6    S    
Cr3   O16   S    
C23   C25   S    
C1    O4    A    
Cr3   O23   S    
C13   O26   A    
Cr4   O5    S    
C27   C28   D    
C20   O24   A    
C16   O16   A    
C19   C30   S    
