data_mof_unit_53216.cif
_audit_creation_date              2012-10-26T18:34:22-0400
_audit_creation_method            fapswitch 2.2
_symmetry_space_group_name_H-M    P1
_symmetry_Int_Tables_number       1
_space_group_crystal_system       triclinic
_cell_length_a                    10.889703
_cell_length_b                    9.576174
_cell_length_c                    9.061418
_cell_angle_alpha                 90.08752
_cell_angle_beta                  93.864951
_cell_angle_gamma                 90.966813
_cell_volume                      942.653328486

loop_
_atom_site_label
_atom_site_type_symbol
_atom_type_description
_atom_site_fract_x
_atom_site_fract_y
_atom_site_fract_z
_atom_type_partial_charge
C1    C     C_R   0.263631 0.499221 0.514474 0.563563
C2    C     C_R   0.070077 0.625271 0.558836 0.218697
C3    C     C_R   0.873194 0.506636 0.498244 -0.064414
C4    C     C_R   0.130672 0.499023 0.533149 -0.056743
C5    C     C_R   0.432717 0.074033 0.391098 0.352376
C6    C     C_R   0.564860 0.926465 0.610401 0.356025
C7    C     C_R   0.568817 0.076999 0.606814 0.333985
C8    C     C_R   0.434123 0.923505 0.390016 0.354397
C9    C     C_3   0.253908 0.143007 0.256392 0.019497
C10   C     C_3   0.207541 0.173833 0.097346 -0.371020
C11   C     C_3   0.603442 0.872138 0.858761 -0.021077
C12   C     C_R   0.738026 0.501852 0.495975 0.569060
C13   C     C_3   0.700393 0.806033 0.964759 -0.345122
C14   C     C_3   0.761167 0.136331 0.715578 0.032005
C15   C     C_3   0.827307 0.248988 0.811036 -0.351355
C16   C     C_3   0.387300 0.856946 0.145460 -0.024945
C17   C     C_3   0.288515 0.781612 0.046612 -0.352107
C18   C     C_R   0.499673 0.499820 0.220755 0.540057
C19   C     C_R   0.500399 0.499980 0.779260 0.538724
C20   C     C_1   0.499922 0.499379 0.065585 -0.061889
C21   C     C_1   0.499984 0.499584 0.934399 -0.061419
C22   C     C_R   0.060579 0.375251 0.511175 0.173792
C23   C     C_R   0.941699 0.628819 0.543520 0.212342
C24   C     C_R   0.936268 0.383556 0.469390 0.185703
Cl1   Cl    Cl    0.116875 0.210277 0.568434 -0.553207
Cl2   Cl    Cl    0.873084 0.791627 0.575278 -0.475015
Cl3   Cl    Cl    0.868764 0.246614 0.358423 -0.573793
Cl4   Cl    Cl    0.151366 0.777875 0.625881 -0.492402
Cu1   Cu    Cu3+1 0.500000 0.640660 0.500000 1.109388
Cu2   Cu    Cu3+1 0.500000 0.359340 0.500000 1.109998
H1    H     H_    0.220093 0.228740 0.321732 0.223312
H2    H     H_    0.705197 0.692325 0.942653 0.167942
H3    H     H_    0.792342 0.142468 0.602373 0.238003
H4    H     H_    0.789530 0.034743 0.763077 0.199579
H5    H     H_    0.802465 0.238111 0.927417 0.173146
H6    H     H_    0.928442 0.238421 0.807583 0.160089
H7    H     H_    0.800865 0.354299 0.770776 0.160151
H8    H     H_    0.476976 0.808645 0.132087 0.139682
H9    H     H_    0.396580 0.964541 0.104529 0.158027
H10   H     H_    0.197963 0.830770 0.057747 0.181326
H11   H     H_    0.310722 0.787458 0.929139 0.142723
H12   H     H_    0.212256 0.042907 0.292182 0.212645
H13   H     H_    0.281470 0.670230 0.079208 0.163698
H14   H     H_    0.231995 0.089832 0.021080 0.163681
H15   H     H_    0.105703 0.182366 0.090615 0.150224
H16   H     H_    0.247948 0.274254 0.060731 0.167821
H17   H     H_    0.512987 0.821506 0.872475 0.137291
H18   H     H_    0.596292 0.982926 0.891435 0.160181
H19   H     H_    0.792166 0.854227 0.949985 0.185228
H20   H     H_    0.678486 0.822435 0.081161 0.112382
N1    N     N_R   0.500000 0.852070 0.500000 -0.237990
N2    N     N_R   0.500000 0.147930 0.500000 -0.234310
O1    O     O_R   0.319640 0.618740 0.499990 -0.422048
O2    O     O_3   0.638551 0.853012 0.712642 -0.495088
O3    O     O_3   0.632800 0.154710 0.717158 -0.556644
O4    O     O_3   0.354102 0.847742 0.293585 -0.513194
O5    O     O_R   0.680360 0.381260 0.500010 -0.459842
O6    O     O_R   0.680360 0.618740 0.500010 -0.430468
O7    O     O_R   0.319640 0.381260 0.499990 -0.480912
O8    O     O_R   0.500000 0.618760 0.288390 -0.504993
O9    O     O_R   0.500000 0.381240 0.711610 -0.445717
O10   O     O_R   0.500000 0.618760 0.711610 -0.487070
O11   O     O_R   0.500000 0.381240 0.288390 -0.434645
O12   O     O_3   0.384007 0.146752 0.268800 -0.559307

loop_
_geom_bond_atom_site_label_1
_geom_bond_atom_site_label_2
_ccdc_geom_bond_type
C14   H4    S    
C5    C8    A    
C2    C4    A    
C24   Cl3   S    
C5    N2    A    
C10   H16   S    
C6    C7    A    
C6    N1    A    
C9    O12   S    
C4    C22   A    
C9    C10   S    
C13   H2    S    
C11   H17   S    
Cu1   O8    S    
C7    O3    S    
C1    C4    S    
C12   O6    A    
Cu2   O7    S    
C8    O4    S    
C10   H15   S    
C16   O4    S    
C14   O3    S    
C11   H18   S    
Cu2   O11   S    
Cu1   O6    S    
C11   C13   S    
C8    N1    A    
C3    C24   A    
Cu1   Cu2   S    
C11   O2    S    
Cu1   O1    S    
C14   H3    S    
C9    H12   S    
C12   O5    A    
C22   C24   A    
C18   O8    A    
C19   C21   S    
C6    O2    S    
C7    N2    A    
C18   C20   S    
C1    O7    A    
C19   O9    A    
C13   H19   S    
C18   O11   A    
Cu2   O9    S    
C17   H11   S    
C2    Cl4   S    
C9    H1    S    
C16   H9    S    
C10   H14   S    
C13   H20   S    
Cu2   O5    S    
C15   H6    S    
C2    C23   A    
C20   C21   T    
Cu1   N1    S    
C23   Cl2   S    
C15   H5    S    
C17   H13   S    
Cu2   N2    S    
C14   C15   S    
C15   H7    S    
C1    O1    A    
C3    C12   S    
C19   O10   A    
Cu1   O10   S    
C3    C23   A    
C17   H10   S    
C5    O12   S    
C16   H8    S    
C16   C17   S    
C22   Cl1   S    
