data_mof_unit_53734.cif
_audit_creation_date              2012-12-10T19:08:32-0500
_audit_creation_method            fapswitch 2.2
_symmetry_space_group_name_H-M    P1
_symmetry_Int_Tables_number       1
_space_group_crystal_system       triclinic
_cell_length_a                    15.9739
_cell_length_b                    10.805721
_cell_length_c                    9.54878
_cell_angle_alpha                 89.697789
_cell_angle_beta                  89.336666
_cell_angle_gamma                 90.12264
_cell_volume                      1648.07282672

loop_
_atom_site_label
_atom_site_type_symbol
_atom_type_description
_atom_site_fract_x
_atom_site_fract_y
_atom_site_fract_z
_atom_type_partial_charge
C1    C     C_R   0.504626 0.262686 0.500178 0.831025
C2    C     C_R   0.041106 0.549581 0.621024 -0.022166
C3    C     C_1   0.823037 0.502946 0.495631 -0.027410
C4    C     C_1   0.177433 0.507862 0.503204 0.014507
C5    C     C_1   0.252424 0.503309 0.502801 -0.100713
C6    C     C_1   0.747911 0.501039 0.497179 -0.085157
C7    C     C_R   0.486875 0.063545 0.619498 0.072240
C8    C     C_R   0.515392 0.129636 0.502136 -0.152531
C9    C     C_R   0.553322 0.063428 0.389910 -0.034680
C10   C     C_R   0.547210 0.933908 0.389860 -0.216815
C11   C     C_R   0.508094 0.870731 0.501373 -0.076200
C12   C     C_R   0.341383 0.499904 0.500783 0.834553
C13   C     C_R   0.484725 0.936565 0.620252 0.152129
C14   C     C_3   0.405736 0.931609 0.705749 -0.509890
C15   C     C_3   0.408101 0.072743 0.705867 -0.208827
C16   C     C_R   0.563683 0.555885 0.071809 0.275764
C17   C     C_R   0.442382 0.433973 0.075930 -0.066897
C18   C     C_R   0.442532 0.433685 0.927085 -0.071923
C19   C     C_R   0.562632 0.557318 0.924322 0.219319
C20   C     C_3   0.585444 0.691016 0.915920 -0.339729
C21   C     C_3   0.589264 0.689490 0.076338 -0.365485
C22   C     C_R   0.500617 0.737645 0.499932 0.804139
C23   C     C_R   0.658716 0.499975 0.499253 0.860387
C24   C     C_R   0.953517 0.544066 0.616811 -0.200957
C25   C     C_R   0.912595 0.506634 0.496059 0.095624
C26   C     C_R   0.958170 0.474669 0.376236 -0.185917
C27   C     C_R   0.045843 0.478526 0.376230 -0.003425
C28   C     C_R   0.087601 0.514133 0.500023 0.014534
Cu1   Cu    Cu3+1 0.500000 0.499980 0.640670 0.985586
Cu2   Cu    Cu3+1 0.500000 0.500020 0.359330 0.992746
H1    H     H_    0.419854 0.112040 0.811369 0.156174
H2    H     H_    0.394740 0.382422 0.132816 0.151655
H3    H     H_    0.395081 0.381823 0.872576 0.163754
H4    H     H_    0.533003 0.749001 0.877379 0.164265
H5    H     H_    0.540049 0.747884 0.125407 0.157786
H6    H     H_    0.916431 0.569803 0.707724 0.188792
H7    H     H_    0.925329 0.447575 0.282419 0.166007
H8    H     H_    0.573381 0.882428 0.303471 0.192379
H9    H     H_    0.352766 0.889861 0.647698 0.219618
H10   H     H_    0.416071 0.890788 0.811173 0.195682
N1    N     N_R   0.500520 0.500930 0.147930 -0.197911
N2    N     N_R   0.500520 0.500890 0.852020 -0.202857
O1    O     O_R   0.500000 0.319640 0.618810 -0.583514
O2    O     O_R   0.500010 0.319680 0.381230 -0.561297
O3    O     O_R   0.380300 0.499950 0.618760 -0.558819
O4    O     O_R   0.380310 0.499990 0.381180 -0.594657
O5    O     O_R   0.499990 0.680320 0.618770 -0.584097
O6    O     O_R   0.500000 0.680360 0.381190 -0.604657
O7    O     O_R   0.619690 0.500010 0.618820 -0.577305
O8    O     O_R   0.619700 0.500050 0.381240 -0.527962
C29   C     C_2   0.080570 0.593814 0.752865 0.851940
O9    O     O_2   0.154713 0.621875 0.755610 -0.607730
O10   O     O_R   0.031626 0.606487 0.874444 -0.756306
H11   H     H_    0.064192 0.641481 0.955681 0.342372
C30   C     C_2   0.666236 0.712766 0.835822 0.953243
O11   O     O_2   0.671807 0.800912 0.755474 -0.590865
O12   O     O_R   0.733840 0.632018 0.851579 -0.735190
H12   H     H_    0.783920 0.657199 0.791818 0.326513
C31   C     C_2   0.675220 0.709903 0.136851 0.931569
O13   O     O_2   0.701799 0.815425 0.148765 -0.574772
O14   O     O_R   0.725269 0.609404 0.174775 -0.716399
H13   H     H_    0.781804 0.636040 0.211386 0.331113
C32   C     C_R   0.092414 0.443803 0.246248 0.114347
C33   C     C_R   0.153733 0.523193 0.188139 -0.154535
C34   C     C_R   0.198959 0.488454 0.068465 -0.125110
C35   C     C_R   0.182305 0.375520 0.003944 -0.090773
C36   C     C_R   0.120518 0.296974 0.059200 -0.107558
C37   C     C_R   0.075718 0.330734 0.179790 -0.133449
H14   H     H_    0.166527 0.612027 0.235388 0.138095
H15   H     H_    0.246496 0.549565 0.025103 0.159194
H16   H     H_    0.217047 0.349170 0.910860 0.174822
H17   H     H_    0.107584 0.209565 0.008935 0.149529
H18   H     H_    0.028789 0.268071 0.222281 0.140560
C38   C     C_2   0.599709 0.123980 0.272570 0.896012
O15   O     O_2   0.643081 0.215234 0.293747 -0.575910
O16   O     O_R   0.596496 0.073225 0.138290 -0.744548
H19   H     H_    0.631280 0.121648 0.067328 0.350023
C39   C     C_2   0.335896 0.132032 0.630468 0.872411
O17   O     O_2   0.295550 0.213403 0.688373 -0.633492
O18   O     O_R   0.315570 0.094892 0.494886 -0.761834
H20   H     H_    0.266579 0.142813 0.455575 0.329863

loop_
_geom_bond_atom_site_label_1
_geom_bond_atom_site_label_2
_ccdc_geom_bond_type
C22   O6    A    
C30   O11   D    
C16   C21   S    
Cu1   N2    S    
C1    C8    S    
C19   C20   S    
C3    C6    T    
C7    C8    A    
Cu1   O7    S    
O10   H11   S    
C26   C27   A    
C24   H6    S    
C38   O16   S    
Cu1   O5    S    
Cu2   O6    S    
C21   C31   S    
C18   N2    A    
C39   O18   S    
C23   O7    A    
C15   C39   S    
C34   H15   S    
C36   H17   S    
C14   H9    S    
C1    O1    A    
C8    C9    A    
Cu2   N1    S    
C9    C10   A    
C19   N2    A    
C20   H4    S    
C7    C15   S    
C22   O5    A    
Cu2   O8    S    
C31   O13   D    
C13   C14   S    
Cu1   O1    S    
Cu2   O2    S    
C20   C30   S    
C4    C28   S    
C31   O14   S    
C38   O15   D    
C29   O9    D    
C3    C25   S    
O16   H19   S    
C5    C12   S    
C12   O4    A    
C2    C29   S    
C12   O3    A    
C39   O17   D    
O18   H20   S    
C23   O8    A    
C37   H18   S    
C36   C37   A    
Cu1   O3    S    
C29   O10   S    
Cu1   Cu2   S    
C1    O2    A    
C35   H16   S    
C17   C18   A    
C33   H14   S    
C24   C25   A    
C27   C32   S    
C30   O12   S    
C2    C24   A    
C9    C38   S    
C32   C37   A    
Cu2   O4    S    
C4    C5    T    
C26   H7    S    
C15   H1    S    
C21   H5    S    
C11   C22   S    
C10   H8    S    
C33   C34   A    
C25   C26   A    
C11   C13   A    
O12   H12   S    
C16   C19   A    
C6    C23   S    
C35   C36   A    
O14   H13   S    
C18   H3    S    
C17   N1    A    
C10   C11   A    
C14   H10   S    
C32   C33   A    
C7    C13   A    
C20   C21   S    
C34   C35   A    
C27   C28   A    
C17   H2    S    
C14   C15   S    
C2    C28   A    
C16   N1    A    
