data_mof_unit_54819.cif
_audit_creation_date              2013-03-05T16:48:40-0500
_audit_creation_method            fapswitch 2.2
_symmetry_space_group_name_H-M    P1
_symmetry_Int_Tables_number       1
_space_group_crystal_system       triclinic
_cell_length_a                    27.725748
_cell_length_b                    9.029878
_cell_length_c                    8.094962
_cell_angle_alpha                 90.031584
_cell_angle_beta                  89.89923
_cell_angle_gamma                 90.6273
_cell_volume                      2026.53078704

loop_
_atom_site_label
_atom_site_type_symbol
_atom_site_description
_atom_site_fract_x
_atom_site_fract_y
_atom_site_fract_z
_atom_type_partial_charge
O1    O     O_R   0.500000 0.285350 0.636850 -0.614969
O2    O     O_R   0.500000 0.714650 0.363150 -0.614953
O3    O     O_R   0.500000 0.714650 0.636850 -0.614907
O4    O     O_R   0.500000 0.285350 0.363150 -0.614933
C1    C     C_R   0.499963 0.217778 0.499971 0.938142
C2    C     C_R   0.500037 0.782222 0.500028 0.938161
O5    O     O_R   0.428760 0.500000 0.636860 -0.624999
O6    O     O_R   0.571240 0.500000 0.363140 -0.624218
O7    O     O_R   0.571240 0.500000 0.636860 -0.624726
O8    O     O_R   0.428760 0.500000 0.363140 -0.624084
C3    C     C_R   0.405716 0.498832 0.500212 0.926620
C4    C     C_R   0.594280 0.501109 0.499889 0.926612
Zn1   Zn    Zn3+2 0.500000 0.500000 0.682780 1.000524
Zn2   Zn    Zn3+2 0.500000 0.500000 0.317220 1.000765
C5    C     C_R   0.175861 0.352282 0.479038 0.689194
C6    C     C_R   0.824519 0.640087 0.477922 0.686578
C7    C     C_R   0.178032 0.611981 0.534655 0.633565
C8    C     C_R   0.821407 0.378660 0.521094 0.641891
O9    O     O_2   0.200340 0.225279 0.458178 -0.419783
O10   O     O_2   0.800494 0.768583 0.463429 -0.421615
O11   O     O_2   0.204326 0.738430 0.543767 -0.473021
O12   O     O_2   0.794581 0.253035 0.524812 -0.473021
N1    N     N_R   0.200808 0.481151 0.506460 -0.341091
N2    N     N_R   0.799140 0.511237 0.499870 -0.338576
C9    C     C_R   0.277539 0.510250 0.652293 0.446256
C10   C     C_R   0.722625 0.483955 0.648045 0.443785
C11   C     C_R   0.277184 0.455586 0.356671 0.448685
C12   C     C_R   0.722701 0.541397 0.353129 0.449904
C13   C     C_R   0.327951 0.516072 0.649379 -0.324282
C14   C     C_R   0.672182 0.480433 0.646849 -0.324076
C15   C     C_R   0.327661 0.462747 0.355518 -0.330247
C16   C     C_R   0.672216 0.536422 0.353609 -0.330212
C17   C     C_R   0.252389 0.480265 0.505413 0.206220
C18   C     C_R   0.747606 0.514177 0.500653 0.207367
C19   C     C_R   0.101148 0.485881 0.509446 -0.194348
C20   C     C_R   0.898770 0.503199 0.501992 -0.189193
C21   C     C_R   0.125165 0.352640 0.472185 -0.099352
C22   C     C_R   0.875196 0.638382 0.470949 -0.135870
C23   C     C_R   0.127638 0.615382 0.548898 -0.152090
C24   C     C_R   0.871810 0.372939 0.534209 -0.152484
C25   C     C_R   0.098121 0.226084 0.424508 0.359012
C26   C     C_R   0.902553 0.765438 0.427263 0.463547
C27   C     C_R   0.102940 0.744016 0.600109 0.342478
C28   C     C_R   0.896007 0.241411 0.577899 0.327987
C29   C     C_R   0.353035 0.493263 0.501356 -0.114044
C30   C     C_R   0.646962 0.505575 0.499917 -0.113767
H1    H     H_    0.347013 0.444199 0.241090 0.170789
H2    H     H_    0.652763 0.556800 0.240039 0.170960
H3    H     H_    0.347478 0.539364 0.762443 0.171103
H4    H     H_    0.652740 0.456786 0.760202 0.170957
C31   C     C_R   0.973103 0.361195 0.511555 0.023525
C32   C     C_R   0.026578 0.625996 0.522519 -0.024184
C33   C     C_R   0.976600 0.630006 0.485698 -0.036272
C34   C     C_R   0.023575 0.358622 0.483180 0.042172
C35   C     C_R   0.949424 0.498173 0.500654 -0.067597
C36   C     C_R   0.050489 0.489874 0.506899 -0.075236
C37   C     C_R   0.946583 0.234382 0.561645 0.466204
C38   C     C_R   0.052438 0.750558 0.582385 0.389529
C39   C     C_R   0.953327 0.758445 0.427033 0.376327
C40   C     C_R   0.047159 0.233769 0.419473 0.372476
C41   C     C_1   0.499987 0.064972 0.499960 -0.174040
C42   C     C_1   0.500013 0.935028 0.500040 -0.174036
N3    N     N_1   0.500000 0.500000 0.073640 -0.034756
N4    N     N_1   0.500000 0.500000 0.926360 -0.034757
O13   O     O_3   0.251181 0.426767 0.214738 -0.713258
H5    H     H_    0.273950 0.403934 0.123920 0.344492
O14   O     O_3   0.748605 0.570437 0.210749 -0.712089
H6    H     H_    0.725788 0.593561 0.120454 0.344018
O15   O     O_3   0.251861 0.534192 0.795987 -0.728131
H7    H     H_    0.274672 0.562532 0.885024 0.342644
O16   O     O_3   0.748488 0.457489 0.790438 -0.727712
H8    H     H_    0.725711 0.430747 0.880426 0.343707
O17   O     O_3   0.121810 0.098339 0.379238 -0.653698
H9    H     H_    0.099432 0.012657 0.389920 0.355715
O18   O     O_3   0.878983 0.891253 0.374593 -0.634489
H10   H     H_    0.902403 0.972752 0.354487 0.395728
O19   O     O_3   0.126699 0.861808 0.673591 -0.706979
H11   H     H_    0.150499 0.820765 0.751999 0.386022
O20   O     O_3   0.871649 0.121143 0.643851 -0.695187
H12   H     H_    0.848352 0.159237 0.726180 0.385807
O21   O     O_3   0.971540 0.111650 0.613884 -0.679904
H13   H     H_    0.948915 0.031734 0.647562 0.405592
O22   O     O_3   0.026872 0.870568 0.639354 -0.697185
H14   H     H_    0.049133 0.951100 0.673981 0.402136
O23   O     O_3   0.978775 0.870503 0.349830 -0.689839
H15   H     H_    0.009380 0.830217 0.306227 0.343221
O24   O     O_3   0.020080 0.131974 0.331960 -0.682264
H16   H     H_    0.040162 0.091150 0.241731 0.346059

loop_
_geom_bond_atom_site_label_1
_geom_bond_atom_site_label_2
_geom_bond_distance
_ccdc_geom_bond_type
O24   H16   0.991047 S    
O17   H9    0.990157 S    
O3    C2    1.264806 A    
O21   H13   0.989081 S    
C33   C39   1.415992 A    
C13   H3    1.083544 S    
O19   H11   0.991323 S    
C11   C17   1.404332 A    
O5    C3    1.278365 A    
C26   O18   1.384668 S    
C7    N1    1.364553 A    
O1    C1    1.264624 A    
C19   C21   1.413651 A    
C22   C26   1.413192 A    
C7    C23   1.402437 A    
C8    C24   1.403197 A    
C5    C21   1.406804 A    
O7    Zn1   2.009211 S    
C27   C38   1.409671 A    
C5    O9    1.349366 S    
C10   C18   1.403954 A    
N1    C17   1.430267 S    
C31   C37   1.413277 A    
C24   C28   1.415790 A    
C41   C42   1.173391 T    
O3    Zn1   1.973802 S    
O6    C4    1.279029 A    
C5    N1    1.365445 A    
C14   H4    1.083557 S    
C12   C18   1.403670 A    
C6    N2    1.364656 A    
C15   H1    1.083506 S    
O4    Zn2   1.973802 S    
C10   O16   1.380920 S    
C16   H2    1.083534 S    
O2    C2    1.264624 A    
C40   O24   1.377130 S    
C33   C35   1.407016 A    
C9    C13   1.398295 A    
C34   C36   1.406866 A    
C11   C15   1.400332 A    
O14   H6    0.991338 S    
C12   C16   1.399965 A    
C12   O14   1.380692 S    
C8    N2    1.364040 A    
C4    C30   1.460769 S    
O8    Zn2   2.009214 S    
C34   C40   1.406731 A    
O23   H15   0.991223 S    
N2    C18   1.429364 S    
O20   H12   0.991358 S    
C13   C29   1.400640 A    
C19   C23   1.410840 A    
O18   H10   0.989462 S    
C39   O23   1.376864 S    
C11   O13   1.380584 S    
O22   H14   0.989384 S    
C20   C24   1.410913 A    
C28   C37   1.410307 A    
C6    O10   1.349496 S    
C1    C41   1.379822 S    
C32   C38   1.413161 A    
C10   C14   1.398614 A    
C37   O21   1.379928 S    
C3    C29   1.460962 S    
O1    Zn1   1.973400 S    
C32   C33   1.418746 A    
O6    Zn2   2.010496 S    
C19   C36   1.405587 A    
C8    O12   1.349967 S    
C16   C30   1.401324 A    
C14   C30   1.400667 A    
C28   O20   1.379793 S    
C25   C40   1.416078 A    
O4    C1    1.264806 A    
C26   C39   1.409868 A    
C23   C27   1.416287 A    
C27   O19   1.380011 S    
C31   C34   1.418149 A    
C2    C42   1.379823 S    
C20   C22   1.413795 A    
O16   H8    0.991458 S    
C20   C35   1.405666 A    
C38   O22   1.380072 S    
Zn1   N4    1.971771 S    
Zn2   N3    1.971771 S    
C31   C35   1.409547 A    
C21   C25   1.413834 A    
O15   H7    0.991377 S    
O2    Zn2   1.973399 S    
O7    C4    1.278647 A    
C7    O11   1.350017 S    
O8    C3    1.279402 A    
C25   O17   1.382586 S    
N3    N4    1.192225 T    
O5    Zn1   2.010499 S    
C9    O15   1.380862 S    
O13   H5    0.991226 S    
C15   C29   1.401028 A    
C9    C17   1.404150 A    
C32   C36   1.408453 A    
C6    C22   1.406336 A    
