data_mof_unit_58549.cif
_audit_creation_date              2013-03-05T16:05:19-0500
_audit_creation_method            fapswitch 2.2
_symmetry_space_group_name_H-M    P1
_symmetry_Int_Tables_number       1
_space_group_crystal_system       triclinic
_cell_length_a                    27.379442
_cell_length_b                    7.20828
_cell_length_c                    22.735674
_cell_angle_alpha                 90.001452
_cell_angle_beta                  101.335658
_cell_angle_gamma                 90.000128
_cell_volume                      4399.55103439

loop_
_atom_site_label
_atom_site_type_symbol
_atom_site_description
_atom_site_fract_x
_atom_site_fract_y
_atom_site_fract_z
_atom_type_partial_charge
O1    O     O_R   0.707300 0.594030 0.176840 -0.562242
O2    O     O_R   0.292700 0.405970 0.823160 -0.609078
O3    O     O_R   0.792700 0.094030 0.323160 -0.562252
O4    O     O_R   0.207300 0.905970 0.676840 -0.609060
O5    O     O_R   0.697330 0.262360 0.295660 -0.575542
O6    O     O_R   0.302670 0.737640 0.704340 -0.568430
O7    O     O_R   0.802670 0.762360 0.204340 -0.575550
O8    O     O_R   0.197330 0.237640 0.795660 -0.568635
C1    C     C_R   0.685430 0.433033 0.312792 0.951923
C2    C     C_R   0.313997 0.567289 0.686813 0.989413
C3    C     C_R   0.814569 0.933030 0.187206 0.951921
C4    C     C_R   0.186006 0.067295 0.813188 0.989634
O9    O     O_R   0.701410 0.264250 0.175600 -0.602272
O10   O     O_R   0.298590 0.735750 0.824400 -0.535005
O11   O     O_R   0.798590 0.764250 0.324400 -0.602278
O12   O     O_R   0.201410 0.235750 0.675600 -0.535091
O13   O     O_R   0.796800 0.094950 0.202240 -0.539826
O14   O     O_R   0.203200 0.905050 0.797760 -0.576003
O15   O     O_R   0.703200 0.594950 0.297760 -0.539819
O16   O     O_R   0.296800 0.405050 0.702240 -0.575927
C5    C     C_R   0.689086 0.432721 0.153945 1.044591
C6    C     C_R   0.310679 0.566982 0.846145 1.054192
C7    C     C_R   0.810913 0.932724 0.346056 1.044584
C8    C     C_R   0.189321 0.066978 0.653856 1.054396
O17   O     O_3   0.781290 0.427390 0.258880 -0.257528
O18   O     O_3   0.218710 0.572610 0.741120 -0.292538
O19   O     O_3   0.718710 0.927390 0.241120 -0.257494
O20   O     O_3   0.281290 0.072610 0.758880 -0.292365
V1    V     V_3+5 0.744190 0.152150 0.248350 1.287453
V2    V     V_3+5 0.255810 0.847850 0.751650 1.252038
V3    V     V_3+5 0.755810 0.652150 0.251650 1.287444
V4    V     V_3+5 0.244190 0.347850 0.748350 1.251912
C9    C     C_R   0.154315 0.053894 0.595544 -0.319232
C10   C     C_R   0.847326 0.936525 0.403673 -0.332556
C11   C     C_R   0.345685 0.553911 0.904457 -0.319166
C12   C     C_R   0.652671 0.436514 0.096329 -0.332574
C13   C     C_R   0.142716 0.966899 0.491077 -0.128397
C14   C     C_R   0.864029 0.860877 0.509391 -0.112449
C15   C     C_R   0.357283 0.466948 0.008926 -0.128280
C16   C     C_R   0.635965 0.360838 0.990612 -0.112437
C17   C     C_R   0.173501 0.988565 0.546883 -0.104608
C18   C     C_R   0.832399 0.859150 0.453616 -0.157776
C19   C     C_R   0.326499 0.488599 0.953119 -0.104462
C20   C     C_R   0.667594 0.359111 0.046387 -0.157746
C21   C     C_R   0.102506 0.093956 0.587815 0.319360
C22   C     C_R   0.896640 0.007040 0.409617 0.338205
C23   C     C_R   0.397494 0.593972 0.912187 0.319381
C24   C     C_R   0.603360 0.507051 0.090385 0.338195
C25   C     C_R   0.069527 0.031381 0.534436 -0.020777
C26   C     C_R   0.932232 0.973511 0.464061 -0.020345
C27   C     C_R   0.430473 0.531409 0.965567 -0.020795
C28   C     C_R   0.567766 0.473520 0.035942 -0.020344
C29   C     C_R   0.091069 0.986731 0.484530 0.078192
C30   C     C_R   0.913508 0.918939 0.515114 0.080101
C31   C     C_R   0.408930 0.486777 0.015473 0.078120
C32   C     C_R   0.586488 0.418924 0.984889 0.080088
C33   C     C_R   0.016601 0.003947 0.528846 -0.102963
C34   C     C_R   0.985515 0.987048 0.469999 -0.107084
C35   C     C_R   0.483398 0.503966 0.971158 -0.102958
C36   C     C_R   0.514484 0.487075 0.030005 -0.107080
C37   C     C_R   0.009339 0.957669 0.420433 0.606866
C38   C     C_R   0.994611 0.965531 0.579457 0.606755
C39   C     C_R   0.490660 0.457715 0.079571 0.606860
C40   C     C_R   0.505386 0.465530 0.920546 0.606748
C41   C     C_R   0.061108 0.956216 0.428559 -0.350999
C42   C     C_R   0.944288 0.919508 0.571624 -0.341066
C43   C     C_R   0.438890 0.456272 0.071444 -0.350962
C44   C     C_R   0.555709 0.419491 0.928379 -0.341049
H1    H     H_    0.077990 0.927012 0.390199 0.155757
H2    H     H_    0.929123 0.884261 0.610823 0.155126
H3    H     H_    0.422008 0.427081 0.109804 0.155758
H4    H     H_    0.570872 0.384224 0.889181 0.155132
H5    H     H_    0.795225 0.803818 0.449896 0.191541
H6    H     H_    0.212965 0.960199 0.551689 0.182481
H7    H     H_    0.704767 0.303757 0.050108 0.191566
H8    H     H_    0.287035 0.460234 0.948313 0.182566
H9    H     H_    0.159166 0.925804 0.453421 0.135381
H10   H     H_    0.850150 0.810907 0.547984 0.136818
H11   H     H_    0.340832 0.425867 0.046582 0.135420
H12   H     H_    0.649842 0.310847 0.952020 0.136827
C45   C     C_R   0.856378 0.103760 0.111192 0.396220
C46   C     C_R   0.149976 0.904045 0.894358 0.376408
C47   C     C_R   0.643613 0.603797 0.388794 0.396238
C48   C     C_R   0.350115 0.403769 0.605760 0.376416
C49   C     C_R   0.892102 0.107868 0.074681 -0.249488
C50   C     C_R   0.111919 0.887061 0.927421 -0.265604
C51   C     C_R   0.607890 0.607909 0.425306 -0.249511
C52   C     C_R   0.388170 0.386809 0.572698 -0.265775
H13   H     H_    0.893510 0.228395 0.046614 0.150429
H14   H     H_    0.113352 0.773723 0.959014 0.159651
H15   H     H_    0.606470 0.728460 0.453360 0.150425
H16   H     H_    0.386784 0.273266 0.541186 0.159475
C53   C     C_R   0.925406 0.960700 0.073710 0.061992
C54   C     C_R   0.073983 0.020023 0.922956 0.057834
C55   C     C_R   0.574598 0.460711 0.426291 0.061986
C56   C     C_R   0.426036 0.520019 0.577061 0.057869
C57   C     C_R   0.921160 0.803794 0.109076 -0.140384
C58   C     C_R   0.074144 0.170701 0.883776 -0.144104
C59   C     C_R   0.578851 0.303784 0.390936 -0.140391
C60   C     C_R   0.425805 0.670919 0.616143 -0.144273
H17   H     H_    0.946357 0.687658 0.109922 0.113176
H18   H     H_    0.045208 0.275155 0.879119 0.118739
H19   H     H_    0.553661 0.187629 0.390104 0.113186
H20   H     H_    0.454688 0.775566 0.620725 0.118713
C61   C     C_R   0.884986 0.796247 0.144977 -0.127273
C62   C     C_R   0.111025 0.186361 0.849222 -0.099975
C63   C     C_R   0.615020 0.296243 0.355029 -0.127280
C64   C     C_R   0.388921 0.686571 0.650692 -0.098976
H21   H     H_    0.883317 0.673944 0.171902 0.191366
H22   H     H_    0.109288 0.300948 0.818341 0.172476
H23   H     H_    0.616689 0.173933 0.328105 0.191411
H24   H     H_    0.390602 0.801359 0.681489 0.172523
C65   C     C_R   0.852389 0.945770 0.147625 -0.282588
C66   C     C_R   0.149129 0.053711 0.853388 -0.297229
C67   C     C_R   0.647610 0.445782 0.352372 -0.282606
C68   C     C_R   0.350884 0.553682 0.646624 -0.297464
C69   C     C_R   0.978374 0.816918 0.006228 -0.159528
C70   C     C_R   0.021632 0.160524 0.990636 -0.159475
C71   C     C_R   0.521682 0.316965 0.493831 -0.159565
C72   C     C_R   0.478340 0.660486 0.509319 -0.159532
H25   H     H_    0.961485 0.683077 0.010545 0.116559
H26   H     H_    0.038497 0.294337 0.986058 0.119013
H27   H     H_    0.538604 0.183163 0.489549 0.116614
H28   H     H_    0.461441 0.794262 0.513852 0.119017
C73   C     C_R   0.013745 0.831943 0.969462 -0.170188
C74   C     C_R   0.986725 0.145300 0.027803 -0.168282
C75   C     C_R   0.486318 0.331991 0.530604 -0.170201
C76   C     C_R   0.513246 0.645261 0.472151 -0.168309
H29   H     H_    0.023506 0.709036 0.946904 0.117290
H30   H     H_    0.977853 0.268421 0.050881 0.112558
H31   H     H_    0.476597 0.209118 0.553209 0.117276
H32   H     H_    0.522087 0.768341 0.449032 0.112587
C77   C     C_R   0.035603 0.004196 0.960996 0.142003
C78   C     C_R   0.964202 0.973657 0.035793 0.142470
C79   C     C_R   0.464415 0.504201 0.539017 0.142099
C80   C     C_R   0.535808 0.473661 0.464211 0.142466
N1    N     N_R   0.907969 0.135389 0.365752 0.255887
O21   O     O_R   0.934638 0.281937 0.383234 -0.428248
O22   O     O_R   0.892584 0.106322 0.308625 -0.431573
N2    N     N_R   0.085114 0.222414 0.627691 0.258648
O23   O     O_R   0.050722 0.342767 0.606429 -0.415060
O24   O     O_R   0.103108 0.220669 0.685024 -0.469069
N3    N     N_R   0.592035 0.635414 0.134250 0.255893
O25   O     O_R   0.565371 0.781972 0.116769 -0.428225
O26   O     O_R   0.607418 0.606351 0.191378 -0.431537
N4    N     N_R   0.414888 0.722417 0.872310 0.258650
O27   O     O_R   0.449282 0.842766 0.893571 -0.415061
O28   O     O_R   0.396892 0.720665 0.814977 -0.469036
O29   O     O_3   0.982992 0.921865 0.363333 -0.633361
C81   C     C_3   0.979452 0.728719 0.352890 0.193600
H33   H     H_    0.948092 0.672146 0.371951 0.146448
H34   H     H_    0.014319 0.652813 0.372841 0.097088
C82   C     C_3   0.969096 0.697597 0.285108 -0.334923
H35   H     H_    0.936539 0.782890 0.264196 0.232262
H36   H     H_    0.001882 0.744149 0.266902 0.204799
C83   C     C_3   0.958391 0.494578 0.268574 -0.810831
H37   H     H_    0.988295 0.403795 0.293317 0.282427
H38   H     H_    0.956504 0.475248 0.219727 0.235013
H39   H     H_    0.921944 0.453825 0.278990 0.314814
O30   O     O_3   0.021538 0.968957 0.637556 -0.631403
C84   C     C_3   0.038436 0.789082 0.655563 0.190985
H40   H     H_    0.064263 0.737207 0.627010 0.125011
H41   H     H_    0.006597 0.691049 0.652860 0.128315
C85   C     C_3   0.066370 0.799413 0.720722 -0.305174
H42   H     H_    0.097859 0.898173 0.724322 0.222682
H43   H     H_    0.040788 0.850354 0.749571 0.212826
C86   C     C_3   0.087309 0.612135 0.743783 -0.848267
H44   H     H_    0.056904 0.508361 0.740514 0.276643
H45   H     H_    0.106223 0.626064 0.791465 0.248473
H46   H     H_    0.115054 0.564768 0.717451 0.305423
O31   O     O_3   0.517006 0.421916 0.136671 -0.633362
C87   C     C_3   0.520544 0.228770 0.147113 0.193600
H47   H     H_    0.551907 0.172193 0.128059 0.146451
H48   H     H_    0.485678 0.152865 0.127154 0.097088
C88   C     C_3   0.530889 0.197652 0.214896 -0.334918
H49   H     H_    0.563446 0.282929 0.235814 0.232267
H50   H     H_    0.498102 0.244220 0.233093 0.204810
C89   C     C_3   0.541586 0.994637 0.231433 -0.810917
H51   H     H_    0.511679 0.903867 0.206688 0.282414
H52   H     H_    0.543470 0.975323 0.280280 0.235021
H53   H     H_    0.578032 0.953859 0.221021 0.314834
O32   O     O_3   0.478460 0.468940 0.862447 -0.631389
C90   C     C_3   0.461553 0.289065 0.844449 0.191046
H54   H     H_    0.435737 0.237201 0.873016 0.124988
H55   H     H_    0.493390 0.191028 0.847138 0.128338
C91   C     C_3   0.433601 0.299389 0.779298 -0.305457
H56   H     H_    0.402117 0.398161 0.775712 0.222712
H57   H     H_    0.459172 0.350306 0.750433 0.212841
C92   C     C_3   0.412648 0.112117 0.756248 -0.847883
H58   H     H_    0.443048 0.008335 0.759488 0.276616
H59   H     H_    0.393709 0.126062 0.708578 0.248678
H60   H     H_    0.384922 0.064758 0.782606 0.305407
N5    N     N_R   0.824144 0.260997 0.109054 0.218603
O33   O     O_R   0.831931 0.378834 0.153187 -0.398780
O34   O     O_R   0.798984 0.315449 0.057368 -0.446976
N6    N     N_R   0.190492 0.774123 0.905650 0.229837
O35   O     O_R   0.181836 0.599285 0.913601 -0.439691
O36   O     O_R   0.236188 0.834184 0.917943 -0.420634
N7    N     N_R   0.675835 0.761063 0.390915 0.218610
O37   O     O_R   0.668042 0.878836 0.346768 -0.398773
O38   O     O_R   0.700990 0.815592 0.442595 -0.446982
N8    N     N_R   0.309676 0.273520 0.594576 0.229865
O39   O     O_R   0.318460 0.098517 0.587038 -0.439823
O40   O     O_R   0.263949 0.333231 0.582025 -0.420751

loop_
_geom_bond_atom_site_label_1
_geom_bond_atom_site_label_2
_geom_bond_distance
_ccdc_geom_bond_type
O17   V3    1.758829 S    
C59   H19   1.082555 S    
O31   C87   1.412470 S    
C52   C56   1.402237 A    
O1    C5    1.330255 A    
C51   H15   1.083131 S    
O19   V1    1.758817 S    
C9    C21   1.424248 A    
O12   C8    1.330269 A    
O3    C7    1.330258 A    
C10   C18   1.396372 A    
C60   H20   1.082974 S    
C89   H53   1.109518 S    
O15   V3    1.984313 S    
C84   H40   1.114316 S    
C25   C33   1.443147 A    
C33   C38   1.426744 A    
C86   H45   1.110296 S    
C5    C12   1.482341 S    
O7    C3    1.349550 A    
C6    C11   1.478386 S    
N1    O22   1.301231 A    
C35   C40   1.426744 A    
C26   C30   1.413768 A    
N8    O40   1.301423 A    
C62   C66   1.404580 A    
C36   C39   1.424497 A    
C40   C44   1.394178 A    
C61   C65   1.408168 A    
C85   H42   1.108617 S    
N2    O24   1.299833 A    
C14   C18   1.387968 A    
C76   C80   1.409973 A    
C62   H22   1.079050 S    
O4    C8    1.327127 A    
C55   C59   1.405700 A    
C43   H3    1.084908 S    
C54   C58   1.405272 A    
C73   C77   1.407895 A    
N3    O25   1.301125 A    
O1    V3    1.986046 S    
C54   C77   1.490822 S    
O13   V1    1.984311 S    
C31   C43   1.389334 A    
O2    V4    1.986047 S    
C70   H26   1.083194 S    
O3    V1    1.986067 S    
C69   H25   1.082629 S    
O32   C90   1.410092 S    
C50   C54   1.402229 A    
C17   H6    1.083891 S    
C49   C53   1.401876 A    
N7    O37   1.299823 A    
C1    O15   1.334590 A    
C15   C31   1.399786 A    
C52   H16   1.083457 S    
C92   H60   1.109402 S    
C2    O16   1.333152 A    
N5    O34   1.300491 A    
C81   C82   1.527704 S    
C51   C55   1.401849 A    
O2    C6    1.327131 A    
C16   H12   1.084017 S    
C10   C22   1.424040 A    
C82   H36   1.111668 S    
C11   C19   1.396474 A    
C16   C20   1.387964 A    
O5    V1    1.994151 S    
C87   C88   1.527722 S    
C44   H4    1.084734 S    
C13   C29   1.399784 A    
C34   C37   1.424497 A    
O11   C7    1.328797 A    
C23   N4    1.440750 S    
C11   C23   1.424249 A    
C35   C36   1.442785 A    
C48   C68   1.422539 A    
C91   H57   1.111835 S    
C85   H43   1.111837 S    
O10   V2    1.999783 S    
C69   C78   1.407613 A    
C76   H32   1.082598 S    
C84   H41   1.114451 S    
C87   H48   1.116356 S    
C45   C49   1.402061 A    
C89   H51   1.110847 S    
C56   C79   1.490843 S    
N4    O28   1.299834 A    
C83   H39   1.109539 S    
C15   C19   1.387157 A    
C39   C43   1.392984 A    
C60   C64   1.400499 A    
O7    V3    1.994170 S    
N8    O39   1.301815 A    
C38   C42   1.394185 A    
O8    V4    1.994173 S    
C47   C67   1.425008 A    
N2    O23   1.301554 A    
C46   C66   1.422556 A    
C88   H50   1.111631 S    
C53   C78   1.496700 S    
C50   H14   1.083453 S    
C90   C91   1.529615 S    
C86   H44   1.110743 S    
C49   H13   1.083127 S    
C88   C89   1.524921 S    
C23   C27   1.435543 A    
C14   H10   1.084020 S    
C16   C32   1.399301 A    
C32   C44   1.391144 A    
C13   H9    1.084044 S    
C21   N2    1.440749 S    
O4    V2    1.986067 S    
C64   H24   1.079040 S    
C24   N3    1.438195 S    
C72   H28   1.083187 S    
C26   C34   1.441728 A    
C20   H7    1.080896 S    
C90   H54   1.114317 S    
O5    C1    1.349547 A    
C81   H34   1.116358 S    
C58   H18   1.082973 S    
C90   H55   1.114449 S    
C45   C65   1.425001 A    
C39   O31   1.379913 S    
C88   H49   1.109926 S    
C14   C30   1.399305 A    
C21   C25   1.435540 A    
O8    C4    1.345827 A    
C7    C10   1.482344 S    
O9    C5    1.328800 A    
C82   C83   1.524948 S    
C63   C67   1.408164 A    
C70   C77   1.404120 A    
C22   N1    1.438194 S    
O14   V2    1.984305 S    
C86   H46   1.109411 S    
N6    O36   1.301301 A    
O6    V2    1.994151 S    
C38   O30   1.380632 S    
C12   C20   1.396369 A    
C27   C35   1.443146 A    
O9    V1    1.999781 S    
C47   N7    1.431439 S    
C53   C57   1.405724 A    
C84   C85   1.529624 S    
C29   C41   1.389331 A    
C87   H47   1.112480 S    
N4    O27   1.301554 A    
O16   V4    1.984316 S    
C48   N8    1.435732 S    
C19   H8    1.083885 S    
N3    O26   1.301235 A    
C61   H21   1.079385 S    
C83   H37   1.110872 S    
C18   H5    1.080901 S    
C63   H23   1.079374 S    
C57   C61   1.402834 A    
C85   C86   1.519151 S    
C48   C52   1.404813 A    
C75   C79   1.407908 A    
N6    O35   1.301541 A    
C3    O13   1.334598 A    
C47   C51   1.402051 A    
O6    C2    1.345862 A    
C89   H52   1.110353 S    
C72   C76   1.398932 A    
O11   V3    1.999746 S    
O18   V4    1.758829 S    
C1    C67   1.502248 S    
C71   H27   1.082630 S    
O12   V4    1.999748 S    
C59   C63   1.402821 A    
N1    O21   1.301126 A    
C22   C26   1.437382 A    
C8    C9    1.478375 S    
C58   C62   1.400495 A    
C72   C79   1.404136 A    
C9    C17   1.396475 A    
O30   C84   1.410095 S    
O10   C6    1.330270 A    
C91   C92   1.519132 S    
O20   V2    1.758818 S    
C82   H35   1.109970 S    
C40   O32   1.380626 S    
C46   N6    1.435827 S    
C46   C50   1.404886 A    
O29   C81   1.412469 S    
C71   C80   1.407580 A    
C64   C68   1.404585 A    
C33   C34   1.442784 A    
C42   H2    1.084734 S    
C37   O29   1.379911 S    
C41   H1    1.084908 S    
C56   C60   1.405297 A    
C83   H38   1.110343 S    
C55   C80   1.496629 S    
C12   C24   1.424042 A    
C27   C31   1.414917 A    
C37   C41   1.392982 A    
C13   C17   1.387156 A    
C92   H58   1.110741 S    
C3    C65   1.502264 S    
C2    C68   1.492404 S    
C75   H31   1.083147 S    
C25   C29   1.414919 A    
C45   N5    1.431454 S    
C73   H29   1.083152 S    
C24   C28   1.437383 A    
C74   C78   1.410003 A    
C28   C36   1.441727 A    
N5    O33   1.299841 A    
C4    C66   1.492348 S    
C4    O14   1.333157 A    
N7    O38   1.300478 A    
C74   H30   1.082597 S    
C81   H33   1.112476 S    
C70   C74   1.398940 A    
C92   H59   1.110269 S    
C91   H56   1.108610 S    
C30   C42   1.391147 A    
C69   C73   1.402344 A    
C57   H17   1.082553 S    
C28   C32   1.413768 A    
C15   H11   1.084043 S    
C71   C75   1.402331 A    
