data_mof_unit_13368.cif
_audit_creation_date              2012-12-11T14:46:10-0500
_audit_creation_method            fapswitch 2.2
_symmetry_space_group_name_H-M    P1
_symmetry_Int_Tables_number       1
_space_group_crystal_system       triclinic
_cell_length_a                    11.033347
_cell_length_b                    10.964763
_cell_length_c                    18.824715
_cell_angle_alpha                 89.846091
_cell_angle_beta                  90.548571
_cell_angle_gamma                 120.38368
_cell_volume                      1964.50081044

loop_
_atom_site_label
_atom_site_type_symbol
_atom_type_description
_atom_site_fract_x
_atom_site_fract_y
_atom_site_fract_z
_atom_type_partial_charge
C1    C     C_R   0.904844 0.613739 0.611595 0.567472
C2    C     C_R   0.962659 0.181270 0.715684 0.015151
C3    C     C_R   0.966489 0.193024 0.790978 0.018570
C4    C     C_R   0.276076 0.634262 0.602810 0.538698
C5    C     C_R   0.728981 0.155425 0.715255 0.020019
C6    C     C_R   0.745824 0.190034 0.787587 0.021184
C7    C     C_R   0.599371 0.119450 0.682434 -0.076215
C8    C     C_R   0.502401 0.144025 0.716066 -0.153757
C9    C     C_R   0.529003 0.197694 0.784489 -0.154625
C10   C     C_R   0.651205 0.224165 0.819541 -0.082362
C11   C     C_R   0.844629 0.168139 0.676772 -0.034692
C12   C     C_R   0.435076 0.606997 0.774510 -0.123584
C13   C     C_R   0.760540 0.526111 0.720084 -0.154358
C14   C     C_R   0.735285 0.542316 0.790486 -0.199284
C15   C     C_R   0.836757 0.654860 0.830193 0.008749
C16   C     C_R   0.861700 0.225410 0.603163 0.521522
C17   C     C_R   0.969396 0.752845 0.799107 0.273454
C18   C     C_R   0.989565 0.743311 0.727348 0.010039
C19   C     C_R   0.884874 0.627435 0.687294 -0.005219
C20   C     C_R   0.411118 0.635020 0.296645 -0.153473
C21   C     C_R   0.434432 0.646539 0.224530 -0.142456
C22   C     C_R   0.368232 0.698231 0.179689 0.047883
C23   C     C_R   0.394492 0.587498 0.703524 -0.111699
C24   C     C_R   0.284140 0.747945 0.208043 -0.032922
C25   C     C_R   0.262818 0.738244 0.281353 -0.118766
C26   C     C_R   0.322762 0.677654 0.325126 0.010544
C27   C     C_R   0.712262 0.095719 0.295000 -0.141881
C28   C     C_R   0.863519 0.639684 0.398317 0.571867
C29   C     C_R   0.700141 0.075174 0.222485 -0.132209
C30   C     C_R   0.820953 0.123264 0.180702 0.036791
C31   C     C_R   0.953202 0.181367 0.212641 -0.153346
C32   C     C_R   0.965627 0.203386 0.285569 -0.135011
C33   C     C_R   0.845323 0.166619 0.326349 0.031798
C34   C     C_R   0.357078 0.678751 0.669968 0.023286
C35   C     C_R   0.899796 0.789048 0.295606 -0.192501
C36   C     C_R   0.893217 0.799039 0.223309 -0.156783
C37   C     C_R   0.803507 0.679647 0.182601 -0.011511
C38   C     C_R   0.707662 0.553506 0.215916 -0.152837
C39   C     C_R   0.710378 0.542164 0.290532 0.259708
C40   C     C_R   0.270317 0.634893 0.396473 0.548314
C41   C     C_R   0.816404 0.659286 0.328923 0.044297
C42   C     C_R   0.809876 0.109525 0.897101 0.533178
C43   C     C_R   0.462896 0.725842 0.890098 0.574840
C44   C     C_R   0.799844 0.691085 0.898160 0.545359
C45   C     C_R   0.850535 0.180796 0.826986 -0.038436
C46   C     C_R   0.801342 0.096266 0.105173 0.548935
C47   C     C_R   0.400235 0.706058 0.104828 0.550181
C48   C     C_R   0.794650 0.699834 0.107040 0.548949
C49   C     C_R   0.861897 0.228098 0.396383 0.545549
C50   C     C_R   0.383972 0.801054 0.705382 -0.149301
C51   C     C_R   0.427547 0.822649 0.776354 -0.138131
C52   C     C_R   0.441593 0.719322 0.812857 0.020624
C53   C     C_3   0.156433 0.868872 0.878054 0.033616
C54   C     C_3   0.217536 0.995893 0.928976 -0.263669
C55   C     C_3   0.334112 0.004803 0.976163 -0.446799
C56   C     C_R   0.090564 0.228175 0.828636 -0.048558
C57   C     C_3   0.114849 0.870347 0.694026 -0.339965
C58   C     C_3   0.211157 0.802419 0.160938 -0.400049
C59   C     C_3   0.535255 0.298158 0.291654 0.019516
C60   C     C_3   0.392739 0.275347 0.266433 -0.277452
C61   C     C_3   0.308434 0.134635 0.227774 -0.492876
C62   C     C_R   0.208470 0.248380 0.792939 -0.093361
C63   C     C_R   0.201699 0.223285 0.720332 -0.126625
C64   C     C_R   0.078835 0.185548 0.682256 -0.075305
Cr1   Cr    Cr6+3 0.791660 0.390250 0.499930 1.040663
Cr2   Cr    Cr6+3 0.098520 0.708290 0.500540 0.988438
Cr3   Cr    Cr6+3 0.109770 0.401430 0.499480 1.006232
Cr4   Cr    Cr6+3 0.874790 0.925890 0.000070 0.996181
Cr5   Cr    Cr6+3 0.574120 0.948670 0.999300 0.958785
Cr6   Cr    Cr6+3 0.551420 0.625320 0.000920 0.989559
H1    H     H_    0.369302 0.877923 0.678069 0.103110
H2    H     H_    0.192036 0.769217 0.303543 0.139486
H3    H     H_    0.618468 0.063121 0.325887 0.117965
H4    H     H_    0.595717 0.022611 0.199025 0.142547
H5    H     H_    0.046252 0.214205 0.181091 0.115730
H6    H     H_    0.070010 0.257757 0.309001 0.139599
H7    H     H_    0.977007 0.881356 0.324853 0.141209
H8    H     H_    0.960496 0.901207 0.199265 0.149170
H9    H     H_    0.630246 0.468302 0.183245 0.110857
H10   H     H_    0.455770 0.531097 0.800185 0.120120
H11   H     H_    0.384875 0.496281 0.676307 0.138753
H12   H     H_    0.406570 0.119378 0.688667 0.092592
H13   H     H_    0.305191 0.285616 0.822111 0.082289
H14   H     H_    0.292943 0.237069 0.692782 0.089936
H15   H     H_    0.099950 0.249519 0.885169 0.117577
H16   H     H_    0.076726 0.159188 0.626881 0.130878
H17   H     H_    0.670617 0.270348 0.872179 0.132576
H18   H     H_    0.241753 0.871124 0.847035 0.129996
H19   H     H_    0.104530 0.769229 0.909597 0.132425
H20   H     H_    0.260316 0.095032 0.898032 0.149709
H21   H     H_    0.133374 0.989251 0.963462 0.195597
H22   H     H_    0.299010 0.901413 0.002038 0.178564
H23   H     H_    0.571064 0.070226 0.630483 0.135899
H24   H     H_    0.361377 0.086116 0.017999 0.108282
H25   H     H_    0.429048 0.036757 0.943914 0.193170
H26   H     H_    0.167788 0.836316 0.657396 0.153471
H27   H     H_    0.078663 0.934223 0.664899 0.153519
H28   H     H_    0.197486 0.940881 0.732083 0.147932
H29   H     H_    0.144394 0.720829 0.121070 0.140060
H30   H     H_    0.143284 0.829277 0.191983 0.133664
H31   H     H_    0.289916 0.899388 0.133335 0.139816
H32   H     H_    0.514349 0.212275 0.329684 0.161441
H33   H     H_    0.596471 0.286823 0.248146 0.123606
H34   H     H_    0.454655 0.216500 0.811261 0.098242
H35   H     H_    0.332253 0.276491 0.313073 0.174080
H36   H     H_    0.407144 0.361445 0.230224 0.159550
H37   H     H_    0.365828 0.133334 0.179919 0.147389
H38   H     H_    0.205180 0.119613 0.210845 0.141662
H39   H     H_    0.290333 0.046379 0.263546 0.147749
H40   H     H_    0.678889 0.438642 0.690079 0.163692
H41   H     H_    0.633750 0.471698 0.813068 0.122265
H42   H     H_    0.457769 0.588244 0.329695 0.158729
H43   H     H_    0.503387 0.613107 0.203191 0.140344
H44   H     H_    0.445792 0.917057 0.803353 0.146766
O1    O     O_R   0.766500 0.250040 0.579790 -0.532505
O2    O     O_R   0.413330 0.603360 0.920440 -0.523655
O3    O     O_R   0.676110 0.626250 0.926750 -0.532446
O4    O     O_R   0.798570 0.516780 0.574780 -0.501462
O5    O     O_R   0.895350 0.809870 0.080950 -0.538432
O6    O     O_R   0.872490 0.049760 0.073800 -0.511550
O7    O     O_R   0.691680 0.088070 0.079070 -0.529533
O8    O     O_R   0.451720 0.825250 0.074050 -0.516294
O9    O     O_R   0.413580 0.606370 0.080960 -0.522674
O10   O     O_R   0.676340 0.629040 0.075550 -0.509767
O11   O     O_3   0.666780 0.833290 0.000090 -0.262162
O12   O     O_R   0.218690 0.701900 0.425960 -0.510220
O13   O     O_R   0.984000 0.732950 0.581090 -0.534024
O14   O     O_R   0.218600 0.700890 0.574760 -0.533799
O15   O     O_R   0.249390 0.515350 0.579940 -0.517886
O16   O     O_R   0.982790 0.280900 0.573700 -0.508942
O17   O     O_R   0.766600 0.251130 0.419260 -0.511416
O18   O     O_R   0.798660 0.517790 0.425980 -0.437140
O19   O     O_R   0.984100 0.734040 0.420570 -0.540576
O20   O     O_3   0.062338 0.881435 0.831399 -0.544226
O21   O     O_3   0.610023 0.426841 0.329474 -0.556739
O22   O     O_R   0.249490 0.516440 0.419420 -0.515321
O23   O     O_R   0.982880 0.281910 0.424890 -0.510235
O24   O     O_3   0.999980 0.499990 0.499980 -0.265421
O25   O     O_R   0.895110 0.806860 0.920430 -0.473004
O26   O     O_R   0.872260 0.046970 0.925000 -0.489381
O27   O     O_R   0.691430 0.085060 0.918550 -0.544100
O28   O     O_R   0.451490 0.822460 0.925250 -0.529030

loop_
_geom_bond_atom_site_label_1
_geom_bond_atom_site_label_2
_ccdc_geom_bond_type
C62   H13   S    
C6    C45   A    
C49   O23   A    
C27   C29   A    
C35   C36   A    
C61   H39   S    
C7    C8    A    
C39   C41   A    
C39   O21   S    
C53   C54   S    
C27   C33   A    
C49   O17   A    
C12   C23   A    
C62   C63   A    
C8    H12   S    
Cr5   O8    S    
C21   C22   A    
C36   C37   A    
C37   C38   A    
C15   C44   S    
C54   H20   S    
Cr4   O5    S    
C30   C31   A    
C43   C52   S    
C38   H9    S    
Cr6   O3    S    
C33   C49   S    
C28   C41   S    
Cr2   O13   S    
C18   C19   A    
C3    C56   A    
Cr3   O24   S    
C61   H38   S    
C12   C52   A    
C20   H42   S    
C31   H5    S    
Cr6   O9    S    
C57   H27   S    
Cr2   O14   S    
C8    C9    A    
C57   H26   S    
Cr1   O4    S    
C46   O7    A    
C29   C30   A    
C16   O16   A    
C9    C10   A    
C22   C47   S    
Cr5   O11   S    
C59   C60   S    
C13   C14   A    
Cr1   O1    S    
Cr3   O15   S    
C55   H24   S    
C35   C41   A    
C2    C11   A    
C64   H16   S    
Cr1   O17   S    
C2    C64   A    
C50   C51   A    
C48   O5    A    
C14   H41   S    
C7    H23   S    
C53   O20   S    
C4    C34   S    
C10   H17   S    
C1    C19   S    
C51   H44   S    
C34   C50   A    
C4    O14   A    
C42   O26   A    
C28   O19   A    
C58   H30   S    
C24   C25   A    
C55   H25   S    
C58   H31   S    
C13   C19   A    
C47   O8    A    
C29   H4    S    
Cr6   O2    S    
C25   C26   A    
C3    C45   A    
Cr2   O12   S    
C60   C61   S    
C28   O18   A    
C42   C45   S    
C38   C39   A    
C50   H1    S    
C6    C10   A    
C13   H40   S    
C43   O2    A    
Cr2   O19   S    
C40   O22   A    
C11   C16   S    
C18   C57   S    
C47   O9    A    
C31   C32   A    
Cr2   O24   S    
Cr5   O7    S    
C23   C34   A    
C40   O12   A    
C42   O27   A    
C17   C18   A    
C46   O6    A    
C25   H2    S    
C37   C48   S    
Cr1   O24   S    
Cr6   O11   S    
C21   H43   S    
C55   H22   S    
C44   O25   A    
C53   H19   S    
C56   C62   A    
Cr4   O26   S    
Cr3   O16   S    
C16   O1    A    
Cr1   O18   S    
C60   H36   S    
C5    C7    A    
C15   C17   A    
C54   C55   S    
C23   H11   S    
C59   H32   S    
C30   C46   S    
C58   H29   S    
C1    O13   A    
C43   O28   A    
C32   H6    S    
C5    C11   A    
C4    O15   A    
C63   H14   S    
C59   H33   S    
C32   C33   A    
C2    C3    A    
Cr5   O28   S    
C51   C52   A    
C36   H8    S    
Cr4   O6    S    
C26   C40   S    
C56   H15   S    
C5    C6    A    
C20   C26   A    
C44   O3    A    
C9    H34   S    
C57   H28   S    
C12   H10   S    
C59   O21   S    
C35   H7    S    
Cr3   O22   S    
C53   H18   S    
C22   C24   A    
C1    O4    A    
C61   H37   S    
C63   C64   A    
Cr6   O10   S    
C54   H21   S    
C20   C21   A    
C24   C58   S    
C48   O10   A    
C17   O20   S    
C14   C15   A    
Cr4   O25   S    
C27   H3    S    
Cr3   O23   S    
Cr5   O27   S    
Cr4   O11   S    
C60   H35   S    
