data_mof_unit_67206.cif
_audit_creation_date              2012-12-11T18:15:28-0500
_audit_creation_method            fapswitch 2.2
_symmetry_space_group_name_H-M    P1
_symmetry_Int_Tables_number       1
_space_group_crystal_system       triclinic
_cell_length_a                    20.610811
_cell_length_b                    20.295848
_cell_length_c                    8.623421
_cell_angle_alpha                 90.654392
_cell_angle_beta                  96.63047
_cell_angle_gamma                 92.136768
_cell_volume                      3580.22847624

loop_
_atom_site_label
_atom_site_type_symbol
_atom_type_description
_atom_site_fract_x
_atom_site_fract_y
_atom_site_fract_z
_atom_type_partial_charge
Ba1   Ba    Ba6+2 0.999980 0.452130 0.155200 1.574059
Ba2   Ba    Ba6+2 0.999980 0.547870 0.655200 1.623494
Ba3   Ba    Ba6+2 0.499980 0.952130 0.155200 1.577760
Ba4   Ba    Ba6+2 0.499980 0.047870 0.655200 1.633541
C1    C     C_3   0.947801 0.132811 0.389554 0.322838
C2    C     C_3   0.947761 0.867025 0.889444 0.228158
C3    C     C_3   0.447802 0.632811 0.389554 0.325657
C4    C     C_3   0.447761 0.367025 0.889444 0.231647
C5    C     C_R   0.156789 0.352505 0.783376 0.057657
C6    C     C_R   0.156755 0.647474 0.283330 0.055422
C7    C     C_R   0.656789 0.852505 0.783376 0.066064
C8    C     C_R   0.656755 0.147474 0.283330 0.057092
C9    C     C_R   0.116503 0.345987 0.635674 -0.337537
C10   C     C_R   0.116499 0.653996 0.135695 -0.348940
C11   C     C_R   0.616503 0.845988 0.635674 -0.335794
C12   C     C_R   0.616499 0.153996 0.135695 -0.303925
C13   C     C_R   0.123463 0.288820 0.538249 0.068824
C14   C     C_R   0.123462 0.711105 0.038360 0.108233
C15   C     C_R   0.623463 0.788820 0.538249 0.066765
C16   C     C_R   0.623462 0.211105 0.038360 0.112715
C17   C     C_R   0.172670 0.239324 0.577376 -0.071436
C18   C     C_R   0.172622 0.760754 0.077449 -0.055869
C19   C     C_R   0.672670 0.739324 0.577376 -0.072004
C20   C     C_R   0.672621 0.260754 0.077449 -0.041137
C21   C     C_R   0.212242 0.243915 0.730922 -0.066733
C22   C     C_R   0.212948 0.755592 0.228995 -0.074357
C23   C     C_R   0.712242 0.743915 0.730922 -0.066262
C24   C     C_R   0.712948 0.255592 0.228995 -0.074012
C25   C     C_R   0.205182 0.301177 0.830134 -0.051297
C26   C     C_R   0.205303 0.698659 0.329998 -0.114841
C27   C     C_R   0.705182 0.801177 0.830134 -0.051709
C28   C     C_R   0.705303 0.198659 0.329998 -0.106120
C29   C     C_R   0.800175 0.698411 0.925476 -0.084044
C30   C     C_R   0.800407 0.301491 0.425175 -0.147411
C31   C     C_R   0.300175 0.198411 0.925476 -0.081213
C32   C     C_R   0.300407 0.801491 0.425175 -0.143010
C33   C     C_R   0.793736 0.756135 0.024408 -0.134039
C34   C     C_R   0.793873 0.243639 0.524575 -0.119289
C35   C     C_R   0.293736 0.256135 0.024408 -0.136452
C36   C     C_R   0.293873 0.743639 0.524575 -0.117807
C37   C     C_R   0.848298 0.647902 0.975515 0.107675
C38   C     C_R   0.848423 0.352179 0.475059 0.128366
C39   C     C_R   0.348298 0.147902 0.975515 0.101265
C40   C     C_R   0.348423 0.852178 0.475059 0.130137
C41   C     C_R   0.888942 0.653793 0.120570 -0.310532
C42   C     C_R   0.891651 0.345909 0.616361 -0.213855
C43   C     C_R   0.388942 0.153793 0.120570 -0.290103
C44   C     C_R   0.391651 0.845909 0.616361 -0.216020
C45   C     C_3   0.025481 0.202486 0.888072 0.308573
C46   C     C_3   0.026003 0.797195 0.387800 0.152619
C47   C     C_3   0.525481 0.702486 0.888072 0.305939
C48   C     C_3   0.526003 0.297195 0.387800 0.158553
C49   C     C_R   0.882550 0.711165 0.220337 0.048511
C50   C     C_R   0.886334 0.286894 0.693468 -0.115630
C51   C     C_R   0.382550 0.211165 0.220337 0.041508
C52   C     C_R   0.386334 0.786893 0.693468 -0.133793
C53   C     C_R   0.836084 0.761709 0.172092 0.214854
C54   C     C_R   0.834960 0.237172 0.670430 0.376925
C55   C     C_R   0.336084 0.261709 0.172092 0.216898
C56   C     C_R   0.334960 0.737172 0.670430 0.361953
C57   C     C_R   0.760355 0.692975 0.778712 0.007407
C58   C     C_R   0.760509 0.306939 0.278264 -0.052334
C59   C     C_R   0.260355 0.192974 0.778712 0.002550
C60   C     C_R   0.260509 0.806939 0.278264 -0.052094
C61   C     C_3   0.053693 0.134768 0.917639 0.599509
C62   C     C_3   0.054481 0.866169 0.418014 0.684496
C63   C     C_3   0.553693 0.634768 0.917639 0.592107
C64   C     C_3   0.554481 0.366169 0.418014 0.696164
C65   C     C_3   0.790135 0.462604 0.840158 0.703262
C66   C     C_3   0.790281 0.537118 0.340809 0.594579
C67   C     C_3   0.290135 0.962604 0.840158 0.710599
C68   C     C_3   0.290281 0.037118 0.340809 0.597392
C69   C     C_3   0.725430 0.433039 0.878466 -0.308934
C70   C     C_3   0.724560 0.565151 0.375439 -0.308514
C71   C     C_3   0.225430 0.933039 0.878466 -0.317028
C72   C     C_3   0.224560 0.065151 0.375439 -0.321185
C73   C     C_3   0.209899 0.536232 0.972807 0.315667
C74   C     C_3   0.209912 0.463770 0.472808 0.249727
C75   C     C_3   0.709899 0.036232 0.972807 0.450695
C76   C     C_3   0.709912 0.963770 0.472808 0.269521
C77   C     C_3   0.278257 0.564136 0.938535 0.003481
C78   C     C_3   0.279262 0.436603 0.437628 -0.259312
C79   C     C_3   0.778257 0.064136 0.938535 1.259948
C80   C     C_3   0.779262 0.936603 0.437628 -0.231905
C81   C     C_3   0.974143 0.202475 0.423985 0.335192
C82   C     C_3   0.973920 0.797318 0.924013 0.250283
C83   C     C_3   0.474143 0.702475 0.423985 0.317973
C84   C     C_3   0.473920 0.297318 0.924013 0.246013
C85   C     C_R   0.245708 0.307481 0.976966 0.362899
C86   C     C_R   0.246191 0.692365 0.477455 0.417984
C87   C     C_R   0.745708 0.807481 0.976966 0.366033
C88   C     C_R   0.746191 0.192365 0.477455 0.446446
H1    H     H_    0.937871 0.237130 0.379518 0.022806
H2    H     H_    0.937718 0.762748 0.879132 0.041721
H3    H     H_    0.437871 0.737130 0.379518 0.023114
H4    H     H_    0.437718 0.262748 0.879132 0.041635
H5    H     H_    0.687551 0.451739 0.787549 0.072805
H6    H     H_    0.685062 0.549635 0.292954 0.081645
H7    H     H_    0.187551 0.951739 0.787549 0.078565
H8    H     H_    0.185062 0.049635 0.292954 0.083991
H9    H     H_    0.766461 0.386983 0.069378 0.089866
H10   H     H_    0.733225 0.613473 0.376823 0.113583
H11   H     H_    0.266461 0.886983 0.069378 0.087378
H12   H     H_    0.233225 0.113473 0.376823 0.122649
H13   H     H_    0.712951 0.450531 0.980748 0.070846
H14   H     H_    0.709632 0.549727 0.484054 0.096455
H15   H     H_    0.212951 0.950531 0.980748 0.071960
H16   H     H_    0.209632 0.049727 0.484054 0.098113
H17   H     H_    0.202484 0.542009 0.089244 -0.056190
H18   H     H_    0.202606 0.458081 0.589535 -0.018841
H19   H     H_    0.702484 0.042009 0.089244 -0.153971
H20   H     H_    0.702606 0.958082 0.589535 -0.025944
H21   H     H_    0.170765 0.561719 0.919205 -0.000907
H22   H     H_    0.170749 0.438120 0.419139 0.010211
H23   H     H_    0.670766 0.061719 0.919205 -0.004400
H24   H     H_    0.670749 0.938120 0.419139 0.001596
H25   H     H_    0.314238 0.550151 0.021350 0.081689
H26   H     H_    0.309397 0.450545 0.510944 0.113266
H27   H     H_    0.814238 0.050151 0.021350 0.016463
H28   H     H_    0.809397 0.950545 0.510944 0.108339
H29   H     H_    0.273785 0.610467 0.920780 -0.285739
H30   H     H_    0.275633 0.385248 0.440666 0.027046
H31   H     H_    0.773785 0.110466 0.920780 -1.834627
H32   H     H_    0.775633 0.885248 0.440666 0.016645
H33   H     H_    0.981621 0.209653 0.543914 -0.073241
H34   H     H_    0.981297 0.790381 0.043944 -0.031534
H35   H     H_    0.481621 0.709653 0.543914 -0.060382
H36   H     H_    0.481297 0.290381 0.043944 -0.029161
H37   H     H_    0.929317 0.111522 0.493084 0.044499
H38   H     H_    0.931971 0.887482 0.991875 0.035072
H39   H     H_    0.429317 0.611522 0.493084 0.038603
H40   H     H_    0.431971 0.387482 0.991875 0.031002
H41   H     H_    0.906831 0.134949 0.304112 -0.045250
H42   H     H_    0.906996 0.864398 0.804273 0.019956
H43   H     H_    0.406831 0.634949 0.304112 -0.038459
H44   H     H_    0.406996 0.364398 0.804273 0.011553
H45   H     H_    0.078980 0.386822 0.598944 0.089904
H46   H     H_    0.078838 0.613039 0.098842 0.101216
H47   H     H_    0.578980 0.886822 0.598944 0.086742
H48   H     H_    0.578838 0.113039 0.098842 0.078168
H49   H     H_    0.926423 0.613136 0.159620 0.068363
H50   H     H_    0.927596 0.387381 0.658335 0.092286
H51   H     H_    0.426423 0.113136 0.159620 0.055108
H52   H     H_    0.427596 0.887381 0.658335 0.097302
H53   H     H_    0.765779 0.646861 0.702276 0.124010
H54   H     H_    0.765530 0.351963 0.202239 0.071159
H55   H     H_    0.265779 0.146861 0.702276 0.125000
H56   H     H_    0.265530 0.851963 0.202239 0.072865
H57   H     H_    0.061998 0.237530 0.931951 0.045213
H58   H     H_    0.060946 0.762286 0.431598 0.080807
H59   H     H_    0.561998 0.737530 0.931951 0.048354
H60   H     H_    0.560946 0.262286 0.431598 0.076292
H61   H     H_    0.017431 0.210243 0.767969 -0.049895
H62   H     H_    0.017626 0.789717 0.267898 -0.060826
H63   H     H_    0.517431 0.710243 0.767969 -0.052006
H64   H     H_    0.517626 0.289717 0.267898 -0.066068
H65   H     H_    0.020295 0.107175 0.955771 -0.022169
H66   H     H_    0.020491 0.893003 0.455785 -0.026426
H67   H     H_    0.520295 0.607175 0.955771 -0.011549
H68   H     H_    0.520491 0.393003 0.455785 -0.033381
H69   H     H_    0.795025 0.459648 0.719555 -0.054227
H70   H     H_    0.794949 0.540554 0.219537 0.001184
H71   H     H_    0.295025 0.959648 0.719555 -0.060394
H72   H     H_    0.294949 0.040554 0.219537 0.001651
O1    O     O_2   0.130070 0.404060 0.104920 -0.473284
O2    O     O_2   0.130070 0.595940 0.604920 -0.497688
O3    O     O_2   0.630070 0.904060 0.104920 -0.472144
O4    O     O_2   0.630070 0.095940 0.604920 -0.477264
O5    O     O_3   0.792873 0.467880 0.387343 -0.685062
O6    O     O_3   0.793179 0.531507 0.889277 -0.672248
O7    O     O_3   0.292873 0.967880 0.387343 -0.683832
O8    O     O_3   0.293179 0.031507 0.889277 -0.672073
O9    O     O_3   0.965110 0.208671 0.968851 -0.686953
O10   O     O_3   0.966183 0.782572 0.471739 -0.690972
O11   O     O_3   0.465110 0.708671 0.968851 -0.692828
O12   O     O_3   0.466183 0.282572 0.471739 -0.691926
O13   O     O_3   0.924190 0.533610 0.949240 -0.461306
O14   O     O_3   0.924190 0.466390 0.449240 -0.686817
O15   O     O_3   0.424190 0.033610 0.949240 -0.466853
O16   O     O_3   0.424190 0.966390 0.449240 -0.692457
O17   O     O_3   0.075780 0.466370 0.861070 -0.505532
O18   O     O_3   0.075780 0.533630 0.361070 -0.516084
O19   O     O_3   0.575780 0.966370 0.861070 -0.505545
O20   O     O_3   0.575780 0.033630 0.361070 -0.519543
O21   O     O_3   0.022320 0.344950 0.359800 -0.465855
O22   O     O_3   0.022320 0.655050 0.859800 -0.479877
O23   O     O_3   0.522320 0.844950 0.359800 -0.460760
O24   O     O_3   0.522320 0.155050 0.859800 -0.480900
O25   O     O_2   0.117661 0.284709 0.229681 -0.609623
O26   O     O_2   0.117818 0.716582 0.729452 -0.604802
O27   O     O_2   0.617661 0.784709 0.229681 -0.610804
O28   O     O_2   0.617818 0.216582 0.729452 -0.587654
O29   O     O_3   0.206470 0.469152 0.920503 -0.611738
O30   O     O_3   0.206602 0.530920 0.420163 -0.589906
O31   O     O_3   0.706470 0.969152 0.920503 -0.705318
O32   O     O_3   0.706601 0.030920 0.420163 -0.587007
O33   O     O_3   0.033295 0.216573 0.356742 -0.613964
O34   O     O_3   0.034491 0.778098 0.861480 -0.663561
O35   O     O_3   0.533295 0.716573 0.356742 -0.612940
O36   O     O_3   0.534490 0.278098 0.861480 -0.666672
O37   O     O_2   0.869860 0.403670 0.205810 -0.442905
O38   O     O_2   0.869860 0.596330 0.705810 -0.506626
O39   O     O_2   0.369860 0.903670 0.205810 -0.443666
O40   O     O_2   0.369860 0.096330 0.705810 -0.506518
O41   O     O_3   0.977590 0.344880 0.951200 -0.511547
O42   O     O_3   0.977590 0.655120 0.451200 -0.563668
O43   O     O_3   0.477590 0.844880 0.951200 -0.510393
O44   O     O_3   0.477590 0.155120 0.451200 -0.564823
O45   O     O_2   0.892066 0.283266 0.085833 -0.564200
O46   O     O_2   0.855240 0.712904 0.588836 -0.484443
O47   O     O_2   0.392066 0.783266 0.085833 -0.565377
O48   O     O_2   0.355240 0.212904 0.588836 -0.484573
P1    P     P_3+3 0.136530 0.426510 0.931350 1.036660
P2    P     P_3+3 0.136530 0.573490 0.431350 1.022275
P3    P     P_3+3 0.636530 0.926510 0.931350 1.022783
P4    P     P_3+3 0.636530 0.073490 0.431350 1.037505
P5    P     P_3+3 0.863410 0.426100 0.379280 0.869939
P6    P     P_3+3 0.863410 0.573900 0.879280 0.958500
P7    P     P_3+3 0.363410 0.926100 0.379280 0.867143
P8    P     P_3+3 0.363410 0.073900 0.879280 0.962572
P9    P     P_3+3 0.931682 0.286275 0.951490 0.913178
P10   P     P_3+3 0.929110 0.710761 0.439946 0.970116
P11   P     P_3+3 0.431682 0.786275 0.951490 0.906855
P12   P     P_3+3 0.429110 0.210761 0.439946 0.968928
P13   P     P_3+3 0.071052 0.710887 0.870440 0.908774
P14   P     P_3+3 0.071715 0.287383 0.367266 0.946335
P15   P     P_3+3 0.571052 0.210887 0.870440 0.920130
P16   P     P_3+3 0.571715 0.787383 0.367266 0.947056
C89   C     C_3   0.297347 0.539881 0.757933 -0.129800
C90   C     C_3   0.336508 0.474306 0.766868 -0.446260
H73   H     H_    0.384940 0.480844 0.840761 0.166835
H74   H     H_    0.307449 0.432732 0.817433 0.163328
H75   H     H_    0.351589 0.454672 0.648555 0.098613
H76   H     H_    0.251354 0.533086 0.676172 0.177471
H77   H     H_    0.326468 0.579541 0.698434 0.239044
C91   C     C_3   0.297417 0.460063 0.257588 -0.088811
C92   C     C_3   0.342042 0.408670 0.166753 -0.278559
H78   H     H_    0.389666 0.399340 0.238704 0.148899
H79   H     H_    0.320922 0.359894 0.151013 0.300873
H80   H     H_    0.350160 0.426650 0.054145 0.086967
H81   H     H_    0.251118 0.469675 0.179197 0.165954
H82   H     H_    0.323574 0.507855 0.270058 0.085928
C93   C     C_3   0.797347 0.039881 0.757933 -0.196342
C94   C     C_3   0.836508 0.974306 0.766868 -0.571277
H83   H     H_    0.884940 0.980844 0.840761 0.159320
H84   H     H_    0.807449 0.932732 0.817433 0.156965
H85   H     H_    0.851589 0.954672 0.648555 0.140191
H86   H     H_    0.751354 0.033086 0.676172 0.159689
H87   H     H_    0.826468 0.079541 0.698434 0.223620
C95   C     C_3   0.797417 0.960063 0.257588 -0.102317
C96   C     C_3   0.842041 0.908670 0.166753 -0.287518
H88   H     H_    0.889666 0.899340 0.238704 0.153571
H89   H     H_    0.820922 0.859894 0.151013 0.301478
H90   H     H_    0.850160 0.926650 0.054145 0.065602
H91   H     H_    0.751118 0.969675 0.179197 0.143987
H92   H     H_    0.823574 0.007855 0.270058 0.065893
O49   O     O_3   0.073280 0.109128 0.766187 -0.683843
C97   C     C_3   0.124948 0.140149 0.701820 0.081171
H93   H     H_    0.174044 0.141894 0.779030 0.045229
H94   H     H_    0.109169 0.188055 0.673061 0.080613
H95   H     H_    0.129612 0.103925 0.600546 0.097469
O50   O     O_3   0.074928 0.896095 0.276176 -0.642662
C98   C     C_3   0.124379 0.863075 0.200945 0.168478
H96   H     H_    0.109109 0.811959 0.169969 0.027511
H97   H     H_    0.177897 0.860021 0.274964 0.032562
H98   H     H_    0.132589 0.899151 0.106583 0.093495
O51   O     O_3   0.573280 0.609128 0.766187 -0.683708
C99   C     C_3   0.624948 0.640149 0.701820 0.090989
H99   H     H_    0.674044 0.641894 0.779030 0.038531
H100  H     H_    0.609169 0.688055 0.673061 0.078965
H101  H     H_    0.629612 0.603925 0.600546 0.096061
O52   O     O_3   0.574928 0.396094 0.276176 -0.641818
C100  C     C_3   0.624379 0.363075 0.200945 0.167197
H102  H     H_    0.609109 0.311959 0.169969 0.021352
H103  H     H_    0.677897 0.360021 0.274964 0.032881
H104  H     H_    0.632589 0.399151 0.106583 0.095425
C101  C     C_3   0.176415 0.173671 0.473132 -0.182840
C102  C     C_3   0.194349 0.191276 0.293407 -0.310486
H105  H     H_    0.163136 0.221372 0.238861 0.249281
H106  H     H_    0.246787 0.216288 0.312020 0.081964
H107  H     H_    0.214597 0.147856 0.223230 0.107782
H108  H     H_    0.200532 0.140151 0.533956 0.036368
H109  H     H_    0.129603 0.145419 0.455658 0.126602
C103  C     C_3   0.177947 0.826836 0.970225 -0.248446
C104  C     C_3   0.113109 0.849843 0.877601 -0.330709
H110  H     H_    0.094303 0.805294 0.793174 0.268948
H111  H     H_    0.071790 0.860509 0.955857 0.208811
H112  H     H_    0.118620 0.891001 0.804894 0.125000
H113  H     H_    0.195463 0.864261 0.034801 0.057029
H114  H     H_    0.217769 0.817684 0.887081 0.126235
C105  C     C_3   0.676415 0.673671 0.473132 -0.183442
C106  C     C_3   0.694349 0.691276 0.293407 -0.311786
H115  H     H_    0.663136 0.721372 0.238861 0.249929
H116  H     H_    0.746787 0.716288 0.312020 0.079006
H117  H     H_    0.714597 0.647856 0.223230 0.115490
H118  H     H_    0.700532 0.640151 0.533956 0.039169
H119  H     H_    0.629603 0.645419 0.455658 0.124810
C107  C     C_3   0.677947 0.326836 0.970225 -0.241562
C108  C     C_3   0.613109 0.349843 0.877601 -0.343619
H120  H     H_    0.594303 0.305294 0.793174 0.268156
H121  H     H_    0.571790 0.360509 0.955857 0.209728
H122  H     H_    0.618620 0.391001 0.804894 0.135345
H123  H     H_    0.695462 0.364261 0.034801 0.053951
H124  H     H_    0.717769 0.317684 0.887081 0.119297
O53   O     O_3   0.856174 0.818710 0.275059 -0.823863
C109  C     C_3   0.869488 0.826294 0.419041 0.354324
H125  H     H_    0.922873 0.828379 0.383467 0.203265
H126  H     H_    0.765191 0.784450 0.490388 0.066410
H127  H     H_    0.858005 0.870764 0.520899 -0.023831
O54   O     O_3   0.829891 0.174017 0.756989 -0.767940
C110  C     C_3   0.843636 0.187812 0.939765 -0.311179
H128  H     H_    0.807227 0.223166 0.991776 0.159273
H129  H     H_    0.894374 0.195298 0.963403 0.236738
H130  H     H_    0.835319 0.141143 0.935587 0.527532
O55   O     O_3   0.356174 0.318710 0.275059 -0.824611
C111  C     C_3   0.369488 0.326294 0.419041 0.355673
H131  H     H_    0.422873 0.328379 0.383467 0.203260
H132  H     H_    0.265191 0.284450 0.490388 0.067776
H133  H     H_    0.358005 0.370764 0.520899 -0.023676
O56   O     O_3   0.329891 0.674018 0.756989 -0.683381
C112  C     C_3   0.343636 0.687813 0.939765 -0.187772
H134  H     H_    0.307227 0.723166 0.991776 0.105020
H135  H     H_    0.394374 0.695298 0.963403 0.260722
H136  H     H_    0.335319 0.641143 0.935587 0.212146
O57   O     O_3   0.238157 0.366590 0.070243 -0.648970
C113  C     C_3   0.220375 0.353565 0.233628 0.121437
H137  H     H_    0.257572 0.318058 0.320117 0.033718
H138  H     H_    0.172521 0.333229 0.237901 0.203559
H139  H     H_    0.217714 0.403086 0.279442 0.074814
O58   O     O_3   0.240430 0.634841 0.575651 -0.602104
C114  C     C_3   0.220480 0.646482 0.733100 0.096403
H140  H     H_    0.172517 0.666793 0.737810 0.235614
H141  H     H_    0.257513 0.640981 0.817306 0.245716
H142  H     H_    0.217701 0.596765 0.779633 0.003282
O59   O     O_3   0.738157 0.866590 0.070243 -0.648009
C115  C     C_3   0.720375 0.853565 0.233628 0.108951
H143  H     H_    0.757572 0.818058 0.320117 0.045057
H144  H     H_    0.672521 0.833229 0.237901 0.205204
H145  H     H_    0.717714 0.903086 0.279442 0.082357
O60   O     O_3   0.740430 0.134841 0.575651 -0.609083
C116  C     C_3   0.720480 0.146482 0.733100 -0.211517
H146  H     H_    0.672517 0.166793 0.737810 0.231111
H147  H     H_    0.757513 0.140982 0.817306 0.951355
H148  H     H_    0.717701 0.096765 0.779633 -0.007299
O61   O     O_3   0.998910 0.090765 0.335199 -0.620515
C117  C     C_3   0.025962 0.110939 0.194589 0.266398
H149  H     H_    0.054299 0.159792 0.201153 0.191389
H150  H     H_    0.986505 0.110470 0.089245 0.018415
H151  H     H_    0.062918 0.071332 0.180349 0.098424
O62   O     O_3   0.998116 0.910093 0.833650 -0.654605
C118  C     C_3   0.025312 0.890117 0.692452 0.235720
H152  H     H_    0.986491 0.889352 0.589234 0.026454
H153  H     H_    0.050286 0.840967 0.697969 0.115446
H154  H     H_    0.062904 0.931425 0.671615 0.123507
O63   O     O_3   0.498910 0.590765 0.335199 -0.622003
C119  C     C_3   0.525962 0.610939 0.194589 0.271467
H155  H     H_    0.554299 0.659792 0.201153 0.190634
H156  H     H_    0.486505 0.610470 0.089245 0.024769
H157  H     H_    0.562918 0.571332 0.180349 0.097040
O64   O     O_3   0.498116 0.410093 0.833650 -0.655647
C120  C     C_3   0.525312 0.390117 0.692452 0.244803
H158  H     H_    0.486491 0.389352 0.589234 0.027162
H159  H     H_    0.550286 0.340967 0.697969 0.113246
H160  H     H_    0.562904 0.431425 0.671615 0.115135
O65   O     O_3   0.110491 0.136309 0.035967 -0.719935
C121  C     C_3   0.127086 0.070625 0.981920 0.105916
H161  H     H_    0.167924 0.047459 0.049601 0.027746
H162  H     H_    0.138061 0.071051 0.861670 0.155131
H163  H     H_    0.080813 0.040930 0.987578 0.076783
O66   O     O_3   0.110374 0.862422 0.537927 -0.719617
C122  C     C_3   0.162282 0.824144 0.489869 0.127410
H164  H     H_    0.147617 0.804362 0.368068 -0.004308
H165  H     H_    0.176493 0.781856 0.567737 0.073961
H166  H     H_    0.204819 0.862510 0.494877 0.096079
O67   O     O_3   0.610491 0.636309 0.035967 -0.723899
C123  C     C_3   0.627086 0.570626 0.981920 0.108777
H167  H     H_    0.667924 0.547459 0.049601 0.027053
H168  H     H_    0.638061 0.571051 0.861670 0.156239
H169  H     H_    0.580813 0.540930 0.987578 0.074998
O68   O     O_3   0.610374 0.362422 0.537927 -0.718538
C124  C     C_3   0.662282 0.324144 0.489869 0.101598
H170  H     H_    0.647617 0.304362 0.368068 -0.004003
H171  H     H_    0.676493 0.281856 0.567737 0.091927
H172  H     H_    0.704819 0.362510 0.494877 0.102249
O69   O     O_3   0.843650 0.424376 0.920895 -0.638623
C125  C     C_3   0.844121 0.356626 0.885869 0.356521
H173  H     H_    0.851414 0.346127 0.762577 -0.166785
H174  H     H_    0.802647 0.326348 0.916316 -0.086847
H175  H     H_    0.889551 0.338710 0.952590 0.225758
O70   O     O_3   0.840901 0.577593 0.411554 -0.741792
C126  C     C_3   0.879779 0.543310 0.444708 0.408679
H176  H     H_    0.927047 0.523158 0.355002 0.150596
H177  H     H_    0.895122 0.502718 0.557598 0.138154
H178  H     H_    0.933858 0.583399 0.518837 0.175292
O71   O     O_3   0.343650 0.924376 0.920895 -0.637041
C127  C     C_3   0.344121 0.856626 0.885869 0.345595
H179  H     H_    0.351414 0.846127 0.762577 -0.155715
H180  H     H_    0.302647 0.826348 0.916316 -0.084038
H181  H     H_    0.389551 0.838710 0.952590 0.225618
O72   O     O_3   0.340900 0.077593 0.411554 -0.738131
C128  C     C_3   0.379779 0.043310 0.444708 0.394806
H182  H     H_    0.427047 0.023157 0.355002 0.164619
H183  H     H_    0.395122 0.002718 0.557598 0.139517
H184  H     H_    0.433858 0.083400 0.518837 0.175786

loop_
_geom_bond_atom_site_label_1
_geom_bond_atom_site_label_2
_ccdc_geom_bond_type
C126  H178  S    
C71   H15   S    
C51   C55   A    
O26   P13   D    
C105  C106  S    
Ba2   O38   S    
O24   P15   S    
C25   C85   A    
C37   P6    S    
C16   P15   S    
C67   H71   S    
C108  H121  S    
C45   H61   S    
C103  C104  S    
C127  H180  S    
C64   O52   S    
Ba3   P3    S    
C34   C88   A    
C100  H104  S    
Ba3   O39   S    
C94   H83   S    
C44   H52   S    
C79   H27   S    
C89   H76   S    
C5    C9    A    
C128  H183  S    
C7    C11   A    
C76   H24   S    
O52   C100  S    
O10   P10   S    
C66   C70   S    
C113  H137  S    
Ba2   O13   S    
Ba3   O20   S    
C123  H169  S    
C76   C80   S    
C69   H9    S    
Ba1   O37   S    
C77   C89   S    
C71   H11   S    
O39   P7    D    
C73   H21   S    
C66   H70   S    
C45   O9    S    
Ba4   O44   S    
C11   H47   S    
C21   C25   A    
C76   O32   S    
C120  H160  S    
O58   C114  S    
C23   C27   A    
C24   C28   A    
O60   C116  S    
C15   C19   A    
C5    P1    S    
C119  H157  S    
C13   C17   A    
Ba4   O4    S    
C77   H29   S    
C111  H131  S    
O36   P15   S    
C125  H174  S    
C89   C90   S    
C17   C101  S    
C4    O64   S    
C74   C78   S    
O63   C119  S    
Ba1   O18   S    
O47   P11   D    
C64   O68   S    
C113  H139  S    
C109  H125  S    
C90   H74   S    
C82   O34   S    
C99   H100  S    
Ba2   P2    S    
C124  H170  S    
C32   C40   A    
C125  H175  S    
C107  C108  S    
C78   H26   S    
Ba4   O15   S    
C98   H97   S    
C43   H51   S    
C115  H143  S    
C96   H90   S    
Ba3   O23   S    
O67   C123  S    
O29   P1    S    
Ba1   O21   S    
C72   H8    S    
C94   H85   S    
Ba3   O43   S    
Ba4   O24   S    
C106  H116  S    
C104  H111  S    
C18   C103  S    
O65   C121  S    
C28   C88   A    
C125  H173  S    
C2    O62   S    
C70   H10   S    
O62   C118  S    
O59   C115  S    
C29   C57   A    
C112  H134  S    
Ba2   P6    S    
O11   P11   S    
C63   H67   S    
C64   H68   S    
C39   C43   A    
C78   H30   S    
C33   C53   A    
C93   C94   S    
O68   C124  S    
C101  H108  S    
O43   P11   S    
O46   P10   D    
C75   H23   S    
C82   H34   S    
C85   O57   S    
O14   P5    S    
C87   O59   S    
C39   P8    S    
O3    P3    D    
C54   O54   S    
C128  H182  S    
C118  H154  S    
Ba3   O3    S    
C70   H6    S    
C1    H41   S    
C47   H63   S    
C111  H133  S    
C66   O5    S    
C19   C105  S    
C74   O30   S    
C75   O31   S    
C91   C92   S    
O49   C97   S    
C73   O29   S    
C62   O66   S    
C81   H1    S    
C83   H3    S    
C124  H172  S    
Ba2   O42   S    
C31   C39   A    
O35   P16   S    
O8    P8    S    
C1    C81   S    
O33   P14   S    
C112  H136  S    
C41   C49   A    
C101  C102  S    
C60   H56   S    
C12   H48   S    
C115  H145  S    
C59   H55   S    
O64   C120  S    
C123  H168  S    
C116  H147  S    
C95   H92   S    
C8    C12   A    
C6    C10   A    
C50   P9    S    
C4    C84   S    
Ba2   O17   S    
C91   H81   S    
Ba3   O16   S    
C14   P13   S    
C46   C62   S    
Ba1   O14   S    
C117  H150  S    
C122  H166  S    
C119  H156  S    
C47   C63   S    
C73   H17   S    
C121  H163  S    
O1    P1    D    
C93   H86   S    
C27   C87   A    
C110  H129  S    
C6    C26   A    
Ba3   Ba4   S    
C128  H184  S    
C117  H151  S    
O48   P12   D    
C126  H177  S    
Ba2   O2    S    
C37   C41   A    
O12   P12   S    
C14   C18   A    
C3    H39   S    
C20   C24   A    
O72   C128  S    
C52   P11   S    
C31   C59   A    
O51   C99   S    
C22   C26   A    
O50   C98   S    
O44   P12   S    
C2    C82   S    
C9    C13   A    
C69   H13   S    
C79   H31   S    
O38   P6    D    
C97   H93   S    
C32   C60   A    
O22   P13   S    
O42   P10   S    
C100  H103  S    
C35   C85   A    
C107  H123  S    
Ba4   O19   S    
C108  H122  S    
C3    H43   S    
C103  H114  S    
C40   C44   A    
C58   H54   S    
C92   H80   S    
C102  H105  S    
C51   P12   S    
O16   P7    S    
C67   O71   S    
Ba2   O14   S    
O7    P7    S    
C7    P3    S    
C24   C58   A    
C72   H12   S    
C113  H138  S    
O5    P5    S    
C84   H4    S    
O27   P16   D    
C93   H87   S    
C78   C91   S    
C4    H44   S    
O45   P9    D    
O25   P14   D    
C83   O35   S    
C26   C86   A    
O9    P9    S    
C96   H88   S    
C42   H50   S    
C11   C15   A    
C120  H159  S    
O40   P8    D    
Ba4   P4    S    
O32   P4    S    
O20   P4    S    
C122  H164  S    
C79   C93   S    
C30   C58   A    
C111  H132  S    
C38   C42   A    
C57   H53   S    
C121  H161  S    
C17   C21   A    
C34   C54   A    
C81   H33   S    
O28   P15   D    
C3    C83   S    
C10   H46   S    
Ba4   P8    S    
C102  H107  S    
C63   O51   S    
C109  H126  S    
C65   C69   S    
C48   O12   S    
O31   P3    S    
C2    H38   S    
C56   O56   S    
C1    H37   S    
C47   H59   S    
O55   C111  S    
C72   H16   S    
C41   H49   S    
C74   H22   S    
Ba4   O16   S    
O66   C122  S    
C109  H127  S    
C80   C95   S    
C68   O7    S    
C127  H179  S    
C61   H65   S    
C66   O70   S    
C49   C53   A    
C6    P2    S    
C49   P10   S    
C29   C33   A    
C52   C56   A    
C89   H77   S    
C31   C35   A    
C108  H120  S    
C104  H110  S    
C73   C77   S    
C80   H28   S    
C35   C55   A    
C42   C50   A    
C68   H72   S    
C47   O11   S    
C3    O63   S    
C65   O69   S    
C103  H113  S    
Ba1   P1    S    
C48   H64   S    
O69   C125  S    
O54   C110  S    
C86   O58   S    
O30   P2    S    
O71   C127  S    
C118  H153  S    
O70   C126  S    
C45   H57   S    
C115  H144  S    
C29   C37   A    
C48   H60   S    
C84   O36   S    
C105  H118  S    
C95   C96   S    
C90   H73   S    
C75   C79   S    
O4    P4    D    
O57   C113  S    
Ba4   O40   S    
C99   H99   S    
Ba3   P7    S    
O53   C109  S    
C18   C22   A    
C124  H171  S    
Ba1   P5    S    
C36   C86   A    
C62   O50   S    
C98   H98   S    
C110  H128  S    
O15   P8    S    
C10   C14   A    
C61   O49   S    
C127  H181  S    
O13   P6    S    
C114  H140  S    
C38   P5    S    
C83   H35   S    
C126  H176  S    
C116  H146  S    
C69   H5    S    
C45   C61   S    
C106  H115  S    
C65   H69   S    
C104  H112  S    
C96   H89   S    
C90   H75   S    
Ba1   Ba2   S    
C21   C59   A    
C91   H82   S    
C68   O72   S    
C22   C60   A    
Ba3   O15   S    
C23   C57   A    
Ba1   O13   S    
C16   C20   A    
C94   H84   S    
C30   C38   A    
C112  H135  S    
C71   H7    S    
C4    H40   S    
C19   C23   A    
C82   H2    S    
C48   C64   S    
O34   P13   S    
C12   C16   A    
C61   O65   S    
C101  H109  S    
C7    C27   A    
C8    C28   A    
C76   H20   S    
C40   P7    S    
C114  H142  S    
C33   C87   A    
C32   C36   A    
C122  H165  S    
C63   O67   S    
C1    O61   S    
C9    H45   S    
C97   H94   S    
C15   P16   S    
Ba2   O22   S    
C55   O55   S    
C70   H14   S    
C20   C107  S    
C13   P14   S    
C46   H58   S    
C99   H101  S    
Ba1   O1    S    
O19   P3    S    
C100  H102  S    
C68   C72   S    
C74   H18   S    
C107  H124  S    
C53   O53   S    
C114  H141  S    
O2    P2    D    
C77   H25   S    
C92   H79   S    
C102  H106  S    
C97   H95   S    
C62   H66   S    
Ba1   O41   S    
C123  H167  S    
C43   C51   A    
C50   C54   A    
C116  H148  S    
C81   O33   S    
C95   H91   S    
C44   C52   A    
C30   C34   A    
C106  H117  S    
O17   P1    S    
C5    C25   A    
C80   H32   S    
C120  H158  S    
C75   H19   S    
C46   O10   S    
O56   C112  S    
C98   H96   S    
O37   P5    D    
C84   H36   S    
C67   C71   S    
O23   P16   S    
C118  H152  S    
C117  H149  S    
C46   H62   S    
O21   P14   S    
O41   P9    S    
C119  H155  S    
C65   O6    S    
C105  H119  S    
C121  H162  S    
C88   O60   S    
C2    H42   S    
C110  H130  S    
C36   C56   A    
O18   P2    S    
C8    P4    S    
C67   O8    S    
O61   C117  S    
C92   H78   S    
O6    P6    S    
