data_mof_unit_14294.cif
_audit_creation_date              2012-10-26T19:05:08-0400
_audit_creation_method            fapswitch 2.2
_symmetry_space_group_name_H-M    P1
_symmetry_Int_Tables_number       1
_space_group_crystal_system       triclinic
_cell_length_a                    15.899654
_cell_length_b                    10.805301
_cell_length_c                    9.602068
_cell_angle_alpha                 88.861159
_cell_angle_beta                  90.064669
_cell_angle_gamma                 92.49135
_cell_volume                      1647.75568351

loop_
_atom_site_label
_atom_site_type_symbol
_atom_type_description
_atom_site_fract_x
_atom_site_fract_y
_atom_site_fract_z
_atom_type_partial_charge
C1    C     C_R   0.507879 0.263000 0.502443 0.576811
C2    C     C_R   0.469046 0.047929 0.883944 -0.003042
C3    C     C_R   0.421685 0.938049 0.859149 -0.085237
C4    C     C_R   0.340407 0.499875 0.499992 0.560986
C5    C     C_R   0.427408 0.879492 0.732311 -0.110105
C6    C     C_R   0.474735 0.935139 0.622256 0.022773
C7    C     C_R   0.504559 0.058392 0.635468 0.051505
C8    C     C_R   0.519183 0.128796 0.509991 0.028810
C9    C     C_R   0.531850 0.067354 0.385402 -0.088389
C10   C     C_R   0.522786 0.939529 0.381445 -0.100559
C11   C     C_R   0.493359 0.872315 0.498934 0.017240
C12   C     C_3   0.948105 0.440217 0.634835 -0.185732
C13   C     C_R   0.608703 0.668591 0.140265 -0.132180
C14   C     C_R   0.658961 0.757715 0.068339 -0.055643
C15   C     C_R   0.660234 0.756835 0.922293 -0.005334
C16   C     C_R   0.495562 0.737476 0.499037 0.543821
C17   C     C_R   0.609031 0.668878 0.853475 -0.081871
C18   C     C_R   0.553530 0.583120 0.923893 0.124624
C19   C     C_R   0.553635 0.582797 0.072888 0.144286
C20   C     C_R   0.448266 0.422222 0.075515 -0.007644
C21   C     C_R   0.448422 0.422027 0.927639 -0.023981
C22   C     C_R   0.659556 0.500630 0.500014 0.563519
C23   C     C_3   0.916761 0.503271 0.498441 0.017003
C24   C     C_3   0.046061 0.447723 0.641430 -0.078653
C25   C     C_3   0.047574 0.426186 0.377819 -0.188850
C26   C     C_3   0.949992 0.432349 0.370277 -0.078403
C27   C     C_1   0.748990 0.501639 0.500092 0.004587
C28   C     C_3   0.083129 0.503471 0.501350 -0.007368
C29   C     C_2   0.915573 0.722862 0.386549 0.230978
C30   C     C_2   0.589313 0.192204 0.802610 0.290650
C31   C     C_2   0.467305 0.100172 0.025805 0.191415
C32   C     C_2   0.081840 0.324980 0.684334 0.232655
C33   C     C_2   0.707277 0.850696 0.152188 0.216126
C34   C     C_3   0.955031 0.639599 0.495202 -0.099857
C35   C     C_2   0.717829 0.841394 0.838843 0.274643
C36   C     C_2   0.906977 0.305879 0.351224 0.230124
C37   C     C_2   0.095549 0.730404 0.577657 0.223276
C38   C     C_3   0.053119 0.638899 0.479738 -0.085296
C39   C     C_1   0.824394 0.502496 0.499658 -0.057465
C40   C     C_1   0.175524 0.502285 0.500288 -0.047396
C41   C     C_1   0.250926 0.501094 0.499910 0.003420
C42   C     C_R   0.516668 0.104474 0.772804 0.007166
Cu1   Cu    Cu3+1 0.499990 0.499990 0.640660 0.950632
Cu2   Cu    Cu3+1 0.500010 0.500010 0.359340 0.954772
H1    H     H_    0.922507 0.343028 0.642815 0.223769
H2    H     H_    0.071525 0.669149 0.371919 0.203698
H3    H     H_    0.870287 0.788887 0.418954 0.144357
H4    H     H_    0.549288 0.118448 0.291084 0.161332
H5    H     H_    0.591762 0.247400 0.895250 0.086832
H6    H     H_    0.508101 0.177929 0.054533 0.083779
H7    H     H_    0.129219 0.322688 0.765703 0.108403
H8    H     H_    0.724638 0.827781 0.258731 0.122791
H9    H     H_    0.773433 0.884806 0.885430 0.184565
H10   H     H_    0.616347 0.669756 0.744090 0.217982
H11   H     H_    0.406430 0.357643 0.873792 0.123334
H12   H     H_    0.064400 0.512135 0.726138 0.064204
H13   H     H_    0.075140 0.463278 0.278073 0.101537
H14   H     H_    0.067722 0.329227 0.387304 0.218273
H15   H     H_    0.857863 0.294744 0.273305 0.125788
H16   H     H_    0.084511 0.722905 0.689010 0.113964
H17   H     H_    0.939480 0.680411 0.597304 0.089712
H18   H     H_    0.922777 0.487480 0.726870 0.096682
H19   H     H_    0.383787 0.893008 0.940690 0.176574
H20   H     H_    0.392238 0.792411 0.719985 0.155552
H21   H     H_    0.537491 0.893729 0.285751 0.154619
H22   H     H_    0.405946 0.358251 0.131979 0.146099
H23   H     H_    0.613930 0.671878 0.250008 0.173802
H24   H     H_    0.934808 0.486087 0.274408 0.141388
N1    N     N_R   0.500800 0.501210 0.147910 -0.239947
N2    N     N_R   0.500820 0.501290 0.852040 -0.251015
O1    O     O_R   0.499990 0.319640 0.618810 -0.498595
O2    O     O_2   0.649063 0.202495 0.722726 -0.459788
O3    O     O_2   0.418206 0.057222 0.113728 -0.510093
O4    O     O_2   0.060251 0.228836 0.627147 -0.429979
O5    O     O_2   0.723882 0.955375 0.107317 -0.498831
O6    O     O_2   0.704311 0.862490 0.715551 -0.509859
O7    O     O_2   0.924559 0.216761 0.424000 -0.424362
O8    O     O_2   0.142186 0.814360 0.532107 -0.455862
O9    O     O_R   0.500000 0.319660 0.381240 -0.502816
O10   O     O_R   0.379430 0.499990 0.618840 -0.504285
O11   O     O_R   0.379440 0.500020 0.381260 -0.485569
O12   O     O_R   0.500000 0.680340 0.618760 -0.527519
O13   O     O_R   0.500010 0.680360 0.381190 -0.523445
O14   O     O_R   0.620560 0.499980 0.618740 -0.500131
O15   O     O_R   0.620570 0.500010 0.381160 -0.522699
O16   O     O_2   0.931943 0.715421 0.262868 -0.513057

loop_
_geom_bond_atom_site_label_1
_geom_bond_atom_site_label_2
_ccdc_geom_bond_type
C18   N2    A    
C35   H9    S    
C1    C8    S    
C36   H15   S    
C14   C33   S    
C7    C8    A    
C25   C28   S    
C12   C23   S    
C1    O1    A    
C29   H3    S    
C20   H22   S    
C4    O10   A    
C36   O7    D    
C32   O4    D    
C5    C6    A    
C22   O15   A    
C4    C41   S    
C28   C40   S    
C18   C19   A    
C7    C42   A    
C23   C26   S    
C33   O5    D    
C4    O11   A    
C27   C39   T    
C8    C9    A    
C9    C10   A    
Cu2   O13   S    
C13   C14   A    
Cu1   O14   S    
C25   H13   S    
C15   C35   S    
C35   O6    D    
C13   C19   A    
Cu2   O11   S    
C6    C11   A    
C21   H11   S    
C25   C26   S    
C29   C34   S    
C16   O13   A    
C5    H20   S    
C2    C31   S    
C33   H8    S    
C22   O14   A    
Cu1   Cu2   S    
C24   C32   S    
C32   H7    S    
C37   C38   S    
C12   H18   S    
C11   C16   S    
C28   C38   S    
C23   C34   S    
C16   O12   A    
C17   C18   A    
Cu2   N1    S    
C29   O16   D    
C26   C36   S    
C40   C41   T    
C30   H5    S    
Cu1   N2    S    
C22   C27   S    
C1    O9    A    
C20   N1    A    
C19   N1    A    
C25   H14   S    
C31   H6    S    
Cu2   O15   S    
C13   H23   S    
C10   H21   S    
C15   C17   A    
Cu1   O1    S    
C34   C38   S    
Cu2   O9    S    
C24   C28   S    
C12   H1    S    
C3    C5    A    
C30   O2    D    
C6    C7    A    
C3    H19   S    
C24   H12   S    
C37   O8    D    
C12   C24   S    
C21   N2    A    
C26   H24   S    
C2    C3    A    
Cu1   O10   S    
C2    C42   A    
C23   C39   S    
C34   H17   S    
C38   H2    S    
C37   H16   S    
C31   O3    D    
C10   C11   A    
C20   C21   A    
C9    H4    S    
Cu1   O12   S    
C14   C15   A    
C30   C42   S    
C17   H10   S    
