data_mof_unit_45154.cif
_audit_creation_date              2012-12-11T19:41:49-0500
_audit_creation_method            fapswitch 2.2
_symmetry_space_group_name_H-M    P1
_symmetry_Int_Tables_number       1
_space_group_crystal_system       triclinic
_cell_length_a                    8.207758
_cell_length_b                    15.041576
_cell_length_c                    27.024166
_cell_angle_alpha                 98.225012
_cell_angle_beta                  92.968157
_cell_angle_gamma                 81.108349
_cell_volume                      3260.83671287

loop_
_atom_site_label
_atom_site_type_symbol
_atom_type_description
_atom_site_fract_x
_atom_site_fract_y
_atom_site_fract_z
_atom_type_partial_charge
Ba1   Ba    Ba6+2 0.860050 0.456430 0.522530 1.642290
Ba2   Ba    Ba6+2 0.329780 0.543490 0.477460 1.637204
C1    C     C_3   0.765470 0.120157 0.651643 0.240266
C2    C     C_R   0.902075 0.590394 0.180032 0.573357
C3    C     C_2   0.750850 0.561694 0.273908 -0.084929
C4    C     C_3   0.155789 0.265333 0.654889 0.337486
C5    C     C_3   0.730432 0.590665 0.329181 -0.047844
C6    C     C_1   0.982379 0.485153 0.342886 0.033235
C7    C     C_2   0.022832 0.480988 0.295166 -0.103530
C8    C     C_2   0.899125 0.518684 0.257100 0.193815
C9    C     C_R   0.016950 0.506032 0.102474 -0.079673
C10   C     C_R   0.054323 0.428470 0.127083 -0.035828
C11   C     C_R   0.130739 0.347560 0.100246 -0.060887
C12   C     C_3   0.688624 0.213764 0.639010 0.324327
C13   C     C_R   0.940035 0.587302 0.129338 -0.024261
C14   C     C_2   0.842960 0.531853 0.361031 -0.289725
C15   C     C_2   0.353292 0.475919 0.640294 -0.275363
C16   C     C_3   0.144219 0.241287 0.707243 -0.317779
C17   C     C_R   0.171833 0.416036 0.972832 0.020234
C18   C     C_R   0.055990 0.578042 0.975485 0.020633
C19   C     C_R   0.133097 0.495269 0.948721 0.049103
C20   C     C_R   0.248251 0.335494 0.944298 -0.102057
C21   C     C_R   0.285350 0.332892 0.894407 -0.062427
C22   C     C_R   0.248418 0.410323 0.870270 -0.023435
C23   C     C_3   0.494977 0.671701 0.630662 0.294706
C24   C     C_R   0.172119 0.491668 0.897235 -0.079834
C25   C     C_R   0.135416 0.569390 0.872740 -0.035234
C26   C     C_R   0.175935 0.564890 0.821909 0.595715
C27   C     C_R   0.286439 0.407361 0.819570 0.572442
C28   C     C_3   0.217213 0.264580 0.412881 0.315272
C29   C     C_2   0.438615 0.437156 0.725814 -0.087286
C30   C     C_3   0.460023 0.411501 0.670349 -0.053543
C31   C     C_1   0.209132 0.517279 0.657506 0.029806
C32   C     C_2   0.166771 0.518466 0.704805 -0.105689
C33   C     C_2   0.290007 0.479632 0.742699 0.196106
C34   C     C_3   0.485727 0.694172 0.687197 -0.374559
C35   C     C_R   0.133336 0.419644 0.024250 0.020362
C36   C     C_R   0.055957 0.502381 0.050981 0.049346
C37   C     C_R   0.016928 0.581557 0.026832 0.020076
C38   C     C_R   0.169455 0.343093 0.050236 -0.099390
C39   C     C_R   0.902322 0.664582 0.105110 -0.060460
C40   C     C_3   0.237760 0.161981 0.398263 -0.386241
C41   C     C_R   0.020807 0.654771 0.949619 -0.099444
C42   C     C_R   0.059702 0.650384 0.899650 -0.062171
C43   C     C_R   0.939530 0.661960 0.055247 -0.101841
C44   C     C_R   0.843421 0.831268 0.466269 -0.004324
C45   C     C_3   0.032081 0.736950 0.344773 0.337577
C46   C     C_R   0.777514 0.924601 0.470317 -0.034597
C47   C     C_R   0.643071 0.112002 0.480440 -0.036527
C48   C     C_R   0.784305 0.077610 0.452218 -0.045571
C49   C     C_R   0.852237 0.986223 0.448222 -0.101777
C50   C     C_R   0.578049 0.205721 0.487601 0.050992
C51   C     C_R   0.435744 0.235697 0.515171 -0.305364
C52   C     C_3   0.980475 0.736085 0.586618 0.299604
C53   C     C_R   0.617258 0.803714 0.513778 0.017314
C54   C     C_R   0.551180 0.896240 0.519142 -0.015935
C55   C     C_R   0.630478 0.956981 0.496916 0.028272
C56   C     C_3   0.045364 0.761096 0.292532 -0.311917
C57   C     C_R   0.407032 0.929467 0.545774 -0.032548
C58   C     C_R   0.338268 0.019811 0.549033 -0.085722
C59   C     C_R   0.415969 0.081853 0.528368 -0.006612
C60   C     C_R   0.563938 0.050501 0.502218 0.032621
C61   C     C_R   0.349895 0.174459 0.533309 -0.013542
C62   C     C_R   0.758000 0.771858 0.486030 -0.302946
C63   C     C_3   0.975042 0.838254 0.600278 -0.368490
C64   C     C_3   0.693520 0.344231 0.372118 0.298642
C65   C     C_3   0.696703 0.322420 0.315430 -0.361062
C66   C     C_3   0.545376 0.048567 0.669042 0.253508
C67   C     C_3   0.487570 0.788098 0.369424 0.363303
C68   C     C_3   0.595217 0.961364 0.692473 -0.192799
C69   C     C_3   0.467000 0.949512 0.728964 -0.476384
C70   C     C_3   0.433091 0.881207 0.353233 -0.368689
C71   C     C_R   0.013868 0.433097 0.177955 0.597111
H1    H     H_    0.692161 0.212419 0.597805 0.036363
H2    H     H_    0.814140 0.362362 0.386415 0.011583
H3    H     H_    0.595108 0.402637 0.381924 0.079801
H4    H     H_    0.885091 0.100010 0.632791 0.097873
H5    H     H_    0.799933 0.267251 0.304387 0.134717
H6    H     H_    0.713587 0.383385 0.298745 0.071184
H7    H     H_    0.578335 0.300471 0.300639 0.133490
H8    H     H_    0.558496 0.226796 0.650609 -0.055538
H9    H     H_    0.374059 0.654395 0.615521 0.021249
H10   H     H_    0.592479 0.612281 0.621905 0.073331
H11   H     H_    0.383144 0.750355 0.697079 0.131693
H12   H     H_    0.324026 0.141110 0.366944 0.127814
H13   H     H_    0.463335 0.633734 0.703563 0.080046
H14   H     H_    0.603721 0.714871 0.703230 0.129784
H15   H     H_    0.794365 0.122398 0.692551 0.017144
H16   H     H_    0.124782 0.304491 0.734199 0.122875
H17   H     H_    0.118972 0.673605 0.348383 0.094919
H18   H     H_    0.903920 0.725622 0.349418 -0.050405
H19   H     H_    0.156279 0.793827 0.290042 0.147672
H20   H     H_    0.056980 0.698265 0.265259 0.120673
H21   H     H_    0.934308 0.808389 0.282852 0.120884
H22   H     H_    0.624669 0.775168 0.369459 -0.067442
H23   H     H_    0.287816 0.126969 0.430365 0.054547
H24   H     H_    0.445635 0.790010 0.408064 0.076957
H25   H     H_    0.490813 0.933146 0.378680 0.065647
H26   H     H_    0.297104 0.899551 0.354795 0.148905
H27   H     H_    0.064221 0.326644 0.650789 0.103743
H28   H     H_    0.471882 0.881179 0.314468 0.122639
H29   H     H_    0.146568 0.451687 0.283672 0.129479
H30   H     H_    0.161450 0.286600 0.117932 0.121871
H31   H     H_    0.534327 0.410554 0.751314 0.115532
H32   H     H_    0.343905 0.269077 0.874660 0.118903
H33   H     H_    0.281671 0.272366 0.959200 0.067691
H34   H     H_    0.116412 0.140642 0.386431 0.120739
H35   H     H_    0.228144 0.277803 0.033161 0.068152
H36   H     H_    0.654813 0.587253 0.248202 0.118552
H37   H     H_    0.843028 0.728304 0.124761 0.122287
H38   H     H_    0.963025 0.720202 0.966774 0.067849
H39   H     H_    0.281363 0.280507 0.650456 -0.058210
H40   H     H_    0.029706 0.711483 0.882056 0.120197
H41   H     H_    0.042876 0.547487 0.716260 0.129737
H42   H     H_    0.905119 0.724937 0.040259 0.068453
H43   H     H_    0.823415 0.543699 0.400983 0.084021
H44   H     H_    0.385773 0.476818 0.601968 0.077595
H45   H     H_    0.854915 0.720850 0.577076 0.000016
H46   H     H_    0.845844 0.120370 0.432990 0.103171
H47   H     H_    0.962878 0.964636 0.427065 0.108268
H48   H     H_    0.225362 0.040061 0.569142 0.098552
H49   H     H_    0.343276 0.886467 0.564157 0.090361
H50   H     H_    0.385214 0.307105 0.519699 0.074266
H51   H     H_    0.038599 0.204275 0.709384 0.130485
H52   H     H_    0.807534 0.700338 0.482555 0.068763
H53   H     H_    0.258986 0.197812 0.717738 0.109498
H54   H     H_    0.339216 0.285154 0.422886 0.002191
H55   H     H_    0.135935 0.283144 0.445466 0.067010
H56   H     H_    0.060060 0.713152 0.553923 0.076326
H57   H     H_    0.423856 0.045968 0.649381 0.078652
H58   H     H_    0.527037 0.108140 0.699011 0.029813
H59   H     H_    0.607834 0.902187 0.662500 0.158096
H60   H     H_    0.716315 0.963532 0.712649 0.114647
H61   H     H_    0.450548 0.008543 0.759014 0.140535
H62   H     H_    0.508893 0.887109 0.746420 0.149525
H63   H     H_    0.346806 0.942982 0.708958 0.135737
H64   H     H_    0.893697 0.863596 0.632385 0.132189
H65   H     H_    0.927071 0.873886 0.568182 0.080082
H66   H     H_    0.101068 0.854104 0.610738 0.110265
N1    N     N_R   0.939098 0.513766 0.204296 -0.421907
N2    N     N_R   0.249949 0.484165 0.795450 -0.421602
O1    O     O_2   0.906480 0.548660 0.619050 -0.458832
O2    O     O_2   0.184554 0.824546 0.471869 -0.487021
O3    O     O_3   0.072699 0.808405 0.380119 -0.610775
O4    O     O_3   0.138490 0.548590 0.558870 -0.495565
O5    O     O_3   0.572560 0.389960 0.472890 -0.488860
O6    O     O_2   0.345660 0.723580 0.528500 -0.465519
O7    O     O_3   0.532084 0.747311 0.610985 -0.653289
O8    O     O_2   0.403640 0.546037 0.323769 -0.498870
O9    O     O_3   0.418023 0.721513 0.336530 -0.594040
O10   O     O_2   0.043070 0.364765 0.198433 -0.597273
O11   O     O_2   0.351450 0.335630 0.796851 -0.626327
O12   O     O_3   0.663290 0.267451 0.391822 -0.640065
O13   O     O_2   0.836627 0.662137 0.202630 -0.621117
O14   O     O_2   0.147517 0.633402 0.801567 -0.600079
O15   O     O_3   0.686300 0.382310 0.585700 -0.470974
O16   O     O_2   0.784905 0.456800 0.675707 -0.495355
O17   O     O_3   0.040827 0.694118 0.628110 -0.627155
O18   O     O_3   0.776532 0.280864 0.664300 -0.626168
O19   O     O_2   0.844040 0.276390 0.471470 -0.468560
O20   O     O_3   0.101510 0.335500 0.560330 -0.491251
O21   O     O_2   0.009167 0.175541 0.527687 -0.479773
O22   O     O_3   0.662248 0.054811 0.633324 -0.676308
O23   O     O_3   0.122655 0.192021 0.619624 -0.620837
O24   O     O_2   0.283210 0.451310 0.380920 -0.463159
O25   O     O_3   0.051220 0.451340 0.441120 -0.497568
O26   O     O_3   0.503410 0.617620 0.414290 -0.475023
O27   O     O_3   0.149103 0.305856 0.371879 -0.624097
O28   O     O_3   0.617150 0.609960 0.527100 -0.476678
O29   O     O_3   0.088210 0.664420 0.439670 -0.489872
P1    P     P_3+3 0.071950 0.575820 0.612140 0.990199
P2    P     P_3+3 0.664370 0.290050 0.457240 0.976438
P3    P     P_3+3 0.145629 0.218671 0.559677 0.937062
P4    P     P_3+3 0.117760 0.424110 0.387850 0.990350
P5    P     P_3+3 0.046847 0.782422 0.439984 0.935382
P6    P     P_3+3 0.677663 0.386235 0.650227 0.942717
P7    P     P_3+3 0.531317 0.722664 0.545719 0.936582
P8    P     P_3+3 0.513180 0.614972 0.349908 0.945249

loop_
_geom_bond_atom_site_label_1
_geom_bond_atom_site_label_2
_ccdc_geom_bond_type
C2    O13   D    
C53   C54   A    
O4    P1    S    
O7    P7    S    
O5    P2    S    
Ba1   O15   S    
Ba1   O4    S    
O2    P5    D    
C19   C24   A    
C50   P2    S    
C69   H61   S    
C46   C55   A    
O21   P3    D    
C70   H25   S    
Ba2   O4    S    
O27   P4    S    
C30   P6    S    
C24   C25   A    
C41   H38   S    
C40   H23   S    
C67   O9    S    
C12   H1    S    
C17   C19   A    
C56   H20   S    
C22   C24   A    
C32   C33   S    
C35   C38   A    
C69   H62   S    
C36   C37   A    
C6    P4    S    
O17   P1    S    
C52   O17   S    
C70   H28   S    
C21   H32   S    
C54   C55   A    
O12   P2    S    
Ba1   Ba2   S    
C59   C61   A    
O6    P7    D    
C22   C27   A    
C11   C38   A    
Ba1   O1    S    
C17   C35   A    
C9    C13   A    
C25   C42   A    
C46   C49   A    
C6    C7    D    
C26   O14   D    
C21   C22   A    
C67   H24   S    
C68   C69   S    
C11   H30   S    
C40   H34   S    
Ba2   O25   S    
C15   H44   S    
C37   C43   A    
C63   H64   S    
C57   H49   S    
C64   C65   S    
Ba1   O20   S    
C57   C58   A    
C6    C14   D    
C10   C71   A    
C71   O10   D    
C53   P7    S    
Ba1   O5    S    
C59   C60   A    
C65   H5    S    
C15   C31   D    
C14   H43   S    
O28   P7    S    
C49   H47   S    
C61   P3    S    
C44   C46   A    
O29   P5    S    
C34   H14   S    
C4    C16   S    
C28   H55   S    
O25   P4    S    
C48   H46   S    
C55   C60   A    
C17   C20   A    
C65   H6    S    
C13   C39   A    
C51   H50   S    
C69   H63   S    
C52   C63   S    
C18   C37   A    
C7    H29   S    
C23   C34   S    
C34   H13   S    
Ba2   O6    S    
C20   H33   S    
C45   O3    S    
Ba1   P1    S    
C5    P8    S    
C44   C62   A    
C58   C59   A    
C4    H27   S    
C67   C70   S    
C41   C42   A    
C35   C36   A    
C2    N1    Am   
O20   P3    S    
C43   H42   S    
C29   C30   S    
C47   C50   A    
C27   N2    Am   
C53   C62   A    
C68   H59   S    
C31   C32   D    
O19   P2    D    
O23   P3    S    
C48   C49   A    
C40   H12   S    
C18   C19   A    
C66   H57   S    
Ba2   O24   S    
C1    C12   S    
C33   N2    S    
C63   H65   S    
C5    C14   S    
C71   N1    Am   
C4    O23   S    
C42   H40   S    
C62   H52   S    
C39   H37   S    
C8    N1    S    
C23   H9    S    
C45   H17   S    
C29   C33   D    
C32   H41   S    
C31   P1    S    
C18   C41   A    
C50   C51   A    
C3    C5    S    
C7    C8    S    
C66   O22   S    
C52   H56   S    
C28   H54   S    
O15   P6    S    
C47   C60   A    
C1    H15   S    
C44   P5    S    
C16   H16   S    
C45   H18   S    
Ba1   O19   S    
C65   H7    S    
C67   H22   S    
C64   O12   S    
C9    C10   A    
C66   H58   S    
C1    O22   S    
Ba2   O5    S    
Ba1   P2    S    
C54   C57   A    
C38   H35   S    
C12   O18   S    
O18   P6    S    
C29   H31   S    
C2    C13   A    
C52   H45   S    
O24   P4    D    
C28   O27   S    
C3    C8    D    
Ba2   O29   S    
O9    P8    S    
Ba2   P4    S    
C27   O11   D    
C51   C61   A    
C3    H36   S    
Ba1   O25   S    
C34   H11   S    
C68   H60   S    
C64   H2    S    
O3    P5    S    
Ba1   O28   S    
O8    P8    D    
C23   O7    S    
C56   H21   S    
C58   H48   S    
Ba2   O28   S    
O16   P6    D    
C63   H66   S    
O26   P8    S    
C10   C11   A    
C66   C68   S    
C47   C48   A    
C25   C26   A    
C23   H10   S    
C15   C30   S    
C39   C43   A    
C20   C21   A    
C28   C40   S    
C9    C36   A    
C4    H39   S    
C26   N2    Am   
C12   H8    S    
C56   H19   S    
Ba2   O26   S    
C16   H53   S    
C64   H3    S    
C16   H51   S    
O1    P1    D    
C45   C56   S    
C70   H26   S    
C1    H4    S    
