data_mof_unit_25669.cif
_audit_creation_date              2012-12-10T16:59:20-0500
_audit_creation_method            fapswitch 2.2
_symmetry_space_group_name_H-M    P1
_symmetry_Int_Tables_number       1
_space_group_crystal_system       triclinic
_cell_length_a                    7.736135
_cell_length_b                    8.557224
_cell_length_c                    27.725958
_cell_angle_alpha                 90.937949
_cell_angle_beta                  86.319701
_cell_angle_gamma                 93.697081
_cell_volume                      1827.71908549

loop_
_atom_site_label
_atom_site_type_symbol
_atom_type_description
_atom_site_fract_x
_atom_site_fract_y
_atom_site_fract_z
_atom_type_partial_charge
C1    C     C_R   0.545908 0.794847 0.498735 0.974502
C2    C     C_R   0.532015 0.650892 0.127480 -0.128652
C3    C     C_R   0.510680 0.496612 0.646391 -0.143358
C4    C     C_R   0.489320 0.503383 0.353609 -0.143358
C5    C     C_R   0.551478 0.641046 0.024688 -0.012908
C6    C     C_R   0.448525 0.358930 0.975312 -0.012911
C7    C     C_R   0.433559 0.366070 0.026590 0.080178
C8    C     C_R   0.566452 0.633904 0.973410 0.080180
C9    C     C_R   0.487534 0.506670 0.051019 0.085022
C10   C     C_R   0.512472 0.493305 0.948981 0.085022
C11   C     C_R   0.596666 0.779545 0.050646 -0.274390
C12   C     C_R   0.454092 0.205153 0.501265 0.974500
C13   C     C_R   0.403325 0.220434 0.949354 -0.274389
C14   C     C_R   0.589833 0.785339 0.100767 0.442448
C15   C     C_R   0.410163 0.214639 0.899233 0.442451
C16   C     C_R   0.503113 0.499566 0.593918 0.916454
C17   C     C_R   0.496887 0.500434 0.406082 0.916454
C18   C     C_R   0.636415 0.762516 0.945449 -0.198646
C19   C     C_R   0.363610 0.237454 0.054551 -0.198646
C20   C     C_2   0.570182 0.958312 0.498002 -0.363946
C21   C     C_2   0.429818 0.041688 0.501998 -0.363946
C22   C     C_R   0.589405 0.617291 0.821036 0.607243
C23   C     C_R   0.522581 0.487389 0.897644 -0.108946
C24   C     C_R   0.410603 0.382684 0.178964 0.607212
C25   C     C_R   0.473465 0.352072 0.821584 0.597100
C26   C     C_R   0.526540 0.647904 0.178416 0.597131
C27   C     C_R   0.365820 0.501228 0.726222 -0.140299
C28   C     C_R   0.634173 0.498703 0.273777 -0.140306
C29   C     C_R   0.358320 0.505551 0.676378 -0.171370
C30   C     C_R   0.641671 0.494388 0.323621 -0.171368
C31   C     C_R   0.670472 0.483428 0.666925 -0.294750
C32   C     C_R   0.329538 0.516613 0.333074 -0.294753
C33   C     C_R   0.677628 0.479140 0.716818 0.715706
C34   C     C_R   0.477425 0.512586 0.102356 -0.108946
C35   C     C_R   0.322383 0.520892 0.283181 0.715700
C36   C     C_R   0.525163 0.488025 0.746391 0.154393
C37   C     C_R   0.474840 0.511952 0.253608 0.154410
C38   C     C_R   0.586660 0.620880 0.871352 -0.020392
C39   C     C_R   0.413350 0.379094 0.128648 -0.020386
C40   C     C_R   0.645533 0.755883 0.895556 -0.048503
C41   C     C_R   0.354488 0.244088 0.104444 -0.048498
C42   C     C_R   0.467987 0.349085 0.872520 -0.128647
Cl1   Cl    Cl    0.656803 0.967564 0.126798 -0.529738
Cl2   Cl    Cl    0.343190 0.032415 0.873202 -0.529731
F1    F     F_    0.832162 0.465889 0.736463 -0.653135
F2    F     F_    0.167859 0.534191 0.263536 -0.653127
H1    H     H_    0.789688 0.476260 0.644502 0.185498
H2    H     H_    0.248129 0.508465 0.749292 0.211717
H3    H     H_    0.637607 0.888123 0.033195 0.174230
H4    H     H_    0.362367 0.111861 0.966805 0.174230
H5    H     H_    0.687307 0.871091 0.960572 0.150545
H6    H     H_    0.312735 0.128874 0.039428 0.150540
H7    H     H_    0.702700 0.009481 0.494187 0.182151
H8    H     H_    0.297299 0.990519 0.505813 0.182152
H9    H     H_    0.210329 0.523826 0.355497 0.185505
H10   H     H_    0.014068 0.383310 0.463443 0.194702
H11   H     H_    0.985932 0.616690 0.536557 0.194701
H12   H     H_    0.698501 0.858486 0.875952 0.214768
H13   H     H_    0.301527 0.141483 0.124048 0.214774
H14   H     H_    0.766360 0.484307 0.338579 0.196239
H15   H     H_    0.233623 0.515595 0.661421 0.196243
H16   H     H_    0.751857 0.491425 0.250708 0.211703
N1    N     N_R   0.531352 0.485153 0.797576 -0.351374
N2    N     N_R   0.468653 0.514823 0.202424 -0.351373
N3    N     N_2   0.950320 0.457960 0.486880 -0.174103
N4    N     N_2   0.049680 0.542040 0.513120 -0.174103
O1    O     O_R   0.389250 0.738570 0.503220 -0.612540
O2    O     O_2   0.352942 0.254422 0.204439 -0.489287
O3    O     O_2   0.578873 0.775149 0.204225 -0.445526
O4    O     O_2   0.421132 0.224827 0.795775 -0.445537
O5    O     O_R   0.610750 0.261430 0.496780 -0.612541
O6    O     O_R   0.678390 0.711630 0.494810 -0.629240
O7    O     O_R   0.321610 0.288370 0.505190 -0.629241
O8    O     O_R   0.355440 0.513440 0.575450 -0.619909
O9    O     O_R   0.644560 0.486560 0.424550 -0.619909
O10   O     O_R   0.644590 0.486500 0.567040 -0.630437
O11   O     O_R   0.355410 0.513500 0.432960 -0.630438
O12   O     O_2   0.647064 0.745555 0.795561 -0.489274
Zn1   Zn    Zn3+2 0.306940 0.517990 0.505620 0.958536
Zn2   Zn    Zn3+2 0.693060 0.482010 0.494380 0.958536

loop_
_geom_bond_atom_site_label_1
_geom_bond_atom_site_label_2
_ccdc_geom_bond_type
C27   H2    S    
C27   C29   A    
C33   F1    S    
H11   N4    S    
C33   C36   A    
C39   C41   A    
N4    Zn1   S    
C23   C42   A    
C16   O8    A    
C35   C37   A    
C15   Cl2   S    
C5    C11   A    
C21   H8    S    
C11   C14   A    
H10   N3    S    
C22   C38   A    
C24   C39   A    
C25   N1    A    
C3    C29   A    
C26   N2    A    
C18   C40   A    
C22   N1    A    
C19   H6    S    
C30   H14   S    
C31   C33   A    
C36   N1    S    
O9    Zn2   S    
C32   H9    S    
C2    C34   A    
C24   N2    A    
N3    Zn2   S    
C31   H1    S    
C12   O7    A    
O5    Zn2   S    
C18   H5    S    
O11   Zn1   S    
C29   H15   S    
C1    O6    A    
C40   H12   S    
C34   C39   A    
C32   C35   A    
O1    Zn1   S    
C22   O12   S    
C12   C21   S    
C8    C18   A    
C5    C9    A    
C11   H3    S    
C17   O11   A    
O7    Zn1   S    
C2    C26   A    
C3    C31   A    
C41   H13   S    
C4    C32   A    
C4    C17   S    
C12   O5    A    
C7    C19   A    
O8    Zn1   S    
C13   C15   A    
C9    C34   A    
C10   C23   A    
C37   N2    S    
C7    C9    A    
C1    C20   S    
C16   O10   A    
O10   Zn2   S    
C15   C42   A    
C20   H7    S    
C25   C42   A    
C6    C10   A    
C5    C8    A    
C6    C7    A    
C27   C36   A    
C23   C38   A    
C28   C30   A    
O6    Zn2   S    
C6    C13   A    
C38   C40   A    
C28   C37   A    
C1    O1    A    
C2    C14   A    
C24   O2    S    
C13   H4    S    
C20   C21   D    
C8    C10   A    
N3    N4    D    
C17   O9    A    
C26   O3    S    
C25   O4    S    
C35   F2    S    
C4    C30   A    
C3    C16   S    
C19   C41   A    
C14   Cl1   S    
C28   H16   S    
