data_mof_unit_5081.cif
_audit_creation_date              2012-12-11T16:22:02-0500
_audit_creation_method            fapswitch 2.2
_symmetry_space_group_name_H-M    P1
_symmetry_Int_Tables_number       1
_space_group_crystal_system       triclinic
_cell_length_a                    13.497371
_cell_length_b                    14.040411
_cell_length_c                    30.002072
_cell_angle_alpha                 97.738523
_cell_angle_beta                  90.373324
_cell_angle_gamma                 118.746944
_cell_volume                      4922.85891231

loop_
_atom_site_label
_atom_site_type_symbol
_atom_type_description
_atom_site_fract_x
_atom_site_fract_y
_atom_site_fract_z
_atom_type_partial_charge
C1    C     C_R   0.723474 0.099953 0.568499 0.535153
C2    C     C_R   0.327852 0.658478 0.673525 0.003812
C3    C     C_R   0.234341 0.635090 0.645174 -0.110718
C4    C     C_R   0.247660 0.656881 0.600588 -0.012915
C5    C     C_R   0.243201 0.661458 0.834108 0.012978
C6    C     C_R   0.235518 0.641359 0.878809 -0.104074
C7    C     C_R   0.373606 0.577857 0.869509 -0.139298
C8    C     C_R   0.381455 0.597231 0.825052 -0.137336
C9    C     C_R   0.313951 0.635268 0.806849 0.048731
C10   C     C_1   0.314957 0.641983 0.759653 -0.038995
C11   C     C_1   0.317742 0.647493 0.720128 -0.047439
C12   C     C_R   0.382400 0.784524 0.549903 0.524396
C13   C     C_R   0.297157 0.595508 0.896190 0.005914
C14   C     C_3   0.226481 0.193085 0.721446 -0.114384
C15   C     C_3   0.196236 0.098463 0.749455 -0.110156
C16   C     C_1   0.288873 0.204636 0.874478 -0.017469
C17   C     C_1   0.357709 0.140733 0.611802 -0.028419
C18   C     C_3   0.322457 0.273719 0.758355 -0.087865
C19   C     C_3   0.293055 0.178623 0.785168 0.041585
C20   C     C_3   0.405911 0.243967 0.733721 0.034921
C21   C     C_3   0.311289 0.164437 0.697416 0.060512
C22   C     C_3   0.377410 0.150114 0.761113 -0.089867
C23   C     C_R   0.396471 0.119350 0.569198 0.541261
C24   C     C_3   0.280986 0.069642 0.724675 -0.116586
C25   C     C_1   0.290045 0.189261 0.834145 -0.064217
C26   C     C_1   0.331777 0.153705 0.649572 -0.065366
C27   C     C_3   0.925221 0.279649 0.731589 0.017370
C28   C     C_3   0.829198 0.256214 0.763409 -0.100332
C29   C     C_1   0.904907 0.207805 0.876891 -0.014244
C30   C     C_1   0.783431 0.136991 0.612161 -0.034175
C31   C     C_3   0.968004 0.215851 0.757102 -0.105145
C32   C     C_3   0.870342 0.190683 0.788183 0.041918
C33   C     C_3   0.889109 0.108073 0.724291 -0.116210
C34   C     C_R   0.720032 0.095251 0.442742 0.540674
C35   C     C_3   0.847810 0.173601 0.699372 0.054221
C36   C     C_3   0.792921 0.084171 0.756158 0.035552
C37   C     C_3   0.751716 0.148535 0.730976 0.033500
C38   C     C_1   0.884481 0.199282 0.837082 -0.057628
C39   C     C_1   0.821138 0.158499 0.650785 -0.066599
C40   C     C_3   0.242827 0.612795 0.258239 -0.111595
C41   C     C_3   0.276480 0.705103 0.229018 -0.105408
C42   C     C_1   0.310372 0.608271 0.111136 -0.019068
C43   C     C_1   0.366082 0.735935 0.378246 -0.022707
C44   C     C_3   0.307810 0.565446 0.228814 -0.089913
C45   C     C_R   0.382034 0.784237 0.424470 0.543886
C46   C     C_3   0.341932 0.658552 0.200377 0.041658
C47   C     C_3   0.416870 0.640502 0.260124 0.031733
C48   C     C_3   0.352124 0.686667 0.289057 0.047444
C49   C     C_3   0.451643 0.732765 0.230992 -0.091824
C50   C     C_3   0.386050 0.779460 0.260477 -0.107271
C51   C     C_1   0.329588 0.636799 0.151223 -0.062730
C52   C     C_1   0.358034 0.708128 0.338179 -0.068081
C53   C     C_R   0.355141 0.134099 0.401570 0.020407
C54   C     C_R   0.415260 0.236842 0.387079 -0.126942
C55   C     C_R   0.397343 0.247408 0.342688 -0.114627
C56   C     C_R   0.395551 0.114797 0.443225 0.542845
C57   C     C_R   0.319206 0.155649 0.312696 0.037345
C58   C     C_R   0.252011 0.055669 0.327790 -0.126119
C59   C     C_R   0.269216 0.045009 0.372251 -0.132132
C60   C     C_R   0.232935 0.096491 0.149190 -0.115395
C61   C     C_R   0.227606 0.113963 0.104884 -0.125193
C62   C     C_R   0.411158 0.279166 0.119859 -0.129998
C63   C     C_R   0.416491 0.261015 0.164130 -0.121328
C64   C     C_R   0.325269 0.172352 0.179140 0.039228
C65   C     C_1   0.321560 0.164999 0.226045 -0.038027
C66   C     C_1   0.318540 0.160627 0.265607 -0.039620
C67   C     C_R   0.359609 0.716432 0.586790 0.022672
C68   C     C_R   0.314122 0.208485 0.090483 0.020280
C69   C     C_R   0.779159 0.132514 0.402280 0.006067
C70   C     C_R   0.800557 0.060602 0.371790 -0.118428
C71   C     C_R   0.828252 0.082480 0.327997 0.012632
C72   C     C_R   0.834990 0.178541 0.315250 0.045401
C73   C     C_R   0.824014 0.254895 0.346815 -0.129843
C74   C     C_R   0.796691 0.232353 0.390172 -0.136486
C75   C     C_R   0.881404 0.302466 0.166003 -0.118154
C76   C     C_R   0.905700 0.309430 0.121082 -0.129772
C77   C     C_R   0.858019 0.117149 0.108547 -0.126399
C78   C     C_R   0.451725 0.724469 0.613973 -0.025725
C79   C     C_R   0.833494 0.110381 0.153373 -0.114613
C80   C     C_R   0.849167 0.203972 0.182380 0.039707
C81   C     C_1   0.843679 0.200803 0.229618 -0.039862
C82   C     C_1   0.840999 0.193795 0.268978 -0.039543
C83   C     C_R   0.899102 0.218029 0.092535 0.020518
C84   C     C_R   0.282637 0.233809 0.921418 0.544688
C85   C     C_R   0.265838 0.546931 0.937870 0.539038
C86   C     C_R   0.946457 0.222630 0.922539 0.544952
C87   C     C_R   0.292782 0.243275 0.049043 0.542092
C88   C     C_R   0.275576 0.558853 0.065070 0.545755
C89   C     C_R   0.433923 0.695945 0.657175 -0.107006
C90   C     C_R   0.954013 0.233008 0.049926 0.541644
Cr1   Cr    Cr6+3 0.583430 0.162610 0.509470 1.004761
Cr2   Cr    Cr6+3 0.584210 0.916680 0.495400 0.999983
Cr3   Cr    Cr6+3 0.332380 0.920740 0.495100 1.007017
Cr4   Cr    Cr6+3 0.086810 0.177030 0.983130 1.017542
Cr5   Cr    Cr6+3 0.337180 0.419300 0.994610 1.017659
Cr6   Cr    Cr6+3 0.084840 0.422330 0.995830 1.018505
H1    H     H_    0.177005 0.656105 0.899312 0.127756
H2    H     H_    0.164987 0.210599 0.704514 0.105285
H3    H     H_    0.261461 0.984545 0.710808 0.101921
H4    H     H_    0.437881 0.132496 0.778651 0.096317
H5    H     H_    0.339943 0.357869 0.772853 0.103754
H6    H     H_    0.804121 0.316434 0.779625 0.098092
H7    H     H_    0.914018 0.047817 0.707987 0.099504
H8    H     H_    0.057503 0.244857 0.768864 0.113268
H9    H     H_    0.218955 0.732216 0.215559 0.106567
H10   H     H_    0.157402 0.563649 0.269879 0.105334
H11   H     H_    0.417781 0.867550 0.274156 0.115467
H12   H     H_    0.537101 0.781930 0.219376 0.094873
H13   H     H_    0.276081 0.477316 0.215196 0.109295
H14   H     H_    0.152057 0.057645 0.082968 0.126702
H15   H     H_    0.162427 0.027205 0.160670 0.103035
H16   H     H_    0.191383 0.984311 0.304597 0.106021
H17   H     H_    0.151099 0.600197 0.657903 0.106145
H18   H     H_    0.221503 0.964902 0.382489 0.131041
H19   H     H_    0.481339 0.307000 0.409063 0.124740
H20   H     H_    0.488823 0.319185 0.187238 0.109464
H21   H     H_    0.479199 0.352376 0.109703 0.129233
H22   H     H_    0.449219 0.325196 0.331096 0.100049
H23   H     H_    0.937353 0.388291 0.109731 0.131005
H24   H     H_    0.893609 0.375178 0.188444 0.104276
H25   H     H_    0.830147 0.329083 0.337141 0.108325
H26   H     H_    0.781873 0.289782 0.413169 0.126341
H27   H     H_    0.788610 0.984018 0.381059 0.124640
H28   H     H_    0.808343 0.033807 0.166009 0.101397
H29   H     H_    0.851756 0.045369 0.087315 0.126306
H30   H     H_    0.436823 0.578064 0.804239 0.104714
H31   H     H_    0.421690 0.542042 0.881891 0.136225
H32   H     H_    0.504624 0.708714 0.679279 0.107107
H33   H     H_    0.109471 0.038393 0.756688 0.105672
O1    O     O_R   0.493980 0.188910 0.559650 -0.510032
O2    O     O_R   0.480180 0.824400 0.444640 -0.494257
O3    O     O_R   0.308310 0.808540 0.439800 -0.515332
O4    O     O_R   0.340740 0.020600 0.455570 -0.501718
O5    O     O_3   0.500010 0.000010 0.499990 -0.235262
O6    O     O_R   0.969650 0.150960 0.933380 -0.508261
O7    O     O_R   0.187740 0.180870 0.937580 -0.494333
O8    O     O_R   0.358510 0.327410 0.940870 -0.512797
O9    O     O_R   0.324180 0.507870 0.953930 -0.502606
O10   O     O_R   0.170560 0.527890 0.952050 -0.516584
O11   O     O_R   0.987620 0.318470 0.945550 -0.493601
O12   O     O_R   0.678640 0.153520 0.554450 -0.498009
O13   O     O_R   0.976400 0.159270 0.031530 -0.519714
O14   O     O_R   0.194000 0.188570 0.028560 -0.503050
O15   O     O_R   0.365260 0.335720 0.039020 -0.516142
O16   O     O_R   0.330440 0.515580 0.044910 -0.494676
O17   O     O_R   0.177310 0.536200 0.050190 -0.512047
O18   O     O_R   0.993870 0.326170 0.036530 -0.502624
O19   O     O_3   0.169610 0.339550 0.991190 -0.242743
O20   O     O_R   0.698130 0.004030 0.549500 -0.523657
O21   O     O_R   0.481060 0.827210 0.535360 -0.505127
O22   O     O_R   0.309260 0.811560 0.537660 -0.524218
O23   O     O_R   0.341620 0.023400 0.546290 -0.493425
O24   O     O_R   0.493030 0.185890 0.461780 -0.518584
O25   O     O_R   0.677760 0.150720 0.463730 -0.503217
O26   O     O_R   0.697180 0.001010 0.451640 -0.516847
C91   C     C_3   0.524320 0.329927 0.725116 -0.411257
H34   H     H_    0.577711 0.368143 0.757530 0.122545
H35   H     H_    0.563089 0.291172 0.702128 0.128256
H36   H     H_    0.519185 0.394430 0.709138 0.134344
C92   C     C_3   0.002085 0.390479 0.717399 -0.411037
H37   H     H_    0.050138 0.451705 0.747678 0.138670
H38   H     H_    0.062696 0.383096 0.694248 0.133885
H39   H     H_    0.950285 0.418308 0.699869 0.123949
C93   C     C_3   0.630641 0.116683 0.715093 -0.254929
C94   C     C_3   0.563360 0.997522 0.690856 -0.296297
C95   C     C_3   0.470057 0.984096 0.657594 -0.428575
H40   H     H_    0.406524 0.896182 0.648434 0.157776
H41   H     H_    0.426195 0.027782 0.673018 0.155313
H42   H     H_    0.506647 0.017956 0.626602 0.168571
H43   H     H_    0.619542 0.971898 0.672149 0.169442
H44   H     H_    0.524143 0.942088 0.716246 0.159982
H45   H     H_    0.586794 0.128192 0.744698 0.127296
H46   H     H_    0.636260 0.174376 0.692071 0.148650
C96   C     C_3   0.719794 0.973170 0.771037 -0.404496
H47   H     H_    0.679660 0.908363 0.741031 0.116408
H48   H     H_    0.773426 0.952645 0.791625 0.135573
H49   H     H_    0.653084 0.976549 0.791532 0.135287
C97   C     C_3   0.173133 0.706592 0.815544 -0.403186
H50   H     H_    0.122650 0.722901 0.841536 0.121670
H51   H     H_    0.229701 0.785094 0.803388 0.135960
H52   H     H_    0.113671 0.646787 0.786989 0.127507
C98   C     C_3   0.495750 0.603222 0.278878 -0.255883
C99   C     C_3   0.548227 0.562946 0.240824 -0.300478
C100  C     C_3   0.624707 0.522968 0.259443 -0.458772
H53   H     H_    0.693840 0.590231 0.283230 0.149160
H54   H     H_    0.574697 0.451964 0.277189 0.149852
H55   H     H_    0.663220 0.496372 0.231242 0.137747
H56   H     H_    0.479985 0.494274 0.217153 0.164531
H57   H     H_    0.599296 0.631052 0.221744 0.157692
H58   H     H_    0.563942 0.673547 0.301968 0.140250
H59   H     H_    0.446284 0.535836 0.298511 0.143569
C101  C     C_3   0.141349 0.613980 0.569078 -0.248010
C102  C     C_3   0.066863 0.488462 0.565323 -0.311976
C103  C     C_3   0.964545 0.444638 0.531131 -0.447054
H60   H     H_    0.911580 0.483453 0.541292 0.149370
H61   H     H_    0.992665 0.461866 0.497008 0.148534
H62   H     H_    0.912109 0.354229 0.529590 0.156862
H63   H     H_    0.117826 0.447704 0.554564 0.169636
H64   H     H_    0.035200 0.465810 0.598487 0.158344
H65   H     H_    0.092271 0.655360 0.581789 0.144650
H66   H     H_    0.162484 0.630765 0.534378 0.174719
C104  C     C_3   0.841976 0.999089 0.294702 -0.255488
C105  C     C_3   0.966113 0.042626 0.284098 -0.286592
C106  C     C_3   0.978549 0.961001 0.248710 -0.459908
H67   H     H_    0.950916 0.881873 0.261349 0.145366
H68   H     H_    0.926885 0.945945 0.216949 0.147600
H69   H     H_    0.068673 0.995039 0.241242 0.145676
H70   H     H_    0.998554 0.121969 0.271136 0.176209
H71   H     H_    0.018995 0.056965 0.315441 0.168795
H72   H     H_    0.813078 0.920999 0.308473 0.127996
H73   H     H_    0.787062 0.978520 0.263217 0.142786
C107  C     C_3   0.570881 0.767676 0.599716 -0.374161
H74   H     H_    0.625054 0.753007 0.622830 0.099387
H75   H     H_    0.569777 0.725126 0.565580 0.148314
H76   H     H_    0.611196 0.857686 0.600415 0.174251

loop_
_geom_bond_atom_site_label_1
_geom_bond_atom_site_label_2
_ccdc_geom_bond_type
C94   H44   S    
C71   C104  S    
C103  H61   S    
C23   O23   A    
C36   C96   S    
C94   C95   S    
C16   C25   T    
C24   H3    S    
C73   C74   A    
C14   C18   S    
Cr5   O16   S    
C57   C66   S    
C21   C26   S    
Cr6   O10   S    
C14   H2    S    
C97   H50   S    
C53   C59   A    
C7    C8    A    
C47   C49   S    
Cr1   O1    S    
C34   O26   A    
C15   C19   S    
C46   C49   S    
C17   C23   S    
C41   H9    S    
C58   H16   S    
Cr4   O14   S    
C32   C36   S    
C14   C21   S    
C93   C94   S    
C35   C37   S    
Cr1   O24   S    
Cr3   O4    S    
C5    C6    A    
C43   C52   T    
C103  H62   S    
C77   C83   A    
C102  H63   S    
C16   C84   S    
C33   C36   S    
C100  H53   S    
C18   C19   S    
Cr6   O18   S    
C4    C101  S    
C98   C99   S    
C62   H21   S    
C7    C13   A    
C96   H47   S    
C70   H27   S    
C84   O7    A    
C31   C32   S    
C8    C9    A    
C29   C38   T    
Cr4   O7    S    
C88   O16   A    
C107  H76   S    
C1    O20   A    
C70   C71   A    
C101  C102  S    
C32   C38   S    
C87   O15   A    
Cr3   O3    S    
C9    C10   S    
C85   O10   A    
C44   C47   S    
C86   O11   A    
C42   C51   T    
C44   H13   S    
C48   C50   S    
C103  H60   S    
Cr5   O15   S    
C107  H74   S    
C95   H41   S    
C12   O22   A    
C67   C78   A    
C104  H72   S    
C47   C98   S    
C2    C11   S    
C99   H57   S    
C76   C83   A    
C44   C46   S    
C56   O4    A    
C49   H12   S    
C34   O25   A    
C78   C89   A    
Cr4   O19   S    
Cr6   O19   S    
C12   C67   S    
Cr5   O8    S    
C76   H23   S    
C22   H4    S    
C104  C105  S    
Cr5   O19   S    
C27   C31   S    
Cr4   O13   S    
C92   H39   S    
C12   O21   A    
C28   C32   S    
C19   C22   S    
C1    O12   A    
Cr1   O25   S    
Cr3   O5    S    
C3    H17   S    
C101  H66   S    
C80   C81   S    
C27   C35   S    
C58   C59   A    
C53   C54   A    
C46   C51   S    
C81   C82   T    
C63   C64   A    
C23   O1    A    
C60   C61   A    
C18   H5    S    
C92   H38   S    
C2    C89   A    
C35   C39   S    
C75   C76   A    
C6    H1    S    
C99   C100  S    
C5    C9    A    
C90   O18   A    
C47   C48   S    
C15   H33   S    
C106  H69   S    
C48   C52   S    
C41   C46   S    
C54   H19   S    
Cr2   O2    S    
C62   C63   A    
C31   C33   S    
Cr4   O6    S    
C77   C79   A    
C93   H46   S    
C20   C21   S    
C61   H14   S    
C43   C45   S    
C96   H49   S    
C29   C86   S    
C90   O13   A    
C45   O3    A    
C37   C93   S    
C63   H20   S    
C56   O24   A    
C8    H30   S    
C15   C24   S    
C74   H26   S    
C107  H75   S    
C84   O8    A    
C49   C50   S    
C73   H25   S    
C55   C57   A    
Cr2   O21   S    
C50   H11   S    
C22   C24   S    
Cr3   O22   S    
C42   C88   S    
C98   H59   S    
C17   C26   T    
C3    C4    A    
C78   C107  S    
C41   C50   S    
C27   C28   S    
C77   H29   S    
C40   H10   S    
C105  H70   S    
C53   C56   S    
C94   H43   S    
C40   C48   S    
C83   C90   S    
C54   C55   A    
C91   H34   S    
Cr5   O9    S    
C20   C91   S    
C33   H7    S    
C34   C69   S    
C91   H36   S    
Cr2   O5    S    
C75   H24   S    
C14   C15   S    
C20   C22   S    
C72   C73   A    
Cr6   O11   S    
C4    C67   A    
C97   H51   S    
C45   O2    A    
Cr6   O17   S    
C79   H28   S    
C100  H55   S    
C62   C68   A    
C60   C64   A    
C87   O14   A    
C31   H8    S    
C91   H35   S    
C2    C3    A    
C27   C92   S    
C71   C72   A    
C65   C66   T    
C104  H73   S    
C102  H64   S    
C99   H56   S    
C64   C65   S    
C6    C13   A    
C106  H68   S    
C61   C68   A    
C57   C58   A    
C95   H40   S    
Cr1   O5    S    
C28   C37   S    
C59   H18   S    
C1    C30   S    
C33   C35   S    
C100  H54   S    
C30   C39   T    
Cr2   O26   S    
C18   C20   S    
C101  H65   S    
C69   C70   A    
C19   C25   S    
C92   H37   S    
C96   H48   S    
C5    C97   S    
C97   H52   S    
C93   H45   S    
C10   C11   T    
C79   C80   A    
C28   H6    S    
C86   O6    A    
C40   C44   S    
C75   C80   A    
C106  H67   S    
C95   H42   S    
C36   C37   S    
C102  C103  S    
C21   C24   S    
C13   C85   S    
Cr2   O20   S    
C60   H15   S    
C68   C87   S    
C88   O17   A    
C69   C74   A    
C105  H71   S    
Cr3   O23   S    
C40   C41   S    
C98   H58   S    
C105  C106  S    
C7    H31   S    
C85   O9    A    
C55   H22   S    
C72   C82   S    
Cr1   O12   S    
C89   H32   S    
