data_mof_unit_46675.cif
_audit_creation_date              2012-12-10T18:13:53-0500
_audit_creation_method            fapswitch 2.2
_symmetry_space_group_name_H-M    P1
_symmetry_Int_Tables_number       1
_space_group_crystal_system       triclinic
_cell_length_a                    11.075206
_cell_length_b                    9.977102
_cell_length_c                    23.574299
_cell_angle_alpha                 92.532256
_cell_angle_beta                  90.099165
_cell_angle_gamma                 88.744493
_cell_volume                      2601.75451988

loop_
_atom_site_label
_atom_site_type_symbol
_atom_type_description
_atom_site_fract_x
_atom_site_fract_y
_atom_site_fract_z
_atom_type_partial_charge
C1    C     C_R   0.263007 0.502071 0.505202 0.657759
C2    C     C_R   0.327924 0.277023 0.962921 -0.077417
C3    C     C_R   0.312426 0.286169 0.022703 -0.088140
C4    C     C_R   0.378847 0.380976 0.056494 -0.080385
C5    C     C_R   0.457236 0.469163 0.029676 0.000956
C6    C     C_R   0.522442 0.566383 0.062636 -0.091035
C7    C     C_R   0.608723 0.646081 0.035772 -0.033292
C8    C     C_R   0.621129 0.635104 0.976849 -0.108876
C9    C     C_R   0.376381 0.385778 0.116788 0.591608
C10   C     C_R   0.498628 0.579468 0.121362 0.535515
C11   C     C_R   0.549647 0.420216 0.230349 -0.042578
C12   C     C_R   0.501025 0.496898 0.391256 0.728871
C13   C     C_R   0.571690 0.430351 0.289551 0.011070
C14   C     C_R   0.483909 0.489777 0.327522 -0.199176
C15   C     C_R   0.373054 0.535691 0.303999 -0.113419
C16   C     C_R   0.357594 0.540185 0.244306 0.025241
C17   C     C_R   0.444211 0.477812 0.207999 0.163270
C18   C     C_R   0.451376 0.599323 0.768015 -0.057332
C19   C     C_R   0.463704 0.614708 0.708727 -0.079495
C20   C     C_R   0.499045 0.502705 0.672304 -0.080410
C21   C     C_R   0.531559 0.381559 0.697537 -0.155925
C22   C     C_R   0.527834 0.369684 0.755981 -0.122883
C23   C     C_R   0.738920 0.498296 0.505689 0.764811
C24   C     C_R   0.487401 0.476722 0.791478 0.328517
C25   C     C_3   0.066452 0.640371 0.533577 -0.235210
C26   C     C_3   0.082030 0.386197 0.546172 -0.196380
C27   C     C_3   0.927329 0.625374 0.543791 -0.246166
C28   C     C_3   0.940437 0.372551 0.544413 -0.192543
C29   C     C_3   0.078840 0.481457 0.450477 -0.293766
C30   C     C_3   0.125692 0.504165 0.510795 -0.121893
C31   C     C_3   0.880729 0.493920 0.511299 -0.184556
C32   C     C_3   0.937735 0.479832 0.448155 -0.114833
C33   C     C_3   0.626132 0.079528 0.491575 -0.061900
C34   C     C_3   0.629026 0.915444 0.501443 -0.072198
C35   C     C_3   0.465444 0.084623 0.557607 -0.180118
C36   C     C_3   0.438524 0.926915 0.551832 -0.183110
C37   C     C_3   0.402753 0.081153 0.459799 -0.107366
C38   C     C_3   0.427871 0.916614 0.449764 -0.117983
C39   C     C_R   0.499536 0.502366 0.608627 0.839448
C40   C     C_R   0.563847 0.539578 0.884680 0.592573
C41   C     C_R   0.408216 0.378957 0.875971 0.615236
C42   C     C_R   0.402904 0.369153 0.935967 -0.060818
C43   C     C_R   0.470767 0.460824 0.969891 -0.002752
C44   C     C_R   0.552481 0.545366 0.943831 -0.038091
Cu1   Cu    Cu3+1 0.499860 0.642410 0.500030 1.013004
Cu2   Cu    Cu3+1 0.499860 0.357590 0.500030 0.984411
H1    H     H_    0.561735 0.294326 0.672068 0.204101
H2    H     H_    0.556098 0.275919 0.773898 0.169157
H3    H     H_    0.070335 0.710535 0.498563 0.225247
H4    H     H_    0.115027 0.294664 0.523477 0.187418
H5    H     H_    0.883968 0.710003 0.523660 0.158551
H6    H     H_    0.923955 0.282504 0.516883 0.114108
H7    H     H_    0.113588 0.563681 0.426308 0.206835
H8    H     H_    0.123673 0.389794 0.431206 0.223890
H9    H     H_    0.533387 0.089895 0.591336 0.186245
H10   H     H_    0.457269 0.879057 0.591367 0.219508
H11   H     H_    0.397018 0.147272 0.580885 0.195340
H12   H     H_    0.341811 0.910130 0.553101 0.246276
H13   H     H_    0.686732 0.696422 0.956645 0.221626
N1    N     N_R   0.488229 0.462363 0.852042 -0.449504
N2    N     N_R   0.433887 0.484995 0.147199 -0.458147
N3    N     N_3   0.500250 0.143650 0.501250 -0.214261
N4    N     N_3   0.500250 0.856350 0.501250 -0.218568
O1    O     O_R   0.317570 0.620260 0.500030 -0.571284
O2    O     O_R   0.317570 0.379740 0.500030 -0.633000
O3    O     O_R   0.499840 0.620290 0.417900 -0.595121
O4    O     O_R   0.499840 0.379710 0.417900 -0.573274
O5    O     O_R   0.682190 0.620260 0.500010 -0.562614
O6    O     O_R   0.682190 0.379740 0.500010 -0.567506
O7    O     O_R   0.499920 0.620230 0.582140 -0.526925
O8    O     O_R   0.499920 0.379770 0.582140 -0.562859
O9    O     O_2   0.647178 0.614060 0.859620 -0.513808
O10   O     O_2   0.330623 0.311589 0.841719 -0.491557
O11   O     O_2   0.320846 0.290615 0.145383 -0.480292
O12   O     O_2   0.539720 0.684637 0.153080 -0.507126
C45   C     C_2   0.266973 0.167597 0.929883 0.589014
H14   H     H_    0.170680 0.153698 0.934707 0.070259
O13   O     O_2   0.325368 0.088264 0.899350 -0.470716
C46   C     C_2   0.438343 0.748573 0.687263 0.843171
O14   O     O_2   0.341416 0.772855 0.664976 -0.611922
O15   O     O_R   0.519527 0.851360 0.699354 -0.701373
H15   H     H_    0.487883 0.942281 0.687775 0.327808
C47   C     C_2   0.136033 0.709366 0.580869 0.626466
H16   H     H_    0.199245 0.652432 0.605696 0.116727
O16   O     O_2   0.119825 0.829078 0.592161 -0.455235
C48   C     C_2   0.144844 0.382433 0.603643 0.406497
H17   H     H_    0.229305 0.326270 0.607160 0.107601
O17   O     O_2   0.105349 0.443818 0.645695 -0.500979
C49   C     C_2   0.883696 0.641544 0.605564 0.949293
O18   O     O_2   0.776030 0.635498 0.615276 -0.511029
O19   O     O_R   0.961729 0.661945 0.651608 -0.685058
H18   H     H_    0.918093 0.669847 0.689430 0.372521
C50   C     C_2   0.892872 0.330475 0.601431 0.989698
O20   O     O_2   0.811333 0.391081 0.626723 -0.532215
O21   O     O_R   0.940389 0.212613 0.623674 -0.721238
H19   H     H_    0.901535 0.190866 0.660981 0.359984
C51   C     C_2   0.888746 0.586180 0.410512 0.457971
H20   H     H_    0.793083 0.588601 0.404189 0.137807
O22   O     O_2   0.951823 0.654416 0.381254 -0.477474
C52   C     C_2   0.897407 0.352941 0.416676 0.399381
H21   H     H_    0.802068 0.335754 0.413259 0.092320
O23   O     O_2   0.967218 0.275687 0.391004 -0.488132
C53   C     C_2   0.717935 0.139371 0.533055 0.309793
H22   H     H_    0.812502 0.112065 0.527642 0.112893
O24   O     O_2   0.688746 0.208689 0.574607 -0.523193
C54   C     C_2   0.695487 0.883554 0.557823 0.379743
H23   H     H_    0.790095 0.906902 0.563571 0.102621
O25   O     O_2   0.648200 0.833673 0.597822 -0.475862
C55   C     C_2   0.222589 0.199377 0.049127 0.452605
H24   H     H_    0.153949 0.244070 0.077277 0.136284
O26   O     O_2   0.226303 0.077722 0.040646 -0.484842
C56   C     C_2   0.680018 0.118863 0.434592 0.861254
O27   O     O_2   0.621132 0.179158 0.400479 -0.512158
O28   O     O_R   0.800366 0.089303 0.420952 -0.757738
H25   H     H_    0.816918 0.089847 0.378789 0.388492
C57   C     C_2   0.719127 0.851232 0.458507 0.827450
O29   O     O_2   0.688292 0.777548 0.419228 -0.546710
O30   O     O_R   0.842210 0.879092 0.464726 -0.800122
H26   H     H_    0.891818 0.855463 0.429732 0.395465
C58   C     C_2   0.266764 0.106891 0.481213 0.782689
O31   O     O_2   0.236043 0.104283 0.530736 -0.597697
O32   O     O_R   0.172391 0.113336 0.441115 -0.716125
H27   H     H_    0.088984 0.112395 0.458766 0.379039
C59   C     C_2   0.301152 0.855146 0.439963 0.786723
O33   O     O_2   0.234011 0.838712 0.479503 -0.581486
O34   O     O_R   0.249689 0.849318 0.385392 -0.725212
H28   H     H_    0.161979 0.822092 0.385326 0.387212
C60   C     C_2   0.385510 0.156592 0.404332 0.617986
H29   H     H_    0.340588 0.254151 0.406770 0.092584
O35   O     O_2   0.393823 0.106240 0.356417 -0.446907
C61   C     C_2   0.485553 0.879552 0.390941 0.581195
H30   H     H_    0.453587 0.796504 0.364291 0.127935
O36   O     O_2   0.563466 0.943364 0.368832 -0.463586
C62   C     C_2   0.695626 0.732695 0.067507 0.492007
H31   H     H_    0.729426 0.705515 0.108708 0.133893
O37   O     O_2   0.733496 0.833930 0.047011 -0.499181
C63   C     C_2   0.638551 0.355620 0.189380 0.456515
H32   H     H_    0.606545 0.298398 0.152364 0.084261
O38   O     O_2   0.747104 0.370862 0.194779 -0.478603
C64   C     C_2   0.690345 0.383535 0.308608 0.904187
O39   O     O_2   0.768918 0.465364 0.317086 -0.564165
O40   O     O_R   0.720232 0.246957 0.303044 -0.672171
H33   H     H_    0.810496 0.229386 0.305202 0.369583
C65   C     C_2   0.269242 0.566117 0.341866 0.421472
H34   H     H_    0.284406 0.594975 0.385818 0.053145
O41   O     O_2   0.165767 0.552953 0.324916 -0.456890
C66   C     C_2   0.255389 0.617571 0.219535 1.000411
O42   O     O_2   0.227500 0.728725 0.240011 -0.495371
O43   O     O_R   0.191595 0.564364 0.172870 -0.726666
H35   H     H_    0.124773 0.627134 0.159994 0.355469
C67   C     C_2   0.396491 0.710132 0.804972 0.479638
H36   H     H_    0.401063 0.813713 0.793266 0.120073
O44   O     O_2   0.341533 0.686700 0.848152 -0.503773

loop_
_geom_bond_atom_site_label_1
_geom_bond_atom_site_label_2
_ccdc_geom_bond_type
C22   H2    S    
C50   O20   D    
C40   N1    A    
C11   C13   A    
C41   C42   A    
C23   O6    A    
O21   H19   S    
C60   H29   S    
C56   O28   S    
C37   N3    S    
C7    C8    A    
Cu1   Cu2   S    
C57   O29   D    
C63   O38   D    
O34   H28   S    
C54   O25   D    
Cu2   N3    S    
C16   C66   S    
C9    N2    A    
C1    C30   S    
C66   O43   S    
C37   C38   S    
C45   O13   D    
C29   C32   S    
C36   H12   S    
C55   O26   D    
C8    H13   S    
C5    C6    A    
C48   O17   D    
C29   H8    S    
C34   C57   S    
C15   C16   A    
C32   C51   S    
C18   C19   A    
O30   H26   S    
C34   N4    S    
Cu2   O6    S    
C66   O42   D    
C17   N2    S    
C21   C22   A    
C35   C36   S    
C58   O32   S    
C16   C17   A    
C1    O2    A    
C67   H36   S    
C49   O19   S    
C36   N4    S    
C24   N1    S    
C37   C60   S    
C5    C43   A    
C50   O21   S    
C13   C14   A    
C56   O27   D    
C51   O22   D    
C27   H5    S    
C51   H20   S    
O32   H27   S    
C12   O4    A    
O40   H33   S    
C27   C31   S    
C34   C54   S    
C13   C64   S    
C45   H14   S    
Cu2   O2    S    
C65   O41   D    
O19   H18   S    
C46   O15   S    
C20   C39   S    
C48   H17   S    
C33   N3    S    
C62   O37   D    
C12   O3    A    
Cu1   N4    S    
C35   H9    S    
O15   H15   S    
C32   C52   S    
C3    C55   S    
C28   C50   S    
C23   C31   S    
C23   O5    A    
C43   C44   A    
C29   C30   S    
C36   H10   S    
C10   O12   S    
C31   C32   S    
C26   C48   S    
Cu1   O5    S    
C52   O23   D    
C33   C34   S    
C53   O24   D    
C33   C56   S    
C54   H23   S    
C64   O39   D    
C19   C46   S    
Cu2   O8    S    
C62   H31   S    
C7    C62   S    
C47   O16   D    
C12   C14   S    
C26   C30   S    
C18   C24   A    
C47   H16   S    
C10   N2    A    
C42   C43   A    
C3    C4    A    
C49   O18   D    
C1    O1    A    
C53   H22   S    
C2    C45   S    
C58   O31   D    
C59   O34   S    
C38   N4    S    
C25   C30   S    
C11   C17   A    
C40   O9    S    
Cu1   O7    S    
C33   C53   S    
C28   C31   S    
C8    C44   A    
C41   N1    A    
C64   O40   S    
C65   H34   S    
C61   O36   D    
C60   O35   D    
C6    C10   A    
O28   H25   S    
C6    C7    A    
C25   C27   S    
C63   H32   S    
Cu1   O1    S    
C26   C28   S    
C35   H11   S    
C38   C61   S    
C19   C20   A    
C26   H4    S    
C2    C3    A    
C11   C63   S    
Cu2   O4    S    
O43   H35   S    
C28   H6    S    
C37   C58   S    
C29   H7    S    
C2    C42   A    
C4    C5    A    
C52   H21   S    
C39   O7    A    
C57   O30   S    
C27   C49   S    
C35   N3    S    
C22   C24   A    
C67   O44   D    
C61   H30   S    
C25   H3    S    
C41   O10   S    
C46   O14   D    
C40   C44   A    
C20   C21   A    
C15   C65   S    
C9    O11   S    
Cu1   O3    S    
C25   C47   S    
C39   O8    A    
C14   C15   A    
C4    C9    A    
C55   H24   S    
C38   C59   S    
C18   C67   S    
C59   O33   D    
C21   H1    S    
