data_mof_unit_19263.cif
_audit_creation_date              2012-10-26T20:00:53-0400
_audit_creation_method            fapswitch 2.2
_symmetry_space_group_name_H-M    P1
_symmetry_Int_Tables_number       1
_space_group_crystal_system       triclinic
_cell_length_a                    11.780679
_cell_length_b                    12.969856
_cell_length_c                    13.434334
_cell_angle_alpha                 93.971752
_cell_angle_beta                  76.126152
_cell_angle_gamma                 99.93648
_cell_volume                      1962.06930176

loop_
_atom_site_label
_atom_site_type_symbol
_atom_type_description
_atom_site_fract_x
_atom_site_fract_y
_atom_site_fract_z
_atom_type_partial_charge
C1    C     C_R   0.522018 0.700517 0.497718 0.546826
C2    C     C_R   0.396805 0.480104 0.807486 -0.004987
C3    C     C_R   0.466176 0.185981 0.497989 -0.043331
C4    C     C_R   0.436206 0.495625 0.696005 0.538740
C5    C     C_R   0.535381 0.813518 0.488239 -0.020630
C6    C     C_R   0.656099 0.980367 0.437557 -0.133631
C7    C     C_R   0.645698 0.872617 0.446033 -0.144736
C8    C     C_R   0.434590 0.861789 0.516670 -0.113663
C9    C     C_R   0.443026 0.969067 0.507030 0.039231
C10   C     C_R   0.555699 0.029232 0.469415 0.009808
C11   C     C_R   0.566403 0.137386 0.465204 -0.145078
C12   C     C_R   0.448094 0.483444 0.974621 0.036449
C13   C     C_R   0.354118 0.126233 0.532390 -0.110861
C14   C     C_R   0.341227 0.017680 0.535314 0.262283
C15   C     C_R   0.931145 0.579410 0.616222 0.006317
C16   C     C_R   0.479099 0.299438 0.498185 0.540847
C17   C     C_R   0.822323 0.584896 0.591971 0.400167
C18   C     C_R   0.861264 0.463229 0.453666 -0.008683
C19   C     C_R   0.979904 0.469650 0.462920 -0.038263
C20   C     C_R   0.016048 0.525848 0.546879 -0.076655
C21   C     C_R   0.135686 0.527765 0.555466 0.189984
C22   C     C_R   0.179200 0.426707 0.400803 0.027415
C23   C     C_R   0.468808 0.524203 0.875276 0.020549
C24   C     C_R   0.061826 0.419121 0.391068 -0.164504
C25   C     C_R   0.563469 0.505152 0.304450 0.531640
C26   C     C_R   0.716286 0.630488 0.055487 -0.129223
C27   C     C_R   0.599492 0.522193 0.194304 0.003660
C28   C     C_R   0.295854 0.406236 0.843500 -0.118103
C29   C     C_R   0.268899 0.372896 0.943680 -0.134809
C30   C     C_R   0.344854 0.408860 0.008112 -0.117080
C31   C     C_3   0.177567 0.918228 0.493578 0.014100
C32   C     C_3   0.104633 0.993917 0.465060 -0.273845
C33   C     C_3   0.033738 0.943126 0.388157 -0.488326
C34   C     C_R   0.531769 0.518976 0.035772 0.034751
C35   C     C_2   0.173217 0.578184 0.646039 0.647369
C36   C     C_2   0.943158 0.620836 0.719378 0.594589
C37   C     C_3   0.801499 0.757113 0.612997 0.003502
C38   C     C_3   0.727510 0.835497 0.675861 -0.251030
C39   C     C_3   0.786412 0.948294 0.652469 -0.468568
C40   C     C_R   0.631360 0.596243 0.997746 0.054583
C41   C     C_R   0.642908 0.641811 0.904360 -0.096970
C42   C     C_R   0.560705 0.608527 0.845623 -0.088778
C43   C     C_R   0.519069 0.481918 0.134290 -0.122699
C44   C     C_R   0.700482 0.593523 0.153431 -0.133591
Cu1   Cu    Cu3+1 0.386470 0.492430 0.492410 0.981609
Cu2   Cu    Cu3+1 0.613530 0.507570 0.507590 0.986228
H1    H     H_    0.762597 0.626046 0.199632 0.122836
H2    H     H_    0.792401 0.689293 0.026554 0.109954
H3    H     H_    0.444479 0.425094 0.168852 0.102780
H4    H     H_    0.240305 0.370629 0.792709 0.167601
H5    H     H_    0.319693 0.376657 0.083444 0.095193
H6    H     H_    0.190879 0.315391 0.970430 0.124859
H7    H     H_    0.568047 0.650222 0.777076 0.169931
H8    H     H_    0.652822 0.183851 0.437236 0.125803
H9    H     H_    0.117149 0.845012 0.521245 0.173398
H10   H     H_    0.242842 0.895258 0.424113 0.114808
H11   H     H_    0.042806 0.018688 0.535279 0.176871
H12   H     H_    0.276514 0.163852 0.558864 0.142923
H13   H     H_    0.164556 0.064724 0.430696 0.154252
H14   H     H_    0.094392 0.920919 0.315984 0.155821
H15   H     H_    0.980674 0.999330 0.370308 0.142714
H16   H     H_    0.972455 0.872213 0.420471 0.128150
H17   H     H_    0.166588 0.569223 0.796634 0.337137
H18   H     H_    0.907105 0.593259 0.870348 0.332673
H19   H     H_    0.804573 0.763643 0.530479 0.129560
H20   H     H_    0.893580 0.779443 0.622365 0.155126
H21   H     H_    0.638051 0.822057 0.659580 0.175542
H22   H     H_    0.716745 0.824141 0.758796 0.161014
H23   H     H_    0.742432 0.025411 0.406569 0.102516
H24   H     H_    0.869035 0.966213 0.680785 0.165478
H25   H     H_    0.725475 0.002705 0.691663 0.162442
H26   H     H_    0.808446 0.961120 0.568814 0.148868
H27   H     H_    0.723406 0.835610 0.418719 0.110963
H28   H     H_    0.349270 0.815722 0.546629 0.212380
H29   H     H_    0.241008 0.388234 0.343868 0.121221
H30   H     H_    0.035658 0.374849 0.326569 0.091276
H31   H     H_    0.715617 0.704072 0.877238 0.134803
H32   H     H_    0.831124 0.415149 0.392951 0.122634
N1    N     N_R   0.215880 0.481050 0.481000 -0.257127
N2    N     N_R   0.784100 0.518950 0.519000 -0.232535
O1    O     O_R   0.419710 0.645650 0.494620 -0.477297
O2    O     O_2   0.227950 0.667196 0.642192 -0.510060
O3    O     O_R   0.139790 0.525401 0.738466 -0.687919
O4    O     O_2   0.995771 0.709124 0.730795 -0.520322
O5    O     O_R   0.891752 0.558071 0.804044 -0.658911
O6    O     O_3   0.751048 0.654094 0.645602 -0.547584
O7    O     O_R   0.611450 0.658430 0.507430 -0.487155
O8    O     O_R   0.357340 0.490460 0.641450 -0.478283
O9    O     O_R   0.549080 0.503250 0.654260 -0.452588
O10   O     O_R   0.388550 0.341570 0.492570 -0.515827
O11   O     O_R   0.580290 0.354350 0.505380 -0.501345
O12   O     O_R   0.450920 0.496750 0.345740 -0.515538
O13   O     O_R   0.642660 0.509540 0.358550 -0.517394
O14   O     O_3   0.230202 0.961284 0.574761 -0.554242

loop_
_geom_bond_atom_site_label_1
_geom_bond_atom_site_label_2
_ccdc_geom_bond_type
C1    O7    A    
C6    H23   S    
C30   H5    S    
C16   O10   A    
C41   C42   A    
C15   C36   S    
C19   C20   A    
C26   C44   A    
C7    H27   S    
Cu2   O9    S    
Cu1   Cu2   S    
C25   O13   A    
C12   C23   A    
C29   C30   A    
C23   C42   A    
C1    C5    S    
C22   H29   S    
C28   C29   A    
C22   N1    A    
C4    O9    A    
C42   H7    S    
C41   H31   S    
C38   C39   S    
C1    O1    A    
C18   C19   A    
Cu1   O12   S    
C28   H4    S    
C27   C44   A    
C8    C9    A    
C37   H19   S    
C39   H26   S    
C31   H10   S    
C9    C10   A    
C3    C13   A    
C44   H1    S    
C26   H2    S    
C13   C14   A    
C32   H11   S    
C35   O2    D    
C15   C20   A    
Cu1   O1    S    
C17   O6    S    
C37   O6    S    
Cu1   O8    S    
C5    C7    A    
C35   O3    S    
C24   H30   S    
C13   H12   S    
C33   H16   S    
C17   N2    A    
H17   O3    S    
C2    C4    S    
C9    C14   A    
C37   C38   S    
C31   C32   S    
C18   H32   S    
C37   H20   S    
C21   N1    A    
C8    H28   S    
Cu1   N1    S    
C38   H21   S    
Cu1   O10   S    
C11   H8    S    
C4    O8    A    
C18   N2    A    
C40   C41   A    
C38   H22   S    
C33   H14   S    
C22   C24   A    
C12   C34   A    
H18   O5    S    
Cu2   O7    S    
C15   C17   A    
C25   O12   A    
C12   C30   A    
C43   H3    S    
C34   C43   A    
C6    C10   A    
C5    C8    A    
C6    C7    A    
C21   C35   S    
C36   O5    S    
C25   C27   S    
C31   O14   S    
C32   C33   S    
C19   C24   A    
Cu2   N2    S    
C26   C40   A    
Cu2   O13   S    
C36   O4    D    
C39   H24   S    
C3    C11   A    
C10   C11   A    
C27   C43   A    
C20   C21   A    
C16   O11   A    
C33   H15   S    
C2    C23   A    
C39   H25   S    
C34   C40   A    
C2    C28   A    
Cu2   O11   S    
C32   H13   S    
C31   H9    S    
C14   O14   S    
C3    C16   S    
C29   H6    S    
