data_mof_unit_60102.cif
_audit_creation_date              2012-12-10T21:02:23-0500
_audit_creation_method            fapswitch 2.2
_symmetry_space_group_name_H-M    P1
_symmetry_Int_Tables_number       1
_space_group_crystal_system       triclinic
_cell_length_a                    15.077185
_cell_length_b                    15.848715
_cell_length_c                    16.600776
_cell_angle_alpha                 89.989374
_cell_angle_beta                  83.228084
_cell_angle_gamma                 90.003867
_cell_volume                      3939.14704961

loop_
_atom_site_label
_atom_site_type_symbol
_atom_type_description
_atom_site_fract_x
_atom_site_fract_y
_atom_site_fract_z
_atom_type_partial_charge
Br1   Br    Br    0.573298 0.631791 0.767024 -0.479569
Br2   Br    Br    0.427663 0.632244 0.232786 -0.479697
Br3   Br    Br    0.362886 0.271661 0.870369 -0.480119
Br4   Br    Br    0.635943 0.271004 0.129980 -0.479133
Br5   Br    Br    0.082094 0.504904 0.676925 -0.481219
Br6   Br    Br    0.917907 0.493314 0.323093 -0.482843
C1    C     C_R   0.500024 0.661132 0.499970 0.938075
C2    C     C_1   0.500030 0.824367 0.499953 -0.033792
C3    C     C_1   0.500030 0.749527 0.499958 -0.122024
C4    C     C_1   0.499974 0.250489 0.500023 -0.152341
C5    C     C_R   0.036571 0.501881 0.573873 0.305297
C6    C     C_R   0.963430 0.497029 0.426127 0.305421
C7    C     C_R   0.094896 0.499624 0.500780 -0.051933
C8    C     C_R   0.905105 0.499553 0.499214 -0.052282
C9    C     C_R   0.057010 0.497118 0.427295 -0.238612
C10   C     C_R   0.942992 0.501877 0.572703 -0.238749
C11   C     C_1   0.192852 0.499844 0.500254 0.179586
C12   C     C_R   0.499976 0.338872 0.500028 0.884792
C13   C     C_1   0.807149 0.499792 0.499738 0.179862
C14   C     C_R   0.486099 0.499350 0.653986 0.928469
C15   C     C_R   0.513900 0.499338 0.346018 0.928469
C16   C     C_R   0.473409 0.479192 0.739398 -0.145171
C17   C     C_R   0.526575 0.479123 0.260635 -0.145345
C18   C     C_R   0.510679 0.528840 0.796310 0.266948
C19   C     C_R   0.489687 0.528975 0.203636 0.266657
C20   C     C_R   0.501745 0.503034 0.876702 -0.226188
C21   C     C_R   0.498543 0.503120 0.123270 -0.226103
C22   C     C_R   0.459489 0.426181 0.900018 -0.025373
C23   C     C_R   0.429945 0.043761 0.470271 -0.159111
C24   C     C_R   0.540324 0.426030 0.100076 -0.025612
C25   C     C_R   0.419928 0.377818 0.843227 0.299886
C26   C     C_R   0.579539 0.377468 0.156955 0.300042
C27   C     C_R   0.426430 0.405170 0.763222 -0.247013
C28   C     C_R   0.573126 0.404860 0.236932 -0.246415
C29   C     C_2   0.460147 0.397792 0.984291 -0.035799
C30   C     C_2   0.539483 0.397592 0.015851 -0.035919
C31   C     C_R   0.626651 0.389012 0.963199 0.156984
C32   C     C_R   0.698411 0.443453 0.972848 -0.119652
C33   C     C_R   0.779152 0.435808 0.922529 -0.085536
C34   C     C_R   0.570079 0.956267 0.529672 -0.152046
C35   C     C_R   0.789281 0.373723 0.862439 -0.086797
C36   C     C_R   0.718792 0.318886 0.852758 -0.127602
C37   C     C_R   0.637958 0.326197 0.902954 -0.086075
C38   C     C_R   0.372923 0.389750 0.036966 0.157068
C39   C     C_R   0.301518 0.444577 0.027212 -0.119831
C40   C     C_R   0.220749 0.437467 0.077583 -0.085610
C41   C     C_R   0.210237 0.375540 0.137836 -0.086779
C42   C     C_R   0.280363 0.320316 0.147616 -0.127822
C43   C     C_R   0.361220 0.327086 0.097364 -0.086041
C44   C     C_R   0.499996 0.086870 0.499992 0.161491
C45   C     C_R   0.500024 0.913155 0.499955 0.154304
C46   C     C_R   0.570064 0.043762 0.529691 -0.158961
C47   C     C_R   0.429957 0.956265 0.470255 -0.151776
C48   C     C_1   0.499981 0.175653 0.500011 -0.046485
H1    H     H_    0.601104 0.366210 0.281554 0.187624
H2    H     H_    0.100306 0.495207 0.370394 0.182077
H3    H     H_    0.691627 0.492615 0.018433 0.151230
H4    H     H_    0.833832 0.478255 0.929968 0.159379
H5    H     H_    0.851793 0.368045 0.823444 0.156753
H6    H     H_    0.726796 0.270611 0.806366 0.149525
H7    H     H_    0.584220 0.282787 0.894975 0.165950
H8    H     H_    0.308607 0.493633 0.981508 0.151318
H9    H     H_    0.166348 0.480212 0.070064 0.159385
H10   H     H_    0.147709 0.370286 0.176878 0.157838
H11   H     H_    0.272061 0.272164 0.194134 0.149610
H12   H     H_    0.398170 0.366660 0.718676 0.187413
H13   H     H_    0.414672 0.283386 0.105429 0.165879
H14   H     H_    0.470248 0.541886 0.078970 0.179319
H15   H     H_    0.530317 0.541657 0.920934 0.179284
H16   H     H_    0.375792 0.922349 0.447283 0.160095
H17   H     H_    0.624226 0.077680 0.552667 0.152385
H18   H     H_    0.375773 0.077677 0.447309 0.152344
H19   H     H_    0.624251 0.922352 0.552634 0.160023
H20   H     H_    0.899697 0.503690 0.629606 0.183407
N1    N     N_1   0.729450 0.499980 0.500020 -0.073214
N2    N     N_1   0.270550 0.500020 0.499980 -0.073293
O1    O     O_R   0.426350 0.621980 0.500000 -0.597169
O2    O     O_R   0.573650 0.378020 0.500000 -0.613202
O3    O     O_R   0.573690 0.621980 0.499960 -0.597764
O4    O     O_R   0.426310 0.378020 0.500040 -0.613850
O5    O     O_R   0.417630 0.500010 0.615820 -0.602223
O6    O     O_R   0.582370 0.499990 0.384180 -0.602132
O7    O     O_R   0.564960 0.500010 0.615780 -0.589471
O8    O     O_R   0.435040 0.499990 0.384220 -0.589609
Zn1   Zn    Zn3+2 0.401630 0.500000 0.500020 1.029474
Zn2   Zn    Zn3+2 0.598370 0.500000 0.499980 1.029643

loop_
_geom_bond_atom_site_label_1
_geom_bond_atom_site_label_2
_ccdc_geom_bond_type
C38   C43   A    
C35   C36   A    
C29   C30   D    
C33   C35   A    
C39   C40   A    
O4    Zn1   S    
C10   H20   S    
C30   C31   S    
C18   C20   A    
Br5   C5    S    
Br6   C6    S    
C32   C33   A    
C39   H8    S    
C34   H19   S    
C21   H14   S    
C22   C29   S    
C2    C3    T    
C11   N2    T    
C44   C46   A    
C25   C27   A    
C42   H11   S    
C1    O1    A    
C23   H18   S    
O2    Zn2   S    
O1    Zn1   S    
C28   H1    S    
C14   O5    A    
C21   C24   A    
C47   H16   S    
C27   H12   S    
C23   C44   A    
C15   C17   S    
O8    Zn1   S    
C35   H5    S    
C36   H6    S    
C41   H10   S    
O6    Zn2   S    
C33   H4    S    
C45   C47   A    
C26   C28   A    
C31   C37   A    
C31   C32   A    
C32   H3    S    
C5    C10   A    
N1    Zn2   S    
C41   C42   A    
C15   O8    A    
C12   O2    A    
C17   C28   A    
C44   C48   S    
Br3   C25   S    
C29   C38   S    
C2    C45   S    
Br4   C26   S    
C42   C43   A    
C14   C16   S    
C6    C9    A    
C7    C9    A    
C8    C10   A    
C36   C37   A    
C38   C39   A    
C37   H7    S    
C1    O3    A    
C1    C3    S    
C16   C27   A    
C40   C41   A    
C43   H13   S    
C8    C13   S    
C22   C25   A    
C6    C8    A    
C7    C11   S    
C19   C21   A    
C34   C45   A    
C20   C22   A    
C24   C30   S    
C40   H9    S    
C9    H2    S    
C13   N1    T    
C46   H17   S    
C34   C46   A    
C24   C26   A    
C5    C7    A    
C23   C47   A    
C4    C12   S    
Br2   C19   S    
C16   C18   A    
C17   C19   A    
C4    C48   T    
O7    Zn2   S    
C15   O6    A    
Br1   C18   S    
C12   O4    A    
C14   O7    A    
C20   H15   S    
N2    Zn1   S    
O3    Zn2   S    
O5    Zn1   S    
