data_mof_unit_13110.cif
_audit_creation_date              2012-12-10T17:32:57-0500
_audit_creation_method            fapswitch 2.2
_symmetry_space_group_name_H-M    P1
_symmetry_Int_Tables_number       1
_space_group_crystal_system       triclinic
_cell_length_a                    12.35879
_cell_length_b                    13.202176
_cell_length_c                    14.293007
_cell_angle_alpha                 93.55605
_cell_angle_beta                  107.632574
_cell_angle_gamma                 116.821654
_cell_volume                      1928.52265531

loop_
_atom_site_label
_atom_site_type_symbol
_atom_type_description
_atom_site_fract_x
_atom_site_fract_y
_atom_site_fract_z
_atom_type_partial_charge
C1    C     C_R   0.649915 0.714540 0.507445 0.814276
C2    C     C_R   0.841311 0.488818 0.916788 0.091056
C3    C     C_R   0.786069 0.497900 0.988451 0.166232
C4    C     C_R   0.948504 0.467484 0.944195 0.064528
C5    C     C_R   0.008166 0.468536 0.046565 0.065134
C6    C     C_R   0.948588 0.475612 0.115420 -0.223847
C7    C     C_R   0.839111 0.489217 0.086381 -0.235834
C8    C     C_R   0.996110 0.442556 0.872314 -0.221961
C9    C     C_R   0.104259 0.427016 0.901034 -0.229913
C10   C     C_R   0.170469 0.437978 0.002237 0.168025
C11   C     C_R   0.124238 0.460445 0.076192 0.088647
C12   C     C_R   0.617925 0.516156 0.686563 0.797270
C13   C     C_R   0.283263 0.427343 0.030426 -0.200135
C14   C     C_R   0.352443 0.441001 0.131712 -0.201372
C15   C     C_R   0.198337 0.477907 0.177867 -0.256850
C16   C     C_R   0.145882 0.963136 0.369309 -0.209424
C17   C     C_R   0.252048 0.161364 0.465915 -0.046700
C18   C     C_R   0.719190 0.926515 0.558811 0.450861
C19   C     C_R   0.817520 0.042873 0.583482 -0.244822
C20   C     C_R   0.924883 0.073770 0.556563 -0.258340
C21   C     C_R   0.935583 0.989449 0.499789 0.084619
C22   C     C_R   0.832630 0.872160 0.469342 0.017831
C23   C     C_R   0.345928 0.285046 0.485544 0.803535
C24   C     C_R   0.043630 0.018663 0.469785 0.095093
C25   C     C_R   0.041544 0.933908 0.402016 0.169742
C26   C     C_R   0.933450 0.822312 0.364818 -0.239369
C27   C     C_R   0.829756 0.792396 0.396555 -0.172909
C28   C     C_R   0.153385 0.130475 0.504183 -0.253683
C29   C     C_R   0.250208 0.076934 0.400244 -0.212123
C30   C     C_R   0.732890 0.838788 0.509795 -0.209533
C31   C     C_R   0.252151 0.679170 0.666944 -0.319153
C32   C     C_R   0.655251 0.343294 0.362278 0.058906
C33   C     C_R   0.733220 0.310100 0.330748 -0.264994
C34   C     C_R   0.380843 0.482125 0.313261 0.786853
C35   C     C_R   0.868335 0.369271 0.382088 -0.200385
C36   C     C_R   0.927955 0.463169 0.466385 -0.005520
C37   C     C_R   0.843705 0.494611 0.495654 0.289206
C38   C     C_R   0.067340 0.526621 0.522890 -0.039260
C39   C     C_R   0.118122 0.617934 0.608177 0.178882
C40   C     C_R   0.035173 0.648114 0.634558 -0.284001
C41   C     C_R   0.901769 0.588925 0.579117 -0.197257
C42   C     C_R   0.159721 0.503939 0.499428 0.002402
C43   C     C_R   0.336929 0.651777 0.640630 0.076605
C44   C     C_R   0.678155 0.516743 0.792223 -0.049879
C45   C     C_R   0.310555 0.467218 0.205918 -0.047177
C46   C     C_R   0.677593 0.515082 0.961156 -0.203061
C47   C     C_R   0.622994 0.523222 0.863185 -0.192187
C48   C     C_R   0.788563 0.503384 0.820309 -0.256667
Cu1   Cu    Cu3+1 0.416420 0.526630 0.522910 0.947589
Cu2   Cu    Cu3+1 0.583580 0.473370 0.477090 0.915500
H1    H     H_    0.796363 0.493953 0.141382 0.145265
H2    H     H_    0.318321 0.409068 0.974115 0.131115
H3    H     H_    0.326542 0.099746 0.370052 0.147933
H4    H     H_    0.928128 0.758134 0.309825 0.142938
H5    H     H_    0.144699 0.898962 0.317293 0.138905
H6    H     H_    0.164347 0.196731 0.559852 0.146243
H7    H     H_    0.994611 0.165648 0.577862 0.151658
H8    H     H_    0.811982 0.110302 0.625556 0.149743
H9    H     H_    0.745092 0.707389 0.359433 0.172415
H10   H     H_    0.440306 0.699113 0.685931 0.152804
H11   H     H_    0.172560 0.503235 0.237185 0.150532
H12   H     H_    0.073980 0.719017 0.699059 0.155878
H13   H     H_    0.291362 0.748427 0.732835 0.142625
H14   H     H_    0.129485 0.436334 0.435584 0.123774
H15   H     H_    0.550659 0.296704 0.321632 0.123988
H16   H     H_    0.923688 0.339558 0.354556 0.135937
H17   H     H_    0.688623 0.238024 0.266113 0.147064
H18   H     H_    0.847698 0.620360 0.604912 0.207515
H19   H     H_    0.439157 0.432276 0.151902 0.149223
H20   H     H_    0.137438 0.408018 0.843603 0.144053
H21   H     H_    0.634142 0.520904 0.015320 0.129792
H22   H     H_    0.537254 0.533459 0.842843 0.152089
H23   H     H_    0.832843 0.506217 0.765590 0.153137
H24   H     H_    0.981520 0.467113 0.191928 0.142741
H25   H     H_    0.949680 0.430802 0.792334 0.149174
N1    N     N_R   0.290690 0.566960 0.557640 -0.180976
N2    N     N_R   0.709100 0.433710 0.442970 -0.203188
O1    O     O_R   0.545970 0.684450 0.528810 -0.518532
O2    O     O_R   0.687130 0.639470 0.490120 -0.611131
O3    O     O_R   0.519670 0.535100 0.660030 -0.586117
O4    O     O_R   0.660830 0.490120 0.621340 -0.601788
O5    O     O_R   0.312870 0.360530 0.509880 -0.586258
O6    O     O_R   0.454030 0.315550 0.471190 -0.586851
O7    O     O_R   0.339170 0.509880 0.378660 -0.591485
O8    O     O_R   0.480330 0.464900 0.339970 -0.597842
O9    O     O_3   0.612840 0.897668 0.587036 -0.568530
C49   C     C_3   0.540081 0.948410 0.535323 0.063556
H26   H     H_    0.525048 0.935704 0.453503 0.132725
H27   H     H_    0.589897 0.043298 0.570049 0.144543
C50   C     C_3   0.406384 0.891734 0.543057 -0.760850
H28   H     H_    0.417093 0.900159 0.623560 0.246625
H29   H     H_    0.351830 0.935569 0.507453 0.209247
H30   H     H_    0.350162 0.798129 0.503247 0.253877

loop_
_geom_bond_atom_site_label_1
_geom_bond_atom_site_label_2
_ccdc_geom_bond_type
C49   H26   S    
C23   O5    A    
C17   C29   A    
C35   C36   A    
C4    C8    A    
Cu2   O2    S    
C28   H6    S    
C26   C27   A    
C17   C23   S    
C31   C43   A    
Cu1   O7    S    
C36   C37   A    
C5    C11   A    
C3    C7    A    
C38   C39   A    
C16   C25   A    
C40   H12   S    
Cu1   O1    S    
C18   C19   A    
Cu2   O8    S    
C32   N2    A    
C11   C15   A    
C19   C20   A    
C8    C9    A    
C18   C30   A    
C41   H18   S    
C9    C10   A    
C44   C47   A    
C21   C22   A    
C1    O1    A    
C34   O7    A    
C26   H4    S    
Cu2   O6    S    
C6    H24   S    
C14   C45   A    
C19   H8    S    
C31   H13   S    
C24   C25   A    
C39   C40   A    
O9    C49   S    
C35   H16   S    
C2    C48   A    
C25   C26   A    
C37   N2    A    
C8    H25   S    
C34   O8    A    
Cu1   O5    S    
C2    C4    A    
C13   H2    S    
C50   H29   S    
C15   H11   S    
Cu1   N1    S    
C34   C45   S    
C18   O9    S    
C9    H20   S    
C46   H21   S    
C23   O6    A    
C43   H10   S    
C40   C41   A    
C22   C27   A    
C49   H27   S    
C1    O2    A    
C14   H19   S    
C49   C50   S    
C15   C45   A    
Cu2   N2    S    
C42   H14   S    
C33   H17   S    
C50   H30   S    
C43   N1    A    
C46   C47   A    
C22   C30   A    
C17   C28   A    
C48   H23   S    
C24   C28   A    
C4    C5    A    
C10   C13   A    
C38   C42   A    
C6    C7    A    
C3    C46   A    
C42   N1    A    
Cu1   O3    S    
C32   C33   A    
C36   C38   A    
C2    C3    A    
C16   C29   A    
C16   H5    S    
C7    H1    S    
C12   C44   S    
C27   H9    S    
C50   H28   S    
C5    C6    A    
C29   H3    S    
C12   O3    A    
C1    C30   S    
C33   C35   A    
C31   C39   A    
C12   O4    A    
C37   C41   A    
C47   H22   S    
C10   C11   A    
C20   C21   A    
Cu1   Cu2   S    
C21   C24   A    
C20   H7    S    
C13   C14   A    
C44   C48   A    
Cu2   O4    S    
C32   H15   S    
