data_mof_unit_17385.cif
_audit_creation_date              2012-12-10T17:27:48-0500
_audit_creation_method            fapswitch 2.2
_symmetry_space_group_name_H-M    P1
_symmetry_Int_Tables_number       1
_space_group_crystal_system       monoclinic
_cell_length_a                    18.306167
_cell_length_b                    18.301506
_cell_length_c                    43.022979
_cell_angle_alpha                 90.0
_cell_angle_beta                  90.0
_cell_angle_gamma                 89.831635
_cell_volume                      14413.9447153

loop_
_atom_site_label
_atom_site_type_symbol
_atom_type_description
_atom_site_fract_x
_atom_site_fract_y
_atom_site_fract_z
_atom_type_partial_charge
C1    C     C_R   0.003546 0.565991 0.885021 -0.305715
C2    C     C_R   0.530704 0.941415 0.615369 -0.298323
C3    C     C_R   0.639845 0.860150 0.749998 0.790725
C4    C     C_R   0.139901 0.639903 0.249997 0.787954
C5    C     C_R   0.860099 0.360097 0.750002 0.788396
C6    C     C_R   0.639848 0.860151 0.250004 0.791215
C7    C     C_R   0.360155 0.139850 0.749998 0.790725
C8    C     C_R   0.500000 1.000000 0.531758 0.370063
C9    C     C_R   0.500000 0.000000 0.468555 0.361161
C10   C     C_R   1.000000 0.500000 0.531583 0.385084
C11   C     C_R   1.000000 0.500000 0.468495 0.392738
C12   C     C_R   0.000000 0.500000 0.031455 0.324970
C13   C     C_R   0.934225 0.494039 0.385013 -0.311501
C14   C     C_R   0.000000 0.500000 0.968383 0.371163
C15   C     C_R   0.500000 0.000000 0.031606 0.370161
C16   C     C_R   0.500000 0.000000 0.968415 0.369827
C17   C     C_R   0.000000 0.500000 0.868556 -0.118388
C18   C     C_R   0.000000 0.500000 0.131468 -0.135006
C19   C     C_R   0.500000 1.000000 0.868358 -0.116309
C20   C     C_R   0.500000 0.000000 0.131653 -0.114763
C21   C     C_R   0.500000 0.000000 0.368367 -0.122309
C22   C     C_R   0.500000 1.000000 0.631710 -0.113979
C23   C     C_R   0.000000 0.500000 0.368556 -0.112986
C24   C     C_R   0.065331 0.509581 0.615018 -0.296518
C25   C     C_R   1.000000 0.500000 0.631478 -0.124121
C26   C     C_R   0.286151 0.606410 0.769827 -0.142314
C27   C     C_R   0.713813 0.393621 0.230229 -0.143890
C28   C     C_R   0.373989 0.266175 0.788893 -0.147269
C29   C     C_R   0.625854 0.733664 0.211215 -0.146094
C30   C     C_R   0.713849 0.393589 0.769827 -0.142314
C31   C     C_R   0.286186 0.606378 0.230229 -0.143890
C32   C     C_R   0.626011 0.733825 0.788893 -0.147269
C33   C     C_R   0.374145 0.266336 0.211215 -0.146095
C34   C     C_R   0.266278 0.374155 0.211197 -0.145369
C35   C     C_R   0.476695 0.938318 0.384749 -0.295602
C36   C     C_R   0.733862 0.625990 0.788899 -0.148304
C37   C     C_R   0.393583 0.713768 0.230236 -0.143179
C38   C     C_R   0.606449 0.286201 0.769817 -0.142587
C39   C     C_R   0.733722 0.625845 0.211197 -0.145369
C40   C     C_R   0.266138 0.374010 0.788899 -0.148304
C41   C     C_R   0.606417 0.286232 0.230236 -0.143179
C42   C     C_R   0.393551 0.713799 0.769817 -0.142587
C43   C     C_R   0.786190 0.106371 0.269764 -0.142184
C44   C     C_R   0.213849 0.893589 0.730173 -0.142419
C45   C     C_R   0.874115 0.766301 0.288812 -0.147970
C46   C     C_R   0.469296 0.058585 0.615369 -0.298323
C47   C     C_R   0.125995 0.233797 0.711121 -0.147992
C48   C     C_R   0.213810 0.893628 0.269764 -0.142184
C49   C     C_R   0.786151 0.106411 0.730173 -0.142419
C50   C     C_R   0.125885 0.233699 0.288812 -0.147970
C51   C     C_R   0.874005 0.766202 0.711121 -0.147992
C52   C     C_R   0.766122 0.874006 0.711096 -0.147711
C53   C     C_R   0.233740 0.125867 0.288821 -0.146932
C54   C     C_R   0.893550 0.213800 0.730182 -0.142283
C55   C     C_R   0.106410 0.786242 0.269753 -0.141907
C56   C     C_R   0.233878 0.125994 0.711096 -0.147711
C57   C     C_R   0.065775 0.505961 0.385013 -0.311501
C58   C     C_R   0.766260 0.874133 0.288821 -0.146932
C59   C     C_R   0.106450 0.786200 0.730182 -0.142283
C60   C     C_R   0.893590 0.213758 0.269753 -0.141908
C61   C     C_R   0.356968 0.589417 0.779273 -0.141924
C62   C     C_R   0.642976 0.410634 0.220818 -0.142574
C63   C     C_R   0.380923 0.327193 0.808036 -0.148508
C64   C     C_R   0.618861 0.672586 0.192110 -0.148936
C65   C     C_R   0.643031 0.410583 0.779273 -0.141924
C66   C     C_R   0.357023 0.589366 0.220818 -0.142574
C67   C     C_R   0.619077 0.672807 0.808036 -0.148508
C68   C     C_R   0.934669 0.490419 0.615018 -0.296518
C69   C     C_R   0.381138 0.327414 0.192110 -0.148937
C70   C     C_R   0.327351 0.381174 0.192101 -0.148342
C71   C     C_R   0.672856 0.619037 0.808040 -0.151286
C72   C     C_R   0.410573 0.642912 0.220821 -0.141834
C73   C     C_R   0.589480 0.357037 0.779268 -0.141887
C74   C     C_R   0.672649 0.618826 0.192101 -0.148342
C75   C     C_R   0.327144 0.380963 0.808040 -0.151287
C76   C     C_R   0.589427 0.357088 0.220821 -0.141833
C77   C     C_R   0.410520 0.642963 0.779268 -0.141888
C78   C     C_R   0.857029 0.089356 0.279172 -0.141143
C79   C     C_R   0.322200 0.732249 0.759562 0.072128
C80   C     C_R   0.143031 0.910583 0.720728 -0.141595
C81   C     C_R   0.881098 0.827369 0.307923 -0.151796
C82   C     C_R   0.119066 0.172781 0.691977 -0.150736
C83   C     C_R   0.142971 0.910644 0.279172 -0.141144
C84   C     C_R   0.856969 0.089417 0.720728 -0.141595
C85   C     C_R   0.118902 0.172631 0.307923 -0.151796
C86   C     C_R   0.880934 0.827219 0.691977 -0.150735
C87   C     C_R   0.827137 0.880970 0.691962 -0.148596
C88   C     C_R   0.172682 0.118864 0.307928 -0.150764
C89   C     C_R   0.910520 0.142964 0.720732 -0.141603
C90   C     C_R   0.677785 0.267765 0.240464 0.071981
C91   C     C_R   0.089419 0.857099 0.279167 -0.141262
C92   C     C_R   0.172863 0.119030 0.691962 -0.148596
C93   C     C_R   0.827318 0.881136 0.307928 -0.150764
C94   C     C_R   0.089480 0.857036 0.720732 -0.141603
C95   C     C_R   0.910581 0.142901 0.279167 -0.141262
C96   C     C_R   0.000000 0.500000 0.934068 -0.108274
C97   C     C_R   0.000000 0.500000 0.065848 -0.139650
C98   C     C_R   0.500000 0.000000 0.933927 -0.124799
C99   C     C_R   0.500000 1.000000 0.066092 -0.124395
C100  C     C_R   0.500000 1.000000 0.434003 -0.130384
C101  C     C_R   0.257711 0.312324 0.769350 0.074250
C102  C     C_R   0.500000 1.000000 0.566206 -0.123643
C103  C     C_R   1.000000 0.500000 0.434104 -0.108872
C104  C     C_R   1.000000 0.500000 0.565931 -0.122818
C105  C     C_3   0.948233 0.677232 0.928478 0.096606
C106  C     C_3   0.947481 0.737923 0.952890 -0.303819
C107  C     C_3   0.883484 0.790310 0.948009 -0.975750
C108  C     C_3   0.942046 0.334712 0.065166 0.085910
C109  C     C_3   0.947508 0.266466 0.044816 -0.296927
C110  C     C_3   0.874281 0.227181 0.042523 -0.975044
C111  C     C_3   0.318978 0.017331 0.930994 0.096189
C112  C     C_R   0.006029 0.434179 0.114993 -0.291226
C113  C     C_R   0.742214 0.687597 0.230704 0.074221
C114  C     C_3   0.261644 0.047227 0.953540 -0.305482
C115  C     C_3   0.192603 0.000731 0.953458 -0.979481
C116  C     C_3   0.680300 0.022935 0.068941 0.095905
C117  C     C_3   0.736351 0.054628 0.046332 -0.305725
C118  C     C_3   0.807028 0.010241 0.046282 -0.977789
C119  C     C_3   0.051766 0.322768 0.928478 0.096606
C120  C     C_3   0.052519 0.262077 0.952890 -0.303819
C121  C     C_3   0.116516 0.209690 0.948009 -0.975749
C122  C     C_3   0.057954 0.665288 0.065166 0.085909
C123  C     C_3   0.052492 0.733534 0.044816 -0.296926
C124  C     C_R   0.677799 0.267751 0.759562 0.072128
C125  C     C_3   0.125719 0.772819 0.042523 -0.975044
C126  C     C_3   0.681022 0.982669 0.930994 0.096189
C127  C     C_3   0.738356 0.952773 0.953540 -0.305483
C128  C     C_3   0.807397 0.999269 0.953458 -0.979482
C129  C     C_3   0.319699 0.977065 0.068941 0.095903
C130  C     C_3   0.263649 0.945372 0.046332 -0.305724
C131  C     C_3   0.192972 0.989759 0.046282 -0.977789
C132  C     C_3   0.500404 0.180575 0.431630 0.093988
C133  C     C_3   0.526580 0.241571 0.453162 -0.292215
C134  C     C_3   0.470906 0.303562 0.455057 -0.994226
C135  C     C_R   0.322215 0.732235 0.240464 0.071981
C136  C     C_3   0.526645 0.819775 0.569306 0.095487
C137  C     C_3   0.559372 0.763799 0.546840 -0.303412
C138  C     C_3   0.516052 0.692708 0.546901 -0.977108
C139  C     C_3   0.817104 0.539769 0.426292 0.093522
C140  C     C_3   0.763219 0.547381 0.453232 -0.302367
C141  C     C_3   0.702777 0.602234 0.445915 -0.986216
C142  C     C_3   0.177757 0.462333 0.568767 0.095153
C143  C     C_3   0.244301 0.476246 0.548166 -0.297118
C144  C     C_3   0.294268 0.409458 0.546514 -0.986034
C145  C     C_3   0.499596 0.819425 0.431630 0.093988
C146  C     C_R   0.742289 0.687676 0.769350 0.074250
C147  C     C_3   0.473420 0.758428 0.453162 -0.292215
C148  C     C_3   0.529094 0.696438 0.455057 -0.994226
C149  C     C_3   0.473355 0.180225 0.569306 0.095487
C150  C     C_3   0.440628 0.236201 0.546840 -0.303412
C151  C     C_3   0.483948 0.307291 0.546901 -0.977108
C152  C     C_3   0.182896 0.460231 0.426292 0.093521
C153  C     C_3   0.236780 0.452619 0.453232 -0.302368
C154  C     C_3   0.297223 0.397766 0.445915 -0.986217
C155  C     C_3   0.822243 0.537667 0.568767 0.095153
C156  C     C_3   0.755699 0.523754 0.548166 -0.297119
C157  C     C_R   0.257786 0.312403 0.230704 0.074221
C158  C     C_3   0.705732 0.590542 0.546514 -0.986035
C159  C     C_R   0.312395 0.257813 0.230711 0.074156
C160  C     C_R   0.687684 0.742270 0.769346 0.073963
C161  C     C_R   0.267741 0.677767 0.240459 0.072026
C162  C     C_R   0.732275 0.322219 0.759567 0.072264
C163  C     C_R   0.687605 0.742187 0.230711 0.074156
C164  C     C_R   0.440048 0.027867 0.884731 -0.297984
C165  C     C_R   0.312316 0.257730 0.769346 0.073963
C166  C     C_R   0.732259 0.322233 0.240459 0.072026
C167  C     C_R   0.267725 0.677780 0.759567 0.072264
C168  C     C_R   0.822220 0.232229 0.259529 0.072098
C169  C     C_R   0.177800 0.767750 0.740438 0.072227
C170  C     C_R   0.757776 0.812390 0.269309 0.074218
C171  C     C_R   0.242294 0.187674 0.730651 0.073956
C172  C     C_R   0.177780 0.767771 0.259529 0.072098
C173  C     C_R   0.822200 0.232249 0.740438 0.072227
C174  C     C_R   0.242224 0.187610 0.269309 0.074218
C175  C     C_R   0.558987 0.029529 0.115287 -0.297482
C176  C     C_R   0.757705 0.812326 0.730651 0.073956
C177  C     C_R   0.812319 0.757741 0.730660 0.074183
C178  C     C_R   0.187619 0.242203 0.269304 0.074341
C179  C     C_R   0.767725 0.177781 0.740432 0.072147
C180  C     C_R   0.232255 0.822239 0.259535 0.071996
C181  C     C_R   0.187681 0.242258 0.730660 0.074183
C182  C     C_R   0.812381 0.757796 0.269304 0.074341
C183  C     C_R   0.232275 0.822219 0.740432 0.072147
C184  C     C_R   0.767745 0.177761 0.259535 0.071996
C185  C     C_R   0.304019 0.804012 0.749994 -0.158860
C186  C     C_R   0.996454 0.434009 0.885021 -0.305715
C187  C     C_R   0.695981 0.195986 0.250004 -0.159151
C188  C     C_R   0.195925 0.304059 0.750006 -0.152639
C189  C     C_R   0.804075 0.695936 0.249998 -0.152171
C190  C     C_R   0.695981 0.195988 0.749994 -0.158860
C191  C     C_R   0.304018 0.804014 0.250004 -0.159151
C192  C     C_R   0.804075 0.695941 0.750006 -0.152639
C193  C     C_R   0.195925 0.304064 0.249998 -0.152171
C194  C     C_R   0.304076 0.195940 0.250009 -0.152170
C195  C     C_R   0.695922 0.804062 0.749995 -0.152371
C196  C     C_R   0.195980 0.695989 0.249993 -0.159192
C197  C     C_R   0.993971 0.565821 0.114993 -0.291226
C198  C     C_R   0.804019 0.304013 0.750005 -0.158718
C199  C     C_R   0.695924 0.804060 0.250009 -0.152170
C200  C     C_R   0.304078 0.195938 0.749995 -0.152371
C201  C     C_R   0.804020 0.304011 0.249993 -0.159192
C202  C     C_R   0.195980 0.695987 0.750005 -0.158718
C203  C     C_R   0.001761 0.566724 0.917638 0.426780
C204  C     C_R   0.004926 0.433526 0.082460 0.434673
C205  C     C_R   0.439087 0.027524 0.917308 0.429557
C206  C     C_R   0.559913 0.029305 0.082707 0.429738
C207  C     C_R   0.998239 0.433275 0.917638 0.426781
C208  C     C_R   0.559952 0.972133 0.884731 -0.297984
C209  C     C_R   0.995074 0.566474 0.082460 0.434673
C210  C     C_R   0.560913 0.972476 0.917308 0.429557
C211  C     C_R   0.440087 0.970695 0.082707 0.429738
C212  C     C_R   0.522754 0.062695 0.417302 0.430455
C213  C     C_R   0.530455 0.940453 0.582797 0.430041
C214  C     C_R   0.933399 0.495571 0.417663 0.431524
C215  C     C_R   0.066178 0.508157 0.582438 0.425932
C216  C     C_R   0.477246 0.937305 0.417302 0.430455
C217  C     C_R   0.469545 0.059547 0.582797 0.430042
C218  C     C_R   0.066601 0.504429 0.417663 0.431524
C219  C     C_R   0.441013 0.970471 0.115287 -0.297482
C220  C     C_R   0.933822 0.491843 0.582438 0.425932
C221  C     C_R   1.000000 0.500000 0.665762 0.838255
C222  C     C_R   0.000000 0.500000 0.334249 0.838534
C223  C     C_R   0.500000 1.000000 0.665841 0.836580
C224  C     C_R   0.500000 1.000000 0.334186 0.838183
C225  C     C_R   0.500000 1.000000 0.165823 0.836145
C226  C     C_R   0.500000 0.000000 0.834181 0.836585
C227  C     C_R   0.000000 0.500000 0.165755 0.839569
C228  C     C_R   0.000000 0.500000 0.834251 0.838304
C229  C     C_R   0.860154 0.639851 0.750002 0.791077
C230  C     C_R   0.523305 0.061682 0.384749 -0.295602
C231  C     C_R   0.139845 0.360149 0.249999 0.791170
C232  C     C_R   0.360099 0.860097 0.749998 0.788281
C233  C     C_R   0.639901 0.139902 0.250002 0.787578
C234  C     C_R   0.139846 0.360149 0.750002 0.791077
C235  C     C_R   0.860155 0.639850 0.249999 0.791170
C236  C     C_R   0.639901 0.139903 0.749998 0.788281
C237  C     C_R   0.360099 0.860098 0.250002 0.787578
C238  C     C_R   0.860099 0.360096 0.249997 0.787954
C239  C     C_R   0.139901 0.639903 0.750002 0.788396
C240  C     C_R   0.360152 0.139849 0.250004 0.791215
H1    H     H_    0.246248 0.563042 0.770912 0.129528
H2    H     H_    0.774289 0.582758 0.789690 0.111460
H3    H     H_    0.152229 0.024224 0.969954 0.268271
H4    H     H_    0.205466 0.943974 0.960853 0.269083
H5    H     H_    0.670081 0.964803 0.062434 0.142687
H6    H     H_    0.703189 0.025169 0.092890 0.138934
H7    H     H_    0.713215 0.054945 0.022441 0.240387
H8    H     H_    0.748699 0.111926 0.053032 0.230156
H9    H     H_    0.831816 0.009895 0.069847 0.271111
H10   H     H_    0.846434 0.035053 0.029775 0.268035
H11   H     H_    0.796166 0.953179 0.038828 0.269309
H12   H     H_    0.103907 0.353953 0.930434 0.139420
H13   H     H_    0.436956 0.753664 0.229155 0.129555
H14   H     H_    0.048205 0.297369 0.905038 0.141387
H15   H     H_    0.056857 0.286771 0.976416 0.235878
H16   H     H_    0.000575 0.230894 0.951639 0.227683
H17   H     H_    0.112522 0.182946 0.924895 0.269896
H18   H     H_    0.115565 0.166751 0.966237 0.269181
H19   H     H_    0.169148 0.239503 0.949622 0.269608
H20   H     H_    0.098698 0.627337 0.054512 0.138272
H21   H     H_    0.076940 0.681575 0.088772 0.140359
H22   H     H_    0.034452 0.717618 0.021103 0.230784
H23   H     H_    0.011198 0.771546 0.054774 0.228513
H24   H     H_    0.563076 0.246304 0.770894 0.129569
H25   H     H_    0.144047 0.790792 0.065913 0.267175
H26   H     H_    0.119859 0.821717 0.027438 0.267999
H27   H     H_    0.167697 0.736147 0.032234 0.271473
H28   H     H_    0.668684 0.040450 0.937509 0.141823
H29   H     H_    0.703843 0.981135 0.907021 0.138980
H30   H     H_    0.715428 0.951839 0.977463 0.239988
H31   H     H_    0.752696 0.895862 0.946847 0.232126
H32   H     H_    0.832026 0.000188 0.929866 0.270954
H33   H     H_    0.847771 0.975776 0.969954 0.268271
H34   H     H_    0.794534 0.056026 0.960853 0.269083
H35   H     H_    0.774153 0.582618 0.210404 0.111346
H36   H     H_    0.329919 0.035197 0.062434 0.142687
H37   H     H_    0.296811 0.974831 0.092890 0.138934
H38   H     H_    0.286785 0.945055 0.022441 0.240387
H39   H     H_    0.251301 0.888074 0.053032 0.230156
H40   H     H_    0.168184 0.990105 0.069847 0.271111
H41   H     H_    0.153566 0.964947 0.029775 0.268035
H42   H     H_    0.203834 0.046821 0.038828 0.269309
H43   H     H_    0.445359 0.162306 0.439588 0.142761
H44   H     H_    0.496049 0.202624 0.407579 0.136774
H45   H     H_    0.535673 0.219237 0.476884 0.240662
H46   H     H_    0.225711 0.417242 0.789690 0.111460
H47   H     H_    0.579304 0.263433 0.444413 0.227075
H48   H     H_    0.460534 0.326771 0.431606 0.274442
H49   H     H_    0.492199 0.347518 0.470329 0.271196
H50   H     H_    0.418803 0.283189 0.465000 0.270559
H51   H     H_    0.468244 0.828908 0.562874 0.143231
H52   H     H_    0.529627 0.797332 0.593319 0.138465
H53   H     H_    0.559438 0.786718 0.522914 0.239918
H54   H     H_    0.616823 0.752009 0.553603 0.228568
H55   H     H_    0.516474 0.667878 0.570459 0.270204
H56   H     H_    0.541136 0.653565 0.530308 0.268089
H57   H     H_    0.563044 0.246336 0.229155 0.129555
H58   H     H_    0.458728 0.703039 0.539615 0.269223
H59   H     H_    0.786667 0.523301 0.405059 0.147514
H60   H     H_    0.843128 0.594135 0.422365 0.132182
H61   H     H_    0.738256 0.493381 0.458317 0.232006
H62   H     H_    0.793073 0.566052 0.474244 0.234801
H63   H     H_    0.726284 0.657107 0.441406 0.269018
H64   H     H_    0.665217 0.606102 0.466110 0.274057
H65   H     H_    0.671084 0.584281 0.425280 0.271316
H66   H     H_    0.149981 0.411639 0.560623 0.147102
H67   H     H_    0.196838 0.454361 0.593107 0.133652
H68   H     H_    0.436923 0.753696 0.770894 0.129569
H69   H     H_    0.225800 0.490438 0.524331 0.235335
H70   H     H_    0.275577 0.523331 0.557533 0.224323
H71   H     H_    0.314446 0.394814 0.570060 0.272583
H72   H     H_    0.341867 0.421888 0.531447 0.267673
H73   H     H_    0.264602 0.362210 0.536418 0.269573
H74   H     H_    0.554641 0.837694 0.439588 0.142761
H75   H     H_    0.503951 0.797376 0.407579 0.136774
H76   H     H_    0.464327 0.780762 0.476884 0.240662
H77   H     H_    0.420696 0.736567 0.444413 0.227075
H78   H     H_    0.539466 0.673229 0.431606 0.274441
H79   H     H_    0.746290 0.063002 0.270852 0.129706
H80   H     H_    0.507801 0.652482 0.470329 0.271196
H81   H     H_    0.581197 0.716811 0.465000 0.270559
H82   H     H_    0.531756 0.171092 0.562874 0.143230
H83   H     H_    0.470373 0.202668 0.593319 0.138465
H84   H     H_    0.440562 0.213282 0.522914 0.239918
H85   H     H_    0.383177 0.247991 0.553603 0.228568
H86   H     H_    0.483526 0.332122 0.570459 0.270204
H87   H     H_    0.458864 0.346435 0.530308 0.268089
H88   H     H_    0.541272 0.296961 0.539615 0.269223
H89   H     H_    0.213332 0.476699 0.405059 0.147514
H90   H     H_    0.253751 0.936958 0.729089 0.129574
H91   H     H_    0.156872 0.405865 0.422365 0.132182
H92   H     H_    0.261744 0.506619 0.458317 0.232006
H93   H     H_    0.206927 0.433948 0.474244 0.234801
H94   H     H_    0.273716 0.342893 0.441406 0.269018
H95   H     H_    0.334783 0.393897 0.466110 0.274057
H96   H     H_    0.328916 0.415719 0.425280 0.271316
H97   H     H_    0.850019 0.588361 0.560623 0.147103
H98   H     H_    0.803162 0.545639 0.593107 0.133652
H99   H     H_    0.774200 0.509562 0.524331 0.235335
H100  H     H_    0.724423 0.476669 0.557533 0.224324
H101  H     H_    0.917355 0.725885 0.289595 0.111469
H102  H     H_    0.685554 0.605186 0.570060 0.272583
H103  H     H_    0.658133 0.578112 0.531447 0.267673
H104  H     H_    0.735398 0.637790 0.536418 0.269574
H105  H     H_    0.753712 0.436992 0.229142 0.129540
H106  H     H_    0.082744 0.274203 0.710345 0.111664
H107  H     H_    0.253709 0.936998 0.270852 0.129706
H108  H     H_    0.746249 0.063042 0.729089 0.129574
H109  H     H_    0.082645 0.274115 0.289595 0.111469
H110  H     H_    0.917256 0.725796 0.710345 0.111664
H111  H     H_    0.725681 0.917225 0.710298 0.111405
H112  H     H_    0.274167 0.082635 0.289612 0.111589
H113  H     H_    0.936923 0.253697 0.729105 0.129553
H114  H     H_    0.063035 0.746349 0.270832 0.129736
H115  H     H_    0.274318 0.082775 0.710298 0.111405
H116  H     H_    0.417227 0.225755 0.789678 0.111368
H117  H     H_    0.725833 0.917365 0.289612 0.111589
H118  H     H_    0.063077 0.746303 0.729105 0.129553
H119  H     H_    0.936964 0.253651 0.270832 0.129736
H120  H     H_    0.008425 0.617158 0.872580 0.180737
H121  H     H_    0.011299 0.382761 0.127275 0.189448
H122  H     H_    0.394383 0.051537 0.872230 0.176553
H123  H     H_    0.603811 0.054468 0.127799 0.175174
H124  H     H_    0.991575 0.382842 0.872580 0.180737
H125  H     H_    0.988700 0.617239 0.127275 0.189448
H126  H     H_    0.605617 0.948463 0.872230 0.176553
H127  H     H_    0.582607 0.774074 0.210435 0.111578
H128  H     H_    0.396189 0.945532 0.127799 0.175174
H129  H     H_    0.543282 0.109037 0.372297 0.180751
H130  H     H_    0.556559 0.896987 0.627902 0.174723
H131  H     H_    0.883368 0.487299 0.372520 0.177680
H132  H     H_    0.115931 0.519096 0.627398 0.183466
H133  H     H_    0.456718 0.890963 0.372297 0.180751
H134  H     H_    0.443441 0.103013 0.627902 0.174723
H135  H     H_    0.116632 0.512701 0.372520 0.177680
H136  H     H_    0.884069 0.480904 0.627398 0.183466
H137  H     H_    0.034648 0.870325 0.713180 0.136003
H138  H     H_    0.753751 0.436958 0.770912 0.129528
H139  H     H_    0.965428 0.129592 0.286689 0.136185
H140  H     H_    0.167382 0.071778 0.677020 0.130852
H141  H     H_    0.832842 0.928427 0.322844 0.130360
H142  H     H_    0.965352 0.129675 0.713180 0.136003
H143  H     H_    0.034572 0.870408 0.286689 0.136185
H144  H     H_    0.832618 0.928222 0.677020 0.130852
H145  H     H_    0.167158 0.071573 0.322844 0.130360
H146  H     H_    0.071617 0.167090 0.322834 0.130018
H147  H     H_    0.928192 0.832734 0.677048 0.130228
H148  H     H_    0.129680 0.965506 0.286698 0.136176
H149  H     H_    0.246288 0.563008 0.229142 0.129541
H150  H     H_    0.870240 0.034570 0.713174 0.135996
H151  H     H_    0.928383 0.832910 0.322834 0.130017
H152  H     H_    0.071808 0.167266 0.677048 0.130228
H153  H     H_    0.870320 0.034494 0.286698 0.136176
H154  H     H_    0.129760 0.965430 0.713174 0.135996
H155  H     H_    0.534582 0.370396 0.213296 0.135808
H156  H     H_    0.465352 0.629675 0.786820 0.135950
H157  H     H_    0.667120 0.571530 0.177188 0.129648
H158  H     H_    0.332632 0.428220 0.822978 0.129674
H159  H     H_    0.465418 0.629604 0.213296 0.135808
H160  H     H_    0.582773 0.774245 0.789678 0.111368
H161  H     H_    0.534648 0.370325 0.786820 0.135949
H162  H     H_    0.332880 0.428470 0.177188 0.129648
H163  H     H_    0.667368 0.571780 0.822978 0.129673
H164  H     H_    0.571828 0.667303 0.822971 0.130389
H165  H     H_    0.428435 0.332968 0.177206 0.130230
H166  H     H_    0.629760 0.465429 0.786828 0.136045
H167  H     H_    0.370316 0.534505 0.213292 0.135821
H168  H     H_    0.428172 0.332697 0.822971 0.130389
H169  H     H_    0.571565 0.667032 0.177206 0.130230
H170  H     H_    0.370239 0.534571 0.786828 0.136045
H171  H     H_    0.417392 0.225926 0.210435 0.111578
H172  H     H_    0.629684 0.465495 0.213292 0.135821
H173  H     H_    0.896093 0.646046 0.930434 0.139420
H174  H     H_    0.951795 0.702631 0.905038 0.141387
H175  H     H_    0.943143 0.713229 0.976416 0.235878
H176  H     H_    0.999425 0.769106 0.951639 0.227683
H177  H     H_    0.887477 0.817054 0.924895 0.269896
H178  H     H_    0.884435 0.833249 0.966237 0.269182
H179  H     H_    0.830852 0.760497 0.949622 0.269608
H180  H     H_    0.901302 0.372663 0.054512 0.138272
H181  H     H_    0.923059 0.318425 0.088772 0.140359
H182  H     H_    0.225847 0.417382 0.210404 0.111345
H183  H     H_    0.965548 0.282382 0.021103 0.230784
H184  H     H_    0.988802 0.228454 0.054774 0.228513
H185  H     H_    0.855952 0.209207 0.065913 0.267175
H186  H     H_    0.880141 0.178283 0.027438 0.267999
H187  H     H_    0.832303 0.263853 0.032234 0.271473
H188  H     H_    0.331315 0.959550 0.937509 0.141823
H189  H     H_    0.296157 0.018865 0.907021 0.138980
H190  H     H_    0.284572 0.048161 0.977463 0.239988
H191  H     H_    0.247304 0.104138 0.946847 0.232126
H192  H     H_    0.167973 0.999812 0.929866 0.270953
N1    N     N_R   0.037794 0.448499 0.984440 -0.158691
N2    N     N_R   0.499255 0.063649 0.515630 -0.157280
N3    N     N_R   0.054945 0.467480 0.484584 -0.155805
N4    N     N_R   0.945018 0.532452 0.515508 -0.166576
N5    N     N_R   0.499055 0.063618 0.484729 -0.153811
N6    N     N_R   0.500745 0.936350 0.515630 -0.157280
N7    N     N_R   0.945055 0.532520 0.484584 -0.155805
N8    N     N_R   0.054982 0.467548 0.515508 -0.166576
N9    N     N_R   0.962173 0.551466 0.015361 -0.133148
N10   N     N_R   0.563629 0.000973 0.984559 -0.157327
N11   N     N_R   0.436367 0.999243 0.015463 -0.157548
N12   N     N_R   0.962206 0.551500 0.984440 -0.158691
N13   N     N_R   0.037827 0.448534 0.015361 -0.133148
N14   N     N_R   0.436370 0.999027 0.984559 -0.157327
N15   N     N_R   0.563633 0.000757 0.015463 -0.157548
N16   N     N_R   0.500945 0.936382 0.484729 -0.153811
O1    O     O_3   1.000000 0.500000 0.750000 -0.483694
O2    O     O_R   0.060770 0.500000 0.319330 -0.645160
O3    O     O_R   0.500000 0.939230 0.680670 -0.642981
O4    O     O_R   0.500000 0.060770 0.319330 -0.643946
O5    O     O_R   0.560770 0.000000 0.180670 -0.642922
O6    O     O_R   0.439230 0.000000 0.819330 -0.643298
O7    O     O_R   0.000000 0.560770 0.180670 -0.644361
O8    O     O_R   0.000000 0.439230 0.819330 -0.645003
O9    O     O_R   0.439230 0.000000 0.180670 -0.642921
O10   O     O_R   0.560770 0.000000 0.819330 -0.643299
O11   O     O_R   0.000000 0.439230 0.180670 -0.644361
O12   O     O_3   0.000000 0.500000 0.250000 -0.483851
O13   O     O_R   0.000000 0.560770 0.819330 -0.645003
O14   O     O_R   0.853860 0.585440 0.731810 -0.638046
O15   O     O_R   0.146140 0.414560 0.268190 -0.639131
O16   O     O_R   0.414560 0.853860 0.731810 -0.638318
O17   O     O_R   0.585440 0.146140 0.268190 -0.639055
O18   O     O_R   0.146140 0.414560 0.731810 -0.638046
O19   O     O_R   0.853860 0.585440 0.268190 -0.639131
O20   O     O_R   0.585440 0.146140 0.731810 -0.638318
O21   O     O_R   0.414560 0.853860 0.268190 -0.639055
O22   O     O_R   0.853860 0.414560 0.268190 -0.638525
O23   O     O_3   0.500000 1.000000 0.750000 -0.484478
O24   O     O_R   0.146140 0.585440 0.731810 -0.638726
O25   O     O_R   0.414560 0.146140 0.268190 -0.638218
O26   O     O_R   0.585440 0.853860 0.731810 -0.638793
O27   O     O_R   0.146140 0.585440 0.268190 -0.638525
O28   O     O_R   0.853860 0.414560 0.731810 -0.638726
O29   O     O_R   0.585440 0.853860 0.268190 -0.638218
O30   O     O_R   0.414560 0.146140 0.731810 -0.638793
O31   O     O_R   0.353860 0.085440 0.231810 -0.636823
O32   O     O_R   0.646140 0.914560 0.768190 -0.638625
O33   O     O_R   0.914560 0.353860 0.231810 -0.639517
O34   O     O_3   0.500000 1.000000 0.250000 -0.484419
O35   O     O_R   0.085440 0.646140 0.768190 -0.638763
O36   O     O_R   0.646140 0.914560 0.231810 -0.636823
O37   O     O_R   0.353860 0.085440 0.768190 -0.638625
O38   O     O_R   0.085440 0.646140 0.231810 -0.639517
O39   O     O_R   0.914560 0.353860 0.768190 -0.638763
O40   O     O_R   0.353860 0.914560 0.768190 -0.638548
O41   O     O_R   0.646140 0.085440 0.231810 -0.639982
O42   O     O_R   0.914560 0.646140 0.768190 -0.638624
O43   O     O_R   0.085440 0.353860 0.231810 -0.636706
O44   O     O_R   0.646140 0.085440 0.768190 -0.638548
O45   O     O_R   0.060770 0.500000 0.680670 -0.644678
O46   O     O_R   0.353860 0.914560 0.231810 -0.639982
O47   O     O_R   0.085440 0.353860 0.768190 -0.638624
O48   O     O_R   0.914560 0.646140 0.231810 -0.636706
O49   O     O_3   0.009588 0.631818 0.933760 -0.632225
O50   O     O_3   0.011569 0.367650 0.066970 -0.625351
O51   O     O_3   0.382129 0.061320 0.932916 -0.628511
O52   O     O_3   0.615542 0.064923 0.067097 -0.628796
O53   O     O_3   0.990412 0.368182 0.933760 -0.632225
O54   O     O_3   0.988431 0.632350 0.066970 -0.625351
O55   O     O_3   0.617871 0.938680 0.932916 -0.628511
O56   O     O_R   0.939230 0.500000 0.319330 -0.645160
O57   O     O_3   0.384458 0.935077 0.067097 -0.628796
O58   O     O_3   0.551353 0.122485 0.432717 -0.626194
O59   O     O_3   0.567047 0.885258 0.567160 -0.629110
O60   O     O_3   0.868845 0.485115 0.433941 -0.628935
O61   O     O_3   0.130302 0.523161 0.566662 -0.627932
O62   O     O_3   0.448647 0.877515 0.432717 -0.626194
O63   O     O_3   0.432953 0.114742 0.567160 -0.629110
O64   O     O_3   0.131155 0.514885 0.433941 -0.628935
O65   O     O_3   0.869698 0.476839 0.566662 -0.627932
O66   O     O_R   0.500000 0.060770 0.680670 -0.642981
O67   O     O_R   0.500000 0.939230 0.319330 -0.643945
O68   O     O_R   0.939230 0.500000 0.680670 -0.644678
Zn1   Zn    Zn3+2 0.000000 0.586740 0.775960 0.958866
Zn2   Zn    Zn3+2 0.500000 0.913260 0.724040 0.959320
Zn3   Zn    Zn3+2 0.913260 0.500000 0.275960 0.958400
Zn4   Zn    Zn3+2 0.086740 0.500000 0.724040 0.959500
Zn5   Zn    Zn3+2 0.500000 0.913260 0.275960 0.959091
Zn6   Zn    Zn3+2 0.500000 0.086740 0.724040 0.959320
Zn7   Zn    Zn3+2 0.086740 0.500000 0.275960 0.958400
Zn8   Zn    Zn3+2 0.913260 0.500000 0.724040 0.959500
Zn9   Zn    Zn3+2 0.000000 0.413260 0.224040 0.960279
Zn10  Zn    Zn3+2 0.413260 0.000000 0.775960 0.959071
Zn11  Zn    Zn3+2 0.586740 0.000000 0.224040 0.959562
Zn12  Zn    Zn3+2 0.000000 0.413260 0.775960 0.958866
Zn13  Zn    Zn3+2 0.000000 0.586740 0.224040 0.960279
Zn14  Zn    Zn3+2 0.586740 0.000000 0.775960 0.959071
Zn15  Zn    Zn3+2 0.413260 0.000000 0.224040 0.959562
Zn16  Zn    Zn3+2 0.500000 0.086740 0.275960 0.959091

loop_
_geom_bond_atom_site_label_1
_geom_bond_atom_site_label_2
_ccdc_geom_bond_type
C191  C237  S    
C159  C194  A    
C240  O25   A    
C31   C161  A    
C126  C127  S    
C85   H146  S    
C135  C161  A    
C29   C163  A    
C114  C115  S    
C144  H71   S    
C46   H134  S    
C16   N14   A    
C147  H77   S    
C157  C193  A    
C110  H186  S    
C236  O20   A    
C19   C226  S    
C107  H179  S    
C3    O26   A    
C214  O60   S    
C17   C228  S    
C20   C175  A    
C106  C107  S    
C173  C179  A    
C212  O58   S    
C143  C144  S    
C239  O24   A    
C4    C196  S    
C39   C74   A    
C8    N6    A    
C102  C217  A    
C158  H103  S    
O10   Zn14  S    
C66   C72   A    
C127  H30   S    
C2    C22   A    
C134  H48   S    
C37   C135  A    
C27   H105  S    
C149  H82   S    
O68   Zn8   S    
C101  C188  A    
C35   C216  A    
C137  H53   S    
C36   C71   A    
C33   C69   A    
C121  H18   S    
C10   N4    A    
C220  O65   S    
C29   C64   A    
O20   Zn6   S    
C46   C217  A    
O45   Zn4   S    
C80   H154  S    
O12   Zn3   S    
C45   C182  A    
C192  C229  S    
C178  C193  A    
C93   H141  S    
O1    Zn4   S    
N1    N13   A    
C94   H137  S    
C134  H50   S    
O3    Zn2   S    
C140  C141  S    
C118  H10   S    
C67   H164  S    
C58   H117  S    
N9    N12   A    
C223  O3    A    
C56   H115  S    
C227  O11   A    
C34   H182  S    
C233  O41   A    
C48   H107  S    
C3    C195  S    
C161  C196  A    
O37   Zn10  S    
C102  C213  A    
C23   C222  S    
C17   C186  A    
C18   C197  A    
C132  O58   S    
C12   N13   A    
C12   C97   S    
C187  C233  S    
C215  O61   S    
C174  C194  A    
C56   C171  A    
C86   H147  S    
C172  C196  A    
C171  C200  A    
O34   Zn15  S    
C112  C204  A    
C97   C204  A    
C221  O68   A    
C143  H70   S    
C55   C172  A    
C113  C189  A    
O35   Zn1   S    
C140  H62   S    
C217  O63   S    
O12   Zn7   S    
C141  H63   S    
C100  C216  A    
C109  H183  S    
C125  H25   S    
O1    Zn8   S    
C171  C181  A    
C45   C81   A    
C107  H177  S    
C136  H51   S    
C6    O36   A    
O41   Zn11  S    
C139  C140  S    
C236  O44   A    
C54   H113  S    
C21   C35   A    
O43   Zn9   S    
C9    N16   A    
C83   C91   A    
C162  C198  A    
O19   Zn3   S    
C28   H116  S    
C156  C158  S    
C130  C131  S    
C139  H60   S    
C41   C76   A    
C16   C98   S    
O13   Zn1   S    
C21   C230  A    
C24   C215  A    
C81   H151  S    
C237  O21   A    
C89   H142  S    
C69   C70   A    
C128  H33   S    
O6    Zn10  S    
O29   Zn5   S    
C18   C227  S    
C234  O18   A    
C60   C95   A    
C132  H43   S    
C11   N7    A    
C155  C156  S    
C129  H36   S    
C79   C167  A    
C59   C169  A    
C151  H88   S    
C155  H98   S    
C49   C179  A    
O25   Zn16  S    
C45   H101  S    
C75   H158  S    
C225  O5    A    
C14   N12   A    
C147  C148  S    
C134  H49   S    
C47   C181  A    
C153  H92   S    
C116  O52   S    
C99   C211  A    
C108  C109  S    
C1    H120  S    
C142  H66   S    
C97   C209  A    
O47   Zn12  S    
C49   C84   A    
C114  H191  S    
C6    C199  S    
C35   H133  S    
C146  C160  A    
C57   C218  A    
C49   H108  S    
C212  C230  A    
C13   C23   A    
C7    O37   A    
C167  C202  A    
C130  H39   S    
C169  C202  A    
C111  H189  S    
C61   C77   A    
C39   C113  A    
C55   C91   A    
C50   H109  S    
C138  H58   S    
N4    N7    A    
O12   Zn9   S    
C163  C199  A    
C83   H148  S    
C16   N10   A    
C170  C182  A    
C128  H32   S    
C126  H28   S    
C154  H94   S    
C106  H176  S    
C170  C199  A    
C62   H172  S    
C44   C183  A    
C234  O47   A    
C206  O52   S    
C26   C167  A    
C51   H110  S    
C8    N2    A    
C235  O19   A    
O24   Zn4   S    
C165  C200  A    
C108  O50   S    
C164  C205  A    
O1    Zn1   S    
C238  O33   A    
C72   H159  S    
C108  H181  S    
C28   C63   A    
C3    O32   A    
O67   Zn5   S    
C27   C62   A    
C113  C163  A    
C10   N8    A    
C204  O50   S    
C103  C214  A    
O28   Zn8   S    
C145  H74   S    
C31   H149  S    
O17   Zn16  S    
C239  O35   A    
C43   H79   S    
C151  H86   S    
O33   Zn9   S    
O9    Zn15  S    
C32   C67   A    
C116  H6    S    
O12   Zn13  S    
C9    C100  S    
C19   C208  A    
O26   Zn2   S    
C20   C219  A    
O40   Zn10  S    
C5    O28   A    
O66   Zn6   S    
C119  H14   S    
C148  H81   S    
C131  H41   S    
C120  C121  S    
C111  H188  S    
C117  H8    S    
C39   H35   S    
C65   H166  S    
C23   C57   A    
C185  C232  S    
C34   C70   A    
C136  C137  S    
C180  C191  A    
C219  H128  S    
C144  H72   S    
C136  O59   S    
C60   H119  S    
C211  C219  A    
C1    C17   A    
C184  C187  A    
C57   H135  S    
C6    O29   A    
C194  C240  S    
C110  H187  S    
C232  O16   A    
C120  H15   S    
C69   H165  S    
C117  C118  S    
C63   C75   A    
C210  O55   S    
C155  O65   S    
O44   Zn14  S    
C176  C195  A    
C189  C235  S    
C30   C65   A    
C103  C218  A    
C158  H104  S    
C115  H4    S    
C34   C157  A    
C152  C153  S    
C42   C77   A    
C229  O14   A    
C7    O30   A    
C150  C151  S    
C68   C220  A    
C51   C177  A    
C15   N11   A    
C38   C124  A    
C121  H17   S    
C4    O38   A    
C105  H173  S    
C115  H192  S    
O23   Zn14  S    
C141  H64   S    
C48   C180  A    
C124  C190  A    
C26   H1    S    
C201  C238  S    
C230  H129  S    
C43   C78   A    
C44   H90   S    
O34   Zn16  S    
C96   C203  A    
O27   Zn7   S    
C137  H54   S    
C21   C224  S    
C26   C61   A    
C18   C112  A    
C129  C130  S    
C118  H11   S    
C148  H78   S    
O30   Zn6   S    
C85   C88   A    
C11   N3    A    
C90   C187  A    
C226  O6    A    
C123  H22   S    
C227  O7    A    
O21   Zn5   S    
O7    Zn13  S    
C82   C92   A    
O48   Zn13  S    
O8    Zn12  S    
C7    C200  S    
C111  O51   S    
O11   Zn9   S    
C50   C85   A    
C59   H118  S    
C41   H57   S    
C154  H95   S    
O14   Zn8   S    
C203  O49   S    
C59   C94   A    
O5    Zn11  S    
C52   C176  A    
O4    Zn16  S    
O56   Zn3   S    
C172  C180  A    
C66   H167  S    
C157  C159  A    
C177  C192  A    
C90   C166  A    
C2    H130  S    
O23   Zn2   S    
C62   C76   A    
C25   C68   A    
N6    N16   A    
C143  H69   S    
C51   C86   A    
C14   C96   S    
C145  C147  S    
C181  C188  A    
C124  C162  A    
C82   H152  S    
C152  H89   S    
C14   N1    A    
C110  H185  S    
C44   C80   A    
C136  H52   S    
C86   C87   A    
C138  H55   S    
C96   C207  A    
C50   C178  A    
C222  O2    A    
C197  H125  S    
C209  O54   S    
C226  O10   A    
C42   H68   S    
C166  C201  A    
C13   C214  A    
C139  H59   S    
O34   Zn11  S    
C158  H102  S    
C77   H156  S    
C78   C95   A    
O39   Zn12  S    
C13   H131  S    
C149  H83   S    
C101  C165  A    
C108  H180  S    
C128  H34   S    
C142  O61   S    
C91   H143  S    
C28   C165  A    
C121  H19   S    
C160  C195  A    
C122  H20   S    
C22   C46   A    
C133  H45   S    
C133  C134  S    
C74   H157  S    
C190  C236  S    
C193  C231  S    
O23   Zn6   S    
C80   C94   A    
C127  C128  S    
C1    C203  A    
C151  H87   S    
C155  H97   S    
C188  C234  S    
N3    N8    A    
C137  C138  S    
C229  O42   A    
C168  C201  A    
O2    Zn7   S    
C30   H138  S    
C104  C215  A    
C118  H9    S    
C148  H80   S    
C119  C120  S    
C5    O39   A    
C122  H21   S    
C70   H162  S    
O32   Zn14  S    
C105  C106  S    
C142  H67   S    
C40   C75   A    
C122  O54   S    
O31   Zn15  S    
C36   H2    S    
C149  C150  S    
C150  H84   S    
C141  H65   S    
C207  O53   S    
C105  O49   S    
C238  O22   A    
C231  O15   A    
C111  C114  S    
C67   C71   A    
C129  O57   S    
C27   C166  A    
C233  O17   A    
C2    C213  A    
C37   C72   A    
C225  O9    A    
C152  O64   S    
C64   C74   A    
C142  C143  S    
C58   C93   A    
C175  C206  A    
C119  H12   S    
C33   C159  A    
C221  O45   A    
C140  H61   S    
C31   C66   A    
O15   Zn7   S    
C152  H91   S    
C109  H184  S    
C125  H26   S    
C126  H29   S    
C105  H174  S    
C107  H178  S    
C4    O27   A    
O16   Zn2   S    
C211  O57   S    
C98   C210  A    
C60   C168  A    
C186  C207  A    
C224  O67   A    
C54   C173  A    
C58   C170  A    
C24   H132  S    
C186  H124  S    
C144  H73   S    
C183  C185  A    
C145  O62   S    
C76   H155  S    
C208  H126  S    
C78   H153  S    
C43   C184  A    
C65   C73   A    
C116  C117  S    
C147  H76   S    
C47   C82   A    
C95   H139  S    
N10   N15   A    
C15   N15   A    
C104  C220  A    
N11   N14   A    
C216  O62   S    
C150  H85   S    
C123  C125  S    
C126  O55   S    
C29   H127  S    
O42   Zn1   S    
C169  C183  A    
C123  H23   S    
C132  C133  S    
C133  H47   S    
C154  H96   S    
C223  O66   A    
C33   H171  S    
C98   C205  A    
C129  H37   S    
C182  C189  A    
C149  O63   S    
C41   C90   A    
C40   C101  A    
C174  C178  A    
C68   H136  S    
C146  C192  A    
C47   H106  S    
C48   C83   A    
C153  H93   S    
C12   N9    A    
C228  O8    A    
C55   H114  S    
C53   C174  A    
C213  O59   S    
C117  H7    S    
O18   Zn4   S    
C240  O31   A    
C63   H168  S    
C32   H160  S    
C9    N5    A    
C99   C206  A    
C112  H121  S    
O22   Zn3   S    
C114  H190  S    
C24   C25   A    
C54   C89   A    
C138  H56   S    
C202  C239  S    
C218  O64   S    
C231  O43   A    
O34   Zn5   S    
C168  C184  A    
C205  O51   S    
C100  C212  A    
C20   C225  S    
C130  H38   S    
C71   H163  S    
C228  O13   A    
C120  H16   S    
C38   H24   S    
C81   C93   A    
C235  O48   A    
C139  O60   S    
C56   C92   A    
C135  C191  A    
C61   H170  S    
C131  H40   S    
C156  H99   S    
C25   C221  S    
C84   H150  S    
C115  H3    S    
C36   C146  A    
C176  C177  A    
C92   H140  S    
O38   Zn13  S    
C156  H100  S    
C84   C89   A    
C164  H122  S    
C106  H175  S    
C224  O4    A    
C52   H111  S    
O1    Zn12  S    
C79   C185  A    
C132  H44   S    
C173  C198  A    
C222  O56   A    
C52   C87   A    
C15   C99   S    
O36   Zn11  S    
C11   C103  S    
C5    C198  S    
C22   C223  S    
C37   H13   S    
C10   C104  S    
C122  C123  S    
C237  O46   A    
C53   H112  S    
C179  C190  A    
C88   H145  S    
C145  H75   S    
C40   H46   S    
C87   H144  S    
C53   C88   A    
C175  H123  S    
C19   C164  A    
O23   Zn10  S    
C119  O53   S    
C232  O40   A    
N2    N5    A    
C197  C209  A    
C42   C79   A    
C116  H5    S    
C208  C210  A    
C109  C110  S    
C30   C162  A    
C127  H31   S    
C153  C154  S    
C8    C102  S    
C64   H169  S    
C131  H42   S    
C125  H27   S    
O46   Zn15  S    
C73   H161  S    
C32   C160  A    
C38   C73   A    
