data_mof_unit_35728.cif
_audit_creation_date              2012-12-11T15:21:17-0500
_audit_creation_method            fapswitch 2.2
_symmetry_space_group_name_H-M    P1
_symmetry_Int_Tables_number       1
_space_group_crystal_system       triclinic
_cell_length_a                    18.409681
_cell_length_b                    18.350047
_cell_length_c                    51.308693
_cell_angle_alpha                 90.029789
_cell_angle_beta                  90.000493
_cell_angle_gamma                 120.242077
_cell_volume                      14974.0881034

loop_
_atom_site_label
_atom_site_type_symbol
_atom_type_description
_atom_site_fract_x
_atom_site_fract_y
_atom_site_fract_z
_atom_type_partial_charge
C1    C     C_R   0.408371 0.584476 0.287809 0.599700
C2    C     C_R   0.408139 0.584588 0.212077 0.591689
C3    C     C_R   0.077200 0.517834 0.364583 0.243565
C4    C     C_R   0.081168 0.519475 0.134903 0.242798
C5    C     C_R   0.644886 0.497766 0.672655 -0.217464
C6    C     C_R   0.641117 0.491391 0.828529 -0.220757
C7    C     C_R   0.493786 0.404729 0.674918 0.390485
C8    C     C_R   0.490385 0.417799 0.821467 0.390569
C9    C     C_R   0.486903 0.422906 0.648905 0.427435
C10   C     C_R   0.478937 0.438582 0.846743 0.436318
C11   C     C_R   0.559013 0.476643 0.634460 0.200590
C12   C     C_R   0.548182 0.483627 0.863320 0.195543
C13   C     C_R   0.570257 0.601053 0.486846 -0.034843
C14   C     C_R   0.545811 0.610655 0.010060 -0.033737
C15   C     C_R   0.546468 0.530659 0.470256 -0.027570
C16   C     C_R   0.526898 0.541513 0.026678 -0.026948
C17   C     C_R   0.525017 0.450670 0.480915 0.037393
C18   C     C_R   0.509611 0.462937 0.016022 0.037794
C19   C     C_R   0.597303 0.680561 0.475306 -0.097115
C20   C     C_R   0.556818 0.685711 0.021423 -0.097408
C21   C     C_R   0.489022 0.390448 0.437060 -0.038194
C22   C     C_R   0.503523 0.410174 0.060098 -0.041000
C23   C     C_R   0.528958 0.371194 0.519545 -0.090209
C24   C     C_R   0.462063 0.370154 0.977254 -0.077933
C25   C     C_R   0.039486 0.485113 0.446131 -0.033204
C26   C     C_R   0.043998 0.486312 0.053339 -0.033451
C27   C     C_R   0.526383 0.359775 0.546513 0.258829
C28   C     C_R   0.461014 0.358829 0.950289 0.267453
C29   C     C_R   0.492370 0.380261 0.463771 0.352723
C30   C     C_R   0.503732 0.399831 0.033274 0.352166
C31   C     C_R   0.591550 0.176065 0.712241 0.547148
C32   C     C_R   0.591378 0.175725 0.787667 0.546852
C33   C     C_R   0.823933 0.415590 0.712178 0.555902
C34   C     C_R   0.824209 0.415699 0.787765 0.554767
C35   C     C_R   0.584547 0.408851 0.712283 0.581049
C36   C     C_R   0.584356 0.409151 0.787574 0.582088
C37   C     C_R   0.974902 0.431221 0.428874 0.021214
C38   C     C_R   0.979432 0.432385 0.070574 0.021501
C39   C     C_R   0.897797 0.369058 0.439047 -0.094592
C40   C     C_R   0.902483 0.369907 0.060385 -0.093469
C41   C     C_R   0.116308 0.549617 0.435997 0.030005
C42   C     C_R   0.120701 0.551046 0.063495 0.028619
C43   C     C_R   0.131283 0.559634 0.312735 -0.047840
C44   C     C_R   0.132648 0.560112 0.187019 -0.051039
C45   C     C_R   0.868233 0.428191 0.686963 0.019590
C46   C     C_R   0.869578 0.428605 0.812789 0.020182
C47   C     C_R   0.941500 0.393706 0.510993 -0.027326
C48   C     C_R   0.946211 0.394441 0.988465 -0.027077
C49   C     C_R   0.073839 0.527672 0.517920 -0.003800
C50   C     C_R   0.078194 0.528708 0.981560 -0.003468
C51   C     C_R   0.000413 0.457012 0.528052 -0.045865
C52   C     C_R   0.004846 0.457906 0.971420 -0.045589
C53   C     C_R   0.175405 0.591039 0.287612 0.544847
C54   C     C_R   0.175620 0.591111 0.212337 0.543288
C55   C     C_R   0.876414 0.318190 0.522094 0.374246
C56   C     C_R   0.881289 0.318799 0.977353 0.376011
C57   C     C_R   0.862979 0.310687 0.548859 0.431783
C58   C     C_R   0.867553 0.311372 0.950602 0.434109
C59   C     C_R   0.915067 0.377100 0.565716 -0.018901
C60   C     C_R   0.919247 0.377972 0.933770 -0.019563
C61   C     C_R   0.985817 0.449445 0.555446 -0.147509
C62   C     C_R   0.989981 0.450392 0.944038 -0.147290
C63   C     C_R   0.041636 0.514264 0.572500 0.052575
C64   C     C_R   0.045451 0.515377 0.926999 0.052825
C65   C     C_R   0.024356 0.505805 0.599521 0.439910
C66   C     C_R   0.027908 0.506946 0.899989 0.441166
C67   C     C_R   0.898210 0.372874 0.592628 0.457174
C68   C     C_R   0.901974 0.373867 0.906890 0.455329
C69   C     C_R   0.914857 0.369760 0.652479 -0.082085
C70   C     C_R   0.916383 0.370053 0.847155 -0.078156
C71   C     C_R   0.884205 0.365369 0.677661 -0.194632
C72   C     C_R   0.884767 0.365296 0.822101 -0.192910
C73   C     C_R   0.887951 0.498450 0.670836 0.258530
C74   C     C_R   0.891441 0.499838 0.828706 0.253568
C75   C     C_R   0.415439 0.823514 0.287828 0.591078
C76   C     C_R   0.415483 0.823596 0.212168 0.583048
C77   C     C_R   0.916087 0.500591 0.645322 -0.032055
C78   C     C_R   0.920266 0.502277 0.854151 -0.037114
C79   C     C_R   0.929090 0.436412 0.635963 0.188512
C80   C     C_R   0.932217 0.437483 0.863576 0.188672
C81   C     C_R   0.950978 0.407429 0.483593 0.036730
C82   C     C_R   0.955699 0.408204 0.015862 0.036793
C83   C     C_R   0.026981 0.474987 0.473563 0.037139
C84   C     C_R   0.031566 0.475993 0.025906 0.036873
C85   C     C_R   0.090167 0.533163 0.490694 0.029179
C86   C     C_R   0.094643 0.534240 0.008783 0.028912
C87   C     C_R   0.885664 0.358116 0.465824 -0.083351
C88   C     C_R   0.890444 0.358755 0.033611 -0.080779
C89   C     C_R   0.180061 0.603490 0.453122 -0.093047
C90   C     C_R   0.184475 0.604842 0.046377 -0.092895
C91   C     C_R   0.128033 0.591601 0.535331 -0.103313
C92   C     C_R   0.132068 0.592805 0.964167 -0.102739
C93   C     C_R   0.111853 0.586593 0.562015 0.291935
C94   C     C_R   0.115577 0.587842 0.937498 0.292058
C95   C     C_R   0.167410 0.595583 0.479886 -0.114564
C96   C     C_R   0.171845 0.596795 0.019602 -0.112139
C97   C     C_R   0.988224 0.442316 0.401783 0.473434
C98   C     C_R   0.992598 0.443722 0.097663 0.472998
C99   C     C_R   0.372863 0.906824 0.406254 0.442683
C100  C     C_R   0.374066 0.901038 0.092997 0.448977
C101  C     C_R   0.506982 0.031138 0.398988 0.465152
C102  C     C_R   0.507620 0.026233 0.100162 0.464917
C103  C     C_R   0.484208 0.893696 0.357372 -0.068671
C104  C     C_R   0.490739 0.899480 0.143458 -0.054372
C105  C     C_R   0.481260 0.861549 0.332257 0.198905
C106  C     C_R   0.487831 0.869353 0.168725 0.191651
C107  C     C_R   0.382248 0.906811 0.319480 0.322742
C108  C     C_R   0.376234 0.899249 0.179298 0.324511
C109  C     C_R   0.387252 0.939551 0.344426 -0.023340
C110  C     C_R   0.381136 0.930396 0.154122 -0.025428
C111  C     C_R   0.437489 0.932212 0.363448 0.132989
C112  C     C_R   0.437550 0.929461 0.136081 0.129257
C113  C     C_R   0.450649 0.995798 0.443075 -0.099372
C114  C     C_R   0.452369 0.988460 0.056016 -0.096891
C115  C     C_R   0.378583 0.924374 0.433090 -0.019304
C116  C     C_R   0.380302 0.917289 0.066077 -0.013890
C117  C     C_R   0.313784 0.871809 0.450085 -0.050855
C118  C     C_R   0.315963 0.863727 0.049084 -0.049568
C119  C     C_R   0.127836 0.558800 0.408878 0.441885
C120  C     C_R   0.132060 0.560497 0.090626 0.442284
C121  C     C_R   0.514532 0.051039 0.425786 0.049585
C122  C     C_R   0.515852 0.044600 0.073275 0.050824
C123  C     C_R   0.428008 0.866446 0.313248 0.031646
C124  C     C_R   0.428188 0.866724 0.186757 0.021327
C125  C     C_R   0.562746 0.135656 0.686440 -0.032067
C126  C     C_R   0.561728 0.133392 0.813135 -0.031623
C127  C     C_R   0.412190 0.962193 0.515033 0.038454
C128  C     C_R   0.414289 0.953051 0.984058 0.039299
C129  C     C_R   0.537758 0.101532 0.507476 0.025173
C130  C     C_R   0.539465 0.092793 0.991526 0.028470
C131  C     C_R   0.480641 0.038306 0.524814 0.023399
C132  C     C_R   0.482174 0.029429 0.974237 0.027006
C133  C     C_R   0.363781 0.897009 0.532964 -0.097639
C134  C     C_R   0.366089 0.887643 0.966145 -0.096409
C135  C     C_R   0.376440 0.909381 0.559671 -0.119867
C136  C     C_R   0.378010 0.900191 0.939421 -0.120037
C137  C     C_R   0.439436 0.986523 0.569628 0.023977
C138  C     C_R   0.439975 0.977785 0.929442 0.029017
C139  C     C_R   0.492755 0.050826 0.552212 -0.054195
C140  C     C_R   0.493419 0.042182 0.946839 -0.042865
C141  C     C_R   0.080082 0.588130 0.352890 -0.112573
C142  C     C_R   0.082574 0.588966 0.146695 -0.112158
C143  C     C_R   0.558392 0.127486 0.562160 0.045537
C144  C     C_R   0.558339 0.119177 0.936874 0.016926
C145  C     C_R   0.568686 0.139402 0.589272 0.486072
C146  C     C_R   0.567507 0.131528 0.909786 0.453066
C147  C     C_R   0.451690 0.000131 0.596668 0.439631
C148  C     C_R   0.451133 0.991836 0.902399 0.446759
C149  C     C_R   0.476284 0.110422 0.647985 -0.097819
C150  C     C_R   0.475035 0.105863 0.851637 -0.105413
C151  C     C_R   0.493764 0.133923 0.674102 -0.146328
C152  C     C_R   0.493175 0.131764 0.825728 -0.148577
C153  C     C_R   0.611194 0.109202 0.672497 -0.132365
C154  C     C_R   0.608843 0.104207 0.826517 -0.130879
C155  C     C_R   0.595835 0.088426 0.645846 0.328930
C156  C     C_R   0.592834 0.081010 0.852936 0.329785
C157  C     C_R   0.527907 0.089329 0.633715 0.260192
C158  C     C_R   0.525568 0.082202 0.865398 0.260812
C159  C     C_R   0.397006 0.952225 0.487701 0.040640
C160  C     C_R   0.399263 0.943291 0.011397 0.042089
C161  C     C_R   0.459220 0.011289 0.470415 -0.024241
C162  C     C_R   0.461236 0.002979 0.028643 -0.025890
C163  C     C_R   0.106705 0.608862 0.327148 -0.142426
C164  C     C_R   0.107878 0.609101 0.172577 -0.141091
C165  C     C_R   0.530252 0.085258 0.480226 -0.018728
C166  C     C_R   0.532215 0.076801 0.018768 -0.020937
C167  C     C_R   0.321658 0.885897 0.476813 0.346344
C168  C     C_R   0.324097 0.876856 0.022320 0.345735
C169  C     C_R   0.585140 0.123183 0.435831 0.414167
C170  C     C_R   0.586733 0.116200 0.063145 0.416526
C171  C     C_R   0.601339 0.178648 0.518108 -0.091740
C172  C     C_R   0.602694 0.170003 0.980872 -0.094976
C173  C     C_R   0.611440 0.191089 0.544859 0.002544
C174  C     C_R   0.611870 0.182695 0.954135 -0.070622
C175  C     C_R   0.592543 0.139806 0.462415 -0.070132
C176  C     C_R   0.594509 0.131768 0.036522 -0.063842
C177  C     C_R   0.553516 0.625583 0.404951 0.463395
C178  C     C_R   0.527299 0.631607 0.092204 0.464707
C179  C     C_R   0.505378 0.478282 0.399389 0.434269
C180  C     C_R   0.504920 0.491842 0.097835 0.433689
C181  C     C_R   0.411091 0.509584 0.356393 -0.058036
C182  C     C_R   0.406210 0.508510 0.143207 -0.056254
C183  C     C_R   0.382435 0.513732 0.331467 0.197007
C184  C     C_R   0.380762 0.510441 0.168787 0.195390
C185  C     C_R   0.122795 0.485889 0.324017 -0.078702
C186  C     C_R   0.125985 0.487298 0.175559 -0.082564
C187  C     C_R   0.525619 0.619444 0.319533 0.331509
C188  C     C_R   0.521346 0.627373 0.178188 0.342645
C189  C     C_R   0.553535 0.612510 0.344283 -0.032447
C190  C     C_R   0.546100 0.623185 0.152710 -0.022416
C191  C     C_R   0.496185 0.558296 0.362935 0.126863
C192  C     C_R   0.488235 0.564637 0.135014 0.125394
C193  C     C_R   0.541998 0.539964 0.442809 -0.106791
C194  C     C_R   0.524699 0.550709 0.054171 -0.106493
C195  C     C_R   0.564259 0.619324 0.431964 0.045950
C196  C     C_R   0.535434 0.626320 0.064985 0.044969
C197  C     C_R   0.594241 0.689674 0.448514 0.408340
C198  C     C_R   0.551329 0.693408 0.048233 0.406608
C199  C     C_R   0.513539 0.469466 0.426284 -0.023830
C200  C     C_R   0.510987 0.483819 0.070795 -0.024004
C201  C     C_R   0.439651 0.571220 0.312968 0.038112
C202  C     C_R   0.437897 0.572425 0.186405 0.027393
C203  C     C_R   0.573407 0.439869 0.686801 -0.089858
C204  C     C_R   0.571591 0.442073 0.812398 -0.090106
C205  C     C_R   0.566065 0.589967 0.514346 0.034201
C206  C     C_R   0.552279 0.602251 0.982691 0.034342
C207  C     C_R   0.096318 0.465302 0.349854 0.452967
C208  C     C_R   0.100717 0.467271 0.149608 0.452439
C209  C     C_R   0.533916 0.443628 0.508272 -0.008572
C210  C     C_R   0.500707 0.451024 0.988598 -0.009888
C211  C     C_R   0.549876 0.511743 0.524969 0.020556
C212  C     C_R   0.526912 0.521500 0.972005 0.020143
C213  C     C_R   0.576265 0.654359 0.531683 -0.128672
C214  C     C_R   0.582908 0.671769 0.965531 -0.128441
C215  C     C_R   0.574822 0.643751 0.558495 -0.092990
C216  C     C_R   0.585697 0.661609 0.938768 -0.093027
C217  C     C_R   0.563117 0.568534 0.569229 0.032761
C218  C     C_R   0.557603 0.581710 0.927942 0.034250
C219  C     C_R   0.550510 0.501947 0.552528 -0.078097
C220  C     C_R   0.526995 0.510947 0.944514 -0.077272
C221  C     C_R   0.538361 0.425739 0.563354 0.034139
C222  C     C_R   0.496179 0.429758 0.933644 0.033341
C223  C     C_R   0.540163 0.418414 0.590760 0.497062
C224  C     C_R   0.501759 0.422027 0.906410 0.497634
C225  C     C_R   0.563581 0.558544 0.596395 0.472459
C226  C     C_R   0.560742 0.571296 0.900874 0.476121
C227  C     C_R   0.638155 0.517352 0.646608 0.247370
C228  C     C_R   0.630114 0.513347 0.853882 0.240300
Cr1   Cr    Cr6+3 0.456550 0.732290 0.250000 1.167485
Cr2   Cr    Cr6+3 0.275740 0.543450 0.250000 1.049170
Cr3   Cr    Cr6+3 0.267710 0.724260 0.250000 1.153086
Cr4   Cr    Cr6+3 0.543450 0.275740 0.750000 1.107998
Cr5   Cr    Cr6+3 0.724260 0.267710 0.750000 1.017991
Cr6   Cr    Cr6+3 0.732290 0.456550 0.750000 1.050584
H1    H     H_    0.140458 0.446382 0.313294 0.173563
H2    H     H_    0.144179 0.448118 0.186234 0.182647
H3    H     H_    0.065537 0.629017 0.364191 0.155249
H4    H     H_    0.067671 0.629583 0.135407 0.155216
H5    H     H_    0.240268 0.652722 0.445868 0.173249
H6    H     H_    0.244656 0.654130 0.053645 0.176499
H7    H     H_    0.182652 0.648666 0.528786 0.132300
H8    H     H_    0.186542 0.650016 0.970732 0.134852
H9    H     H_    0.925228 0.551204 0.632402 0.140650
H10   H     H_    0.930793 0.553657 0.866957 0.136193
H11   H     H_    0.220454 0.638454 0.491623 0.130568
H12   H     H_    0.224835 0.639658 0.007857 0.135074
H13   H     H_    0.350661 0.969024 0.349172 0.174563
H14   H     H_    0.339768 0.953566 0.148426 0.174763
H15   H     H_    0.255904 0.819152 0.442704 0.188289
H16   H     H_    0.258124 0.811161 0.056501 0.186485
H17   H     H_    0.455385 0.154130 0.684273 0.174492
H18   H     H_    0.455815 0.153980 0.815967 0.170004
H19   H     H_    0.424658 0.112124 0.638467 0.156118
H20   H     H_    0.424033 0.107964 0.861443 0.155584
H21   H     H_    0.337195 0.857496 0.572549 0.170104
H22   H     H_    0.338965 0.848173 0.926544 0.173844
H23   H     H_    0.318143 0.834023 0.526906 0.191822
H24   H     H_    0.321140 0.824469 0.972222 0.191424
H25   H     H_    0.519955 0.885738 0.372712 0.160286
H26   H     H_    0.532361 0.896554 0.129111 0.179241
H27   H     H_    0.643510 0.231740 0.506253 0.120671
H28   H     H_    0.645121 0.223102 0.992698 0.138373
H29   H     H_    0.662950 0.107968 0.682043 0.133715
H30   H     H_    0.660196 0.102723 0.816775 0.136169
H31   H     H_    0.845837 0.329027 0.426294 0.211732
H32   H     H_    0.850556 0.329796 0.073122 0.210489
H33   H     H_    0.661009 0.251460 0.551968 0.209113
H34   H     H_    0.661022 0.243222 0.947007 0.198958
H35   H     H_    0.649975 0.194864 0.468515 0.145479
H36   H     H_    0.652122 0.186477 0.030367 0.151604
H37   H     H_    0.619590 0.650462 0.349129 0.174837
H38   H     H_    0.609872 0.666740 0.146538 0.175253
H39   H     H_    0.706685 0.523538 0.681234 0.202678
H40   H     H_    0.703595 0.508113 0.822085 0.199196
H41   H     H_    0.583142 0.695294 0.570867 0.174106
H42   H     H_    0.610422 0.717144 0.926516 0.173124
H43   H     H_    0.583258 0.713347 0.525146 0.121044
H44   H     H_    0.607641 0.735605 0.972265 0.123088
H45   H     H_    0.870584 0.311245 0.689576 0.140292
H46   H     H_    0.869761 0.310502 0.810311 0.141205
H47   H     H_    0.622613 0.737847 0.486550 0.148521
H48   H     H_    0.566891 0.739152 0.009932 0.145149
H49   H     H_    0.366362 0.469959 0.371093 0.167739
H50   H     H_    0.360892 0.464894 0.129288 0.169512
H51   H     H_    0.463431 0.334721 0.424841 0.200359
H52   H     H_    0.497403 0.359687 0.072546 0.199915
H53   H     H_    0.530188 0.322950 0.507937 0.201834
H54   H     H_    0.427850 0.314054 0.988943 0.206082
H55   H     H_    0.924984 0.319854 0.645519 0.147969
H56   H     H_    0.925843 0.319743 0.854120 0.151980
H57   H     H_    0.822852 0.313088 0.472088 0.194967
H58   H     H_    0.827713 0.313474 0.027328 0.197561
H59   H     H_    0.112244 0.665934 0.319053 0.179081
H60   H     H_    0.112206 0.665531 0.180790 0.181612
N1    N     N_R   0.064005 0.505574 0.392227 -0.367822
N2    N     N_R   0.068210 0.507246 0.107248 -0.368206
N3    N     N_R   0.952100 0.437233 0.609024 -0.403220
N4    N     N_R   0.955557 0.438367 0.890496 -0.402778
N5    N     N_R   0.437682 0.958888 0.389801 -0.396161
N6    N     N_R   0.438290 0.954292 0.109473 -0.394879
N7    N     N_R   0.515648 0.075912 0.606060 -0.373271
N8    N     N_R   0.514151 0.068111 0.893019 -0.367561
N9    N     N_R   0.522313 0.554951 0.389227 -0.389261
N10   N     N_R   0.510359 0.564010 0.108082 -0.392052
N11   N     N_R   0.552897 0.484457 0.606713 -0.346286
N12   N     N_R   0.535133 0.492513 0.890598 -0.345119
O1    O     O_R   0.475290 0.813700 0.278840 -0.464705
O2    O     O_R   0.475290 0.813700 0.221160 -0.468280
O3    O     O_2   0.194736 0.614116 0.399990 -0.473352
O4    O     O_2   0.198803 0.616052 0.099545 -0.467823
O5    O     O_2   0.073247 0.559445 0.614715 -0.452447
O6    O     O_2   0.076694 0.560587 0.884796 -0.450289
O7    O     O_2   0.311152 0.844165 0.397548 -0.478482
O8    O     O_2   0.312467 0.838452 0.101761 -0.476029
O9    O     O_2   0.405800 0.944629 0.611888 -0.494236
O10   O     O_2   0.405108 0.936358 0.887174 -0.491377
O11   O     O_2   0.562344 0.077221 0.383796 -0.400086
O12   O     O_2   0.562347 0.073512 0.115355 -0.405081
O13   O     O_2   0.624595 0.206349 0.598020 -0.432076
O14   O     O_2   0.622730 0.198814 0.901030 -0.470092
O15   O     O_2   0.569326 0.693156 0.395515 -0.431469
O16   O     O_2   0.533200 0.695395 0.101763 -0.412793
O17   O     O_2   0.573617 0.615718 0.610931 -0.500650
O18   O     O_2   0.586607 0.632271 0.886399 -0.502391
O19   O     O_2   0.481781 0.417351 0.384971 -0.499769
O20   O     O_2   0.493600 0.434151 0.112329 -0.499053
O21   O     O_2   0.531378 0.353740 0.600550 -0.419039
O22   O     O_2   0.478877 0.352927 0.896720 -0.427085
O23   O     O_R   0.448450 0.657720 0.276690 -0.426619
O24   O     O_R   0.448450 0.657720 0.223310 -0.425558
O25   O     O_R   0.524710 0.338410 0.721160 -0.423623
O26   O     O_R   0.524710 0.338410 0.778840 -0.429785
O27   O     O_R   0.551550 0.209270 0.723310 -0.494341
O28   O     O_R   0.551550 0.209270 0.776690 -0.495612
O29   O     O_R   0.661590 0.186300 0.721160 -0.512300
O30   O     O_R   0.661590 0.186300 0.778840 -0.512669
O31   O     O_R   0.790730 0.342280 0.723310 -0.507959
O32   O     O_R   0.790730 0.342280 0.776690 -0.508222
O33   O     O_R   0.813700 0.475290 0.721160 -0.463835
O34   O     O_R   0.813700 0.475290 0.778840 -0.462349
O35   O     O_R   0.657720 0.448450 0.723310 -0.508816
O36   O     O_R   0.657720 0.448450 0.776690 -0.506517
O37   O     O_3   0.666667 0.333333 0.750000 -0.256911
O38   O     O_R   0.338410 0.524710 0.278840 -0.491557
O39   O     O_R   0.338410 0.524710 0.221160 -0.487137
O40   O     O_R   0.209270 0.551550 0.276690 -0.495659
O41   O     O_R   0.209270 0.551550 0.223310 -0.497811
O42   O     O_R   0.186300 0.661590 0.278840 -0.488362
O43   O     O_R   0.186300 0.661590 0.221160 -0.483806
O44   O     O_R   0.342280 0.790730 0.276690 -0.441106
O45   O     O_R   0.342280 0.790730 0.223310 -0.435127
O46   O     O_3   0.333333 0.666667 0.250000 -0.297261
O47   O     O_2   0.932454 0.396206 0.386682 -0.450741
O48   O     O_2   0.936835 0.397561 0.112742 -0.452672
O49   O     O_2   0.834380 0.313004 0.601452 -0.438720
O50   O     O_2   0.838043 0.313960 0.898098 -0.441321
O51   O     O_3   0.870397 0.559976 0.678758 -0.565110
C229  C     C_3   0.946750 0.634899 0.683863 -0.109897
H61   H     H_    0.983562 0.661992 0.665690 0.124709
H62   H     H_    0.985094 0.624527 0.698592 0.135953
H63   H     H_    0.932179 0.682076 0.692028 0.138164
O52   O     O_3   0.875618 0.562378 0.820633 -0.574481
C230  C     C_3   0.952802 0.635890 0.815148 -0.111467
H64   H     H_    0.989561 0.623598 0.800322 0.138136
H65   H     H_    0.990682 0.662993 0.833152 0.125124
H66   H     H_    0.939512 0.683887 0.806939 0.142025
O53   O     O_3   0.167741 0.651879 0.577904 -0.509555
C231  C     C_3   0.149962 0.718108 0.576395 -0.083547
H67   H     H_    0.083058 0.696105 0.581260 0.127335
H68   H     H_    0.165795 0.748221 0.556819 0.118528
H69   H     H_    0.189474 0.767029 0.590896 0.167626
O54   O     O_3   0.170868 0.653535 0.921651 -0.510555
C232  C     C_3   0.151708 0.718814 0.923182 -0.084353
H70   H     H_    0.167103 0.748890 0.942776 0.121885
H71   H     H_    0.084605 0.695810 0.918300 0.126457
H72   H     H_    0.190689 0.768021 0.908704 0.169178
F1    F     F_    0.331751 0.913598 0.301549 -0.592346
F2    F     F_    0.319580 0.899591 0.196159 -0.591995
F3    F     F_    0.094272 0.397291 0.361023 -0.588275
F4    F     F_    0.100112 0.400072 0.138332 -0.584929
F5    F     F_    0.252006 0.837597 0.491310 -0.665767
F6    F     F_    0.254720 0.827610 0.007809 -0.669300
O55   O     O_3   0.520225 0.815031 0.326972 -0.529123
C233  C     C_3   0.605899 0.860031 0.334176 -0.048021
H73   H     H_    0.613256 0.851250 0.355226 0.159244
H74   H     H_    0.636652 0.928378 0.329242 0.125657
H75   H     H_    0.639436 0.833747 0.323213 0.203328
O56   O     O_3   0.535051 0.832002 0.174585 -0.511987
C234  C     C_3   0.620416 0.895184 0.176598 -0.034080
H76   H     H_    0.656488 0.865797 0.183828 0.199917
H77   H     H_    0.629552 0.944988 0.190831 0.125850
H78   H     H_    0.646847 0.923627 0.157286 0.130383
F7    F     F_    0.648537 0.178068 0.420082 -0.572456
F8    F     F_    0.649998 0.171624 0.078853 -0.569462
O57   O     O_3   0.643707 0.064224 0.631216 -0.532861
C235  C     C_3   0.730567 0.121070 0.634645 -0.057746
H79   H     H_    0.754201 0.103468 0.652050 0.098585
H80   H     H_    0.745889 0.187952 0.636053 0.170976
H81   H     H_    0.764521 0.116449 0.617440 0.200631
O58   O     O_3   0.639917 0.054628 0.866984 -0.533187
C236  C     C_3   0.726660 0.114090 0.865030 -0.057044
H82   H     H_    0.740165 0.180484 0.865766 0.179482
H83   H     H_    0.753330 0.103179 0.847030 0.098343
H84   H     H_    0.759311 0.105235 0.881844 0.197530
F9    F     F_    0.582666 0.673592 0.302076 -0.605276
F10   F     F_    0.578768 0.686238 0.194603 -0.596234
F11   F     F_    0.619971 0.768069 0.439008 -0.570489
F12   F     F_    0.561244 0.767180 0.057575 -0.574250
O59   O     O_3   0.708984 0.566629 0.631635 -0.525263
C237  C     C_3   0.755053 0.648354 0.642399 -0.079784
H85   H     H_    0.714025 0.674916 0.647298 0.149857
H86   H     H_    0.801218 0.690609 0.627685 0.149777
H87   H     H_    0.791202 0.648874 0.659787 0.137545
O60   O     O_3   0.697370 0.553443 0.870923 -0.531382
C238  C     C_3   0.755878 0.634021 0.861205 -0.082019
H88   H     H_    0.725013 0.669916 0.854813 0.154744
H89   H     H_    0.793437 0.629417 0.845053 0.150397
H90   H     H_    0.800301 0.670658 0.877085 0.149032
O61   O     O_3   0.297025 0.469522 0.326311 -0.543458
C239  C     C_3   0.269734 0.382728 0.324620 -0.056551
H91   H     H_    0.270803 0.356295 0.344010 0.149161
H92   H     H_    0.307725 0.370271 0.310310 0.127162
H93   H     H_    0.203680 0.348925 0.317684 0.162544
O62   O     O_3   0.297090 0.459157 0.175393 -0.540586
C240  C     C_3   0.280129 0.375541 0.178079 -0.059993
H94   H     H_    0.215094 0.336238 0.185537 0.161795
H95   H     H_    0.323262 0.371277 0.192426 0.128076
H96   H     H_    0.283574 0.348716 0.158992 0.143244
F13   F     F_    0.422934 0.350013 0.688025 -0.545481
F14   F     F_    0.421881 0.371722 0.806210 -0.541641
O63   O     O_3   0.517164 0.285356 0.556350 -0.537477
C241  C     C_3   0.433441 0.220006 0.552386 -0.072686
H97   H     H_    0.422335 0.200500 0.531575 0.141061
H98   H     H_    0.387080 0.238018 0.559157 0.152208
H99   H     H_    0.422445 0.164432 0.564008 0.144552
O64   O     O_3   0.417645 0.277896 0.940170 -0.504398
C242  C     C_3   0.464432 0.237560 0.944715 -0.064956
H100  H     H_    0.466596 0.224924 0.965810 0.127512
H101  H     H_    0.529256 0.274886 0.936670 0.143075
H102  H     H_    0.432946 0.175792 0.934547 0.155643
F15   F     F_    0.410249 0.385069 0.637279 -0.550274
F16   F     F_    0.399939 0.411620 0.855604 -0.532579
F17   F     F_    0.455174 0.299488 0.472351 -0.655495
F18   F     F_    0.504849 0.330402 0.024731 -0.657909
F19   F     F_    0.799537 0.236509 0.558222 -0.557064
F20   F     F_    0.804187 0.237122 0.941225 -0.552815
F21   F     F_    0.829241 0.247707 0.507692 -0.607400
F22   F     F_    0.834560 0.248197 0.991726 -0.606976

loop_
_geom_bond_atom_site_label_1
_geom_bond_atom_site_label_2
_ccdc_geom_bond_type
C2    O39   A    
C194  C196  A    
C63   C65   A    
C57   F19   S    
O51   C229  S    
Cr5   O37   S    
C33   C45   S    
C240  H94   S    
C185  C207  A    
C2    C202  S    
C39   C87   A    
C154  H30   S    
C170  C176  A    
C242  H100  S    
C171  C173  A    
C177  O15   D    
C93   O53   S    
C156  O58   S    
Cr4   O26   S    
Cr2   O38   S    
C239  H91   S    
C18   C210  A    
C235  H80   S    
C181  H49   S    
Cr1   O24   S    
C4    C142  A    
C57   C59   A    
C155  C157  A    
C205  C211  A    
C58   C60   A    
C177  N9    Am   
O54   C232  S    
C105  C123  A    
C229  H63   S    
C178  N10   Am   
C61   C63   A    
C7    C203  A    
C22   H52   S    
C12   C228  A    
C236  H83   S    
C91   H7    S    
C65   N3    Am   
C122  C170  A    
C50   C52   A    
C159  C161  A    
C68   N4    Am   
C167  F5    S    
C36   O26   A    
C175  H35   S    
C217  C219  A    
C46   C72   A    
C1    O23   A    
C206  C214  A    
C182  C192  A    
C49   C91   A    
Cr6   O36   S    
C104  C106  A    
C231  H67   S    
C223  N11   Am   
C4    C208  A    
C77   C79   A    
C59   C61   A    
Cr2   O40   S    
C183  C201  A    
C127  C133  A    
C8    C204  A    
C118  H16   S    
C232  H72   S    
C25   C41   A    
C53   O40   A    
C26   C38   A    
C212  C220  A    
C193  C199  A    
C21   C29   A    
Cr5   O32   S    
C75   O44   A    
C64   C66   A    
C56   F22   S    
Cr1   O1    S    
C137  C139  A    
C134  H24   S    
C92   C94   A    
C216  H42   S    
Cr4   O27   S    
C35   O25   A    
C138  C140  A    
C126  C154  A    
C241  H97   S    
C185  H1    S    
C9    F15   S    
C14   C206  A    
C76   O45   A    
C234  H76   S    
C240  H96   S    
C192  N10   S    
C143  C173  A    
O55   C233  S    
C228  O60   S    
O64   C242  S    
C242  H102  S    
C135  C137  A    
C187  C201  A    
C54   O43   A    
C177  C195  A    
C147  O9    D    
C88   H58   S    
C189  H37   S    
C239  H93   S    
C84   C86   A    
C233  H74   S    
C39   H31   S    
C226  N12   Am   
C34   O32   A    
C180  N10   Am   
C2    O24   A    
C186  C208  A    
C3    C207  A    
C225  O17   D    
C156  C158  A    
C64   C94   A    
C99   C115  A    
C40   C88   A    
C33   O31   A    
C188  C202  A    
C116  C118  A    
C47   C81   A    
C127  C131  A    
C99   N5    Am   
C113  C161  A    
C206  C212  A    
C48   C52   A    
C182  H50   S    
C8    C10   A    
C106  C124  A    
C133  C135  A    
C73   C77   A    
C72   H46   S    
O59   C237  S    
C218  C226  A    
C231  H69   S    
C161  C165  A    
C29   F17   S    
C76   O2    A    
C30   F18   S    
C41   C89   A    
C147  N7    Am   
Cr3   O46   S    
C45   C71   A    
C169  F7    S    
O61   C239  S    
C3    C141  A    
C48   C56   A    
C38   C98   A    
C53   O42   A    
C236  H82   S    
C226  O18   D    
C145  O13   D    
C146  O14   D    
C34   O34   A    
C70   H56   S    
C60   C62   A    
C216  C218  A    
C101  N5    Am   
C149  C151  A    
C102  N6    Am   
C214  C216  A    
O52   C230  S    
C107  F1    S    
C149  H19   S    
C197  F11   S    
C198  F12   S    
C188  C190  A    
C32   C126  S    
C189  C191  A    
C125  C151  A    
C59   C67   A    
C126  C152  A    
C241  H99   S    
C194  C200  A    
C159  C167  A    
O56   C234  S    
C234  H78   S    
C97   O47   D    
C238  H89   S    
C34   C46   S    
C160  C168  A    
Cr6   O34   S    
C54   O41   A    
C21   C199  A    
C81   C83   A    
C172  C174  A    
C186  H2    S    
C19   H47   S    
C27   C221  A    
C76   C124  S    
C119  N1    Am   
C120  N2    Am   
C65   O5    D    
C108  F2    S    
C104  C112  A    
C66   O6    D    
C49   C51   A    
C178  C196  A    
C66   N4    Am   
C71   H45   S    
C5    C227  A    
C42   C90   A    
C160  C162  A    
C222  C224  A    
C180  C200  A    
C128  C134  A    
C148  O10   D    
C218  C220  A    
O63   C241  S    
C183  O61   S    
C103  C105  A    
C229  H62   S    
C28   O64   S    
C237  H85   S    
C240  H95   S    
C227  O59   S    
C28   C222  A    
O62   C240  S    
C210  C212  A    
Cr3   O44   S    
C119  O3    D    
C230  H66   S    
C69   C79   A    
C31   C125  S    
C144  C174  A    
C152  H18   S    
C236  H84   S    
C26   C42   A    
Cr5   O30   S    
C25   C83   A    
C224  O22   D    
C26   C84   A    
C22   C30   A    
C77   H9    S    
C120  O4    D    
C24   C28   A    
O58   C236  S    
C98   O48   D    
C5    C203  A    
C100  O8    D    
C90   C96   A    
C211  C219  A    
C239  H92   S    
C213  C215  A    
C3    N1    S    
Cr1   O23   S    
C95   H11   S    
C85   C95   A    
C42   C120  A    
C149  C157  A    
C82   C88   A    
Cr6   O33   S    
C241  H98   S    
C56   C58   A    
C14   C16   A    
C171  H27   S    
C164  H60   S    
C153  H29   S    
C110  C112  A    
C16   C194  A    
C44   C54   S    
C113  C121  A    
C109  H13   S    
C11   C227  A    
C208  F4    S    
C36   O36   A    
C92   H8    S    
C217  C225  A    
C195  C197  A    
C40   H32   S    
C24   H54   S    
C11   N11   S    
C74   O52   S    
C17   C29   A    
C100  C116  A    
C107  C123  A    
C1    C201  S    
C79   N3    S    
C231  H68   S    
C103  H25   S    
C33   O33   A    
C112  N6    S    
C215  H41   S    
Cr2   O41   S    
C22   C200  A    
C108  C124  A    
C17   C209  A    
C187  F9    S    
C142  C164  A    
C114  C162  A    
Cr5   O31   S    
C103  C111  A    
C104  H26   S    
C162  C166  A    
C43   C53   S    
C130  C172  A    
C115  C117  A    
C6    C228  A    
C35   O35   A    
C87   H57   S    
C230  H64   S    
C31   O29   A    
Cr4   O28   S    
C153  C155  A    
C154  C156  A    
C55   F21   S    
C184  O62   S    
C133  H23   S    
C205  C213  A    
C67   N3    Am   
C107  C109  A    
C20   H48   S    
C7    F13   S    
C96   H12   S    
C163  H59   S    
C129  C171  A    
C101  O11   D    
C242  H101  S    
C213  H43   S    
C19   C197  A    
C13   C19   A    
C32   O28   A    
Cr4   O25   S    
C14   C20   A    
C99   O7    D    
C235  H79   S    
C223  O21   D    
C181  C183  A    
C117  H15   S    
C151  H17   S    
C70   C80   A    
C78   H10   S    
C190  H38   S    
C89   C95   A    
C130  C132  A    
C6    C204  A    
C91   C93   A    
C75   O1    A    
C130  C166  A    
C114  C116  A    
C13   C15   A    
C169  C175  A    
Cr2   O46   S    
C41   C119  A    
C106  O56   S    
C81   C87   A    
C86   C96   A    
C146  N8    Am   
Cr1   O46   S    
C144  C146  A    
C83   C85   A    
C111  N5    S    
O60   C238  S    
C13   C205  A    
C170  F8    S    
C173  H33   S    
C174  H34   S    
C145  N7    Am   
C110  H14   S    
C12   N12   S    
C15   C17   A    
C24   C210  A    
C150  C158  A    
Cr2   O39   S    
Cr3   O45   S    
C97   N1    Am   
C207  F3    S    
C137  C147  A    
C98   N2    Am   
C140  C144  A    
Cr4   O37   S    
C58   F20   S    
C47   C51   A    
O57   C235  S    
C90   H6    S    
C132  C140  A    
C63   C93   A    
C129  C165  A    
C73   O51   S    
C62   C64   A    
C37   C39   A    
Cr1   O2    S    
C38   C40   A    
C181  C191  A    
C179  C199  A    
C117  C167  A    
C118  C168  A    
C48   C82   A    
C31   O27   A    
C78   C80   A    
C101  C121  A    
C15   C193  A    
C23   H53   S    
C60   C68   A    
C74   C78   A    
C234  H77   S    
C43   C185  A    
C52   C62   A    
C44   C164  A    
C135  H21   S    
C102  C122  A    
C21   H51   S    
C44   C186  A    
C43   C163  A    
C121  C169  A    
C68   O50   D    
C158  N8    S    
C32   O30   A    
C89   H5    S    
O53   C231  S    
C51   C61   A    
C235  H81   S    
C233  H73   S    
C220  C222  A    
C176  H36   S    
Cr6   O37   S    
C75   C123  S    
C215  C217  A    
C180  O20   D    
C45   C73   A    
C69   C71   A    
C82   C84   A    
C109  C111  A    
C25   C37   A    
C225  N11   Am   
C155  O57   S    
C108  C110  A    
C193  C195  A    
C142  H4    S    
C18   C30   A    
C23   C27   A    
C100  N6    Am   
C150  H20   S    
C179  O19   D    
C237  H86   S    
C80   N4    S    
C37   C97   A    
C188  F10   S    
Cr3   O43   S    
C230  H65   S    
C139  C143  A    
C6    H40   S    
C128  C132  A    
C10   F16   S    
C125  C153  A    
Cr5   O29   S    
C182  C184  A    
C148  N8    Am   
C184  C202  A    
C49   C85   A    
C131  C139  A    
C237  H87   S    
C136  C138  A    
C138  C148  A    
C105  O55   S    
C134  C136  A    
C23   C209  A    
C219  C221  A    
C238  H88   S    
C20   C198  A    
C238  H90   S    
C179  N9    Am   
C9    C11   A    
C10   C12   A    
C50   C92   A    
C102  O12   D    
C141  C163  A    
C214  H44   S    
C150  C152  A    
C233  H75   S    
C127  C159  A    
C46   C74   A    
C128  C160  A    
C47   C55   A    
C143  C145  A    
Cr6   O35   S    
C141  H3    S    
C190  C192  A    
C136  H22   S    
C4    N2    S    
C157  N7    S    
C191  N9    S    
C165  C175  A    
C166  C176  A    
C67   O49   D    
Cr3   O42   S    
C168  F6    S    
C1    O38   A    
C55   C57   A    
C221  C223  A    
C232  H70   S    
C178  O16   D    
C35   C203  S    
C113  C115  A    
C209  C211  A    
C232  H71   S    
C69   H55   S    
C8    F14   S    
C172  H28   S    
C229  H61   S    
C187  C189  A    
C196  C198  A    
C50   C86   A    
C114  C122  A    
C7    C9    A    
C5    H39   S    
C16   C18   A    
C27   O63   S    
C94   O54   S    
C70   C72   A    
C36   C204  S    
C224  N12   Am   
C129  C131  A    
