data_mof_unit_29522.cif
_audit_creation_date              2012-12-10T17:52:05-0500
_audit_creation_method            fapswitch 2.2
_symmetry_space_group_name_H-M    P1
_symmetry_Int_Tables_number       1
_space_group_crystal_system       triclinic
_cell_length_a                    14.683411
_cell_length_b                    14.662386
_cell_length_c                    19.314476
_cell_angle_alpha                 76.96341
_cell_angle_beta                  102.908324
_cell_angle_gamma                 114.671135
_cell_volume                      3641.88575182

loop_
_atom_site_label
_atom_site_type_symbol
_atom_type_description
_atom_site_fract_x
_atom_site_fract_y
_atom_site_fract_z
_atom_type_partial_charge
C1    C     C_R   0.880361 0.312080 0.511826 0.800348
C2    C     C_R   0.119573 0.687835 0.487957 0.801049
C3    C     C_R   0.813044 0.204115 0.520001 -0.053002
C4    C     C_R   0.186732 0.795503 0.484445 -0.052377
C5    C     C_R   0.785542 0.026328 0.547014 -0.195033
C6    C     C_R   0.215233 0.971012 0.479956 -0.194722
C7    C     C_R   0.851417 0.127886 0.540038 -0.202774
C8    C     C_R   0.148950 0.870406 0.478207 -0.203159
C9    C     C_R   0.708462 0.177749 0.507928 -0.240612
C10   C     C_R   0.290942 0.822291 0.491280 -0.234092
C11   C     C_R   0.640077 0.076132 0.518789 0.060987
C12   C     C_R   0.360232 0.921977 0.498303 0.061811
C13   C     C_R   0.679587 0.998794 0.536121 0.147020
C14   C     C_R   0.321138 0.998387 0.490242 0.147057
C15   C     C_R   0.533690 0.050191 0.510986 0.013497
C16   C     C_R   0.466841 0.947096 0.512357 0.013100
C17   C     C_R   0.508371 0.871779 0.530244 -0.205402
C18   C     C_R   0.492581 0.124241 0.503979 -0.205243
C19   C     C_R   0.612669 0.896084 0.542244 0.152240
C20   C     C_R   0.388360 0.099959 0.493183 0.150497
C21   C     C_R   0.718686 0.673350 0.384138 -0.319348
C22   C     C_R   0.287765 0.336843 0.623682 -0.320956
C23   C     C_R   0.999514 0.499836 0.632555 0.811226
C24   C     C_R   0.000174 0.499786 0.367423 0.808929
C25   C     C_R   0.797917 0.640132 0.400750 0.064838
C26   C     C_R   0.204226 0.363520 0.601963 0.065336
C27   C     C_R   0.715704 0.511106 0.490746 0.015053
C28   C     C_R   0.286007 0.491055 0.511129 0.015751
C29   C     C_R   0.632052 0.541320 0.476916 -0.046373
C30   C     C_R   0.374999 0.469069 0.531315 -0.048641
C31   C     C_R   0.634895 0.624972 0.421962 0.146789
C32   C     C_R   0.374226 0.388859 0.588796 0.150306
C33   C     C_R   0.546757 0.491711 0.515529 0.021886
C34   C     C_R   0.463178 0.522895 0.495992 0.018483
C35   C     C_R   0.471014 0.608291 0.442783 -0.229182
C36   C     C_R   0.543172 0.412839 0.573676 -0.239077
C37   C     C_R   0.554940 0.659443 0.406386 0.183854
C38   C     C_R   0.459439 0.362198 0.610353 0.184489
C39   C     C_R   0.077016 0.487883 0.761100 -0.181554
C40   C     C_R   0.921570 0.512431 0.239235 -0.181309
C41   C     C_R   0.077167 0.488549 0.833411 0.169854
C42   C     C_R   0.919824 0.511306 0.166776 0.166432
C43   C     C_R   0.996640 0.501201 0.853443 0.031840
C44   C     C_R   0.998502 0.496513 0.145993 0.035620
C45   C     C_R   0.916349 0.512350 0.800557 0.069144
C46   C     C_R   0.078145 0.482611 0.198387 0.070772
C47   C     C_R   0.918488 0.511606 0.728632 -0.217069
C48   C     C_R   0.077751 0.484065 0.270586 -0.216713
C49   C     C_R   0.998338 0.499727 0.708504 -0.107928
C50   C     C_R   0.000012 0.498868 0.291355 -0.106993
C51   C     C_R   0.997950 0.497723 0.069813 0.404049
C52   C     C_R   0.996187 0.500647 0.929303 0.399966
Cu1   Cu    Cu3+1 0.081740 0.475680 0.518680 0.934065
Cu2   Cu    Cu3+1 0.918260 0.524320 0.481320 0.932990
H1    H     H_    0.138787 0.478311 0.745807 0.158616
H2    H     H_    0.861224 0.523909 0.254991 0.159205
H3    H     H_    0.278366 0.547866 0.466716 0.119645
H4    H     H_    0.720323 0.448948 0.531259 0.119979
H5    H     H_    0.138481 0.323562 0.629319 0.126207
H6    H     H_    0.862724 0.678896 0.372354 0.127154
H7    H     H_    0.724495 0.737340 0.342022 0.153193
H8    H     H_    0.283526 0.275528 0.667782 0.152619
H9    H     H_    0.413335 0.639086 0.429427 0.132087
H10   H     H_    0.605667 0.389151 0.592700 0.131673
H11   H     H_    0.857255 0.520692 0.688200 0.158273
H12   H     H_    0.138260 0.473038 0.310835 0.155630
H13   H     H_    0.315860 0.763477 0.489905 0.142676
H14   H     H_    0.682033 0.238356 0.487899 0.151713
H15   H     H_    0.068241 0.851261 0.472528 0.154698
H16   H     H_    0.932313 0.146589 0.549462 0.153114
H17   H     H_    0.818759 0.970002 0.561226 0.148152
H18   H     H_    0.182402 0.026429 0.474505 0.148432
H19   H     H_    0.461286 0.792156 0.538234 0.146417
H20   H     H_    0.540173 0.202082 0.509592 0.143888
N1    N     N_R   0.923767 0.424990 0.965127 -0.244867
N2    N     N_R   0.069856 0.573769 0.033817 -0.245967
N3    N     N_R   0.924555 0.423650 0.034335 -0.246678
N4    N     N_R   0.069111 0.575087 0.964642 -0.237221
N5    N     N_R   0.795420 0.560800 0.453240 -0.175732
N6    N     N_R   0.204580 0.439200 0.546760 -0.175291
O1    O     O_R   0.977910 0.338110 0.524620 -0.586938
O2    O     O_R   0.022090 0.661890 0.475380 -0.587348
O3    O     O_R   0.839850 0.379180 0.493080 -0.590461
O4    O     O_R   0.160150 0.620820 0.506920 -0.588023
O5    O     O_R   0.069040 0.479450 0.615630 -0.584824
O6    O     O_R   0.930960 0.520550 0.384370 -0.585421
O7    O     O_R   0.930990 0.520520 0.584090 -0.584659
O8    O     O_R   0.069010 0.479480 0.415910 -0.584794
C53   C     C_3   0.557476 0.751628 0.351320 -0.880397
H21   H     H_    0.489548 0.769178 0.346808 0.234102
H22   H     H_    0.624965 0.819097 0.366856 0.235797
H23   H     H_    0.560305 0.738389 0.297605 0.231245
C54   C     C_3   0.462613 0.278528 0.671943 -0.886451
H24   H     H_    0.535483 0.268228 0.682103 0.231290
H25   H     H_    0.453325 0.296899 0.721976 0.231741
H26   H     H_    0.401086 0.205389 0.659664 0.236820
C55   C     C_3   0.162377 0.473326 0.888511 -0.861013
H27   H     H_    0.131140 0.407348 0.930039 0.236610
H28   H     H_    0.215495 0.458514 0.863942 0.223802
H29   H     H_    0.206372 0.542338 0.914468 0.250110
C56   C     C_3   0.834907 0.528264 0.112302 -0.860304
H30   H     H_    0.866572 0.594329 0.070956 0.236255
H31   H     H_    0.789657 0.459714 0.086023 0.249569
H32   H     H_    0.782882 0.543844 0.137479 0.224063
C57   C     C_3   0.828500 0.527660 0.818012 -0.406812
C58   C     C_3   0.732431 0.430180 0.815426 -0.326078
C59   C     C_3   0.643395 0.444861 0.832638 -0.828800
H33   H     H_    0.661271 0.466790 0.887018 0.258011
H34   H     H_    0.625811 0.504635 0.792230 0.254743
H35   H     H_    0.575549 0.372748 0.831460 0.239666
H36   H     H_    0.712003 0.407539 0.761048 0.213935
H37   H     H_    0.746328 0.367756 0.855081 0.238479
H38   H     H_    0.846027 0.551899 0.871540 0.209125
H39   H     H_    0.814571 0.590180 0.778405 0.195260
C60   C     C_3   0.163304 0.464296 0.179363 -0.412389
C61   C     C_3   0.127356 0.355671 0.163610 -0.336370
C62   C     C_3   0.212621 0.338089 0.143103 -0.835135
H40   H     H_    0.238833 0.390617 0.093769 0.258364
H41   H     H_    0.277328 0.350333 0.187529 0.253957
H42   H     H_    0.184663 0.258842 0.132450 0.243598
H43   H     H_    0.100826 0.300838 0.212078 0.221323
H44   H     H_    0.063255 0.340683 0.118818 0.234688
H45   H     H_    0.194620 0.520304 0.132802 0.219341
H46   H     H_    0.227186 0.476363 0.224544 0.194787
C63   C     C_3   0.650326 0.810682 0.560730 -0.875722
H47   H     H_    0.587332 0.734737 0.563331 0.242063
H48   H     H_    0.694643 0.816359 0.519154 0.236174
H49   H     H_    0.698623 0.814801 0.614032 0.228628
C64   C     C_3   0.350990 0.184305 0.484148 -0.876248
H50   H     H_    0.414122 0.259829 0.485169 0.245319
H51   H     H_    0.302030 0.187385 0.431501 0.229934
H52   H     H_    0.307460 0.171142 0.528120 0.234059

loop_
_geom_bond_atom_site_label_1
_geom_bond_atom_site_label_2
_ccdc_geom_bond_type
C15   C18   A    
C54   H24   S    
C27   C29   A    
C41   C43   A    
C2    O4    A    
C20   C64   S    
C4    C8    A    
C52   N1    A    
C7    H16   S    
C55   H27   S    
C47   C49   A    
C58   H37   S    
C28   H3    S    
C6    H18   S    
C21   C31   A    
C8    H15   S    
C56   H30   S    
C22   C32   A    
C46   C60   S    
Cu1   O4    S    
C57   H38   S    
C35   C37   A    
N2    N4    A    
C64   H50   S    
C27   N5    A    
C62   H41   S    
Cu2   O7    S    
C43   C52   S    
C23   C49   S    
C22   H8    S    
C58   C59   S    
C1    O1    A    
C60   C61   S    
C29   C33   A    
C33   C36   A    
C61   C62   S    
Cu1   O1    S    
C34   C35   A    
C11   C15   A    
C39   H1    S    
C12   C16   A    
C45   C57   S    
C16   C17   A    
C40   H2    S    
C63   H49   S    
C59   H33   S    
C25   H6    S    
C32   C38   A    
C53   H22   S    
C26   H5    S    
C21   H7    S    
C64   H52   S    
C40   C42   A    
C56   H31   S    
C23   O7    A    
C17   H19   S    
C59   H34   S    
C42   C44   A    
C52   N4    A    
C10   C12   A    
Cu2   O3    S    
C55   H28   S    
C44   C46   A    
C58   H36   S    
C45   C47   A    
C24   C50   S    
C46   C48   A    
C60   H45   S    
C61   H43   S    
C30   C34   A    
C14   C20   A    
C57   H39   S    
Cu1   N6    S    
C51   N2    A    
C39   C41   A    
C62   H42   S    
Cu2   O6    S    
C13   C19   A    
C6    C8    A    
Cu1   Cu2   S    
C19   C63   S    
C26   N6    A    
C31   C37   A    
C1    C3    S    
C2    C4    S    
C51   N3    A    
C3    C9    A    
C6    C14   A    
C43   C45   A    
C29   C31   A    
C33   C34   A    
C53   H23   S    
C48   C50   A    
N1    N3    A    
C61   H44   S    
C44   C51   S    
C39   C49   A    
C12   C14   A    
C54   H26   S    
C9    C11   A    
C23   O5    A    
C63   H47   S    
C59   H35   S    
C41   C55   S    
C2    O2    A    
C1    O3    A    
C4    C10   A    
C42   C56   S    
Cu2   O2    S    
C55   H29   S    
C5    C7    A    
Cu2   N5    S    
C21   C25   A    
C60   H46   S    
C25   N5    A    
C5    C13   A    
C24   O8    A    
C27   H4    S    
Cu1   O5    S    
C56   H32   S    
C57   C58   S    
C3    C7    A    
C37   C53   S    
C36   C38   A    
C9    H14   S    
C5    H17   S    
C10   H13   S    
C62   H40   S    
C30   C32   A    
C11   C13   A    
C54   H25   S    
C40   C50   A    
C38   C54   S    
C28   C30   A    
C17   C19   A    
Cu1   O8    S    
C18   C20   A    
C28   N6    A    
C18   H20   S    
C22   C26   A    
C63   H48   S    
C35   H9    S    
C48   H12   S    
C53   H21   S    
C36   H10   S    
C24   O6    A    
C47   H11   S    
C15   C16   A    
C64   H51   S    
