data_mof_unit_46117.cif
_audit_creation_date              2012-12-10T20:53:05-0500
_audit_creation_method            fapswitch 2.2
_symmetry_space_group_name_H-M    P1
_symmetry_Int_Tables_number       1
_space_group_crystal_system       triclinic
_cell_length_a                    18.779072
_cell_length_b                    18.779065
_cell_length_c                    18.77907
_cell_angle_alpha                 58.032176
_cell_angle_beta                  58.032166
_cell_angle_gamma                 58.032169
_cell_volume                      4471.47232633

loop_
_atom_site_label
_atom_site_type_symbol
_atom_type_description
_atom_site_fract_x
_atom_site_fract_y
_atom_site_fract_z
_atom_type_partial_charge
C1    C     C_R   0.391710 0.115554 0.104504 0.487359
C2    C     C_R   0.345542 0.828614 0.842109 -0.107400
C3    C     C_R   0.998739 0.587940 0.944692 0.011373
C4    C     C_R   0.412060 0.055309 0.001260 0.011373
C5    C     C_R   0.587939 0.944691 0.998740 0.011373
C6    C     C_R   0.931915 0.961972 0.548301 -0.025029
C7    C     C_R   0.068085 0.038028 0.451698 -0.025029
C8    C     C_R   0.961972 0.548301 0.931915 -0.025029
C9    C     C_R   0.038028 0.451698 0.068085 -0.025029
C10   C     C_R   0.548301 0.931915 0.961972 -0.025029
C11   C     C_R   0.451699 0.068085 0.038028 -0.025029
C12   C     C_3   0.179190 0.724985 0.983706 -0.122421
C13   C     C_R   0.171386 0.157892 0.654458 -0.107400
C14   C     C_3   0.820810 0.275015 0.016293 -0.122421
C15   C     C_3   0.724985 0.983706 0.179190 -0.122421
C16   C     C_3   0.275015 0.016294 0.820810 -0.122421
C17   C     C_3   0.983707 0.179190 0.724984 -0.122421
C18   C     C_3   0.016293 0.820810 0.275016 -0.122421
C19   C     C_R   0.828614 0.842108 0.345542 -0.107400
C20   C     C_R   0.137587 0.597607 0.260402 -0.117128
C21   C     C_R   0.862413 0.402393 0.739597 -0.117129
C22   C     C_R   0.597608 0.260402 0.137587 -0.117129
C23   C     C_R   0.402392 0.739597 0.862413 -0.117129
C24   C     C_R   0.260403 0.137587 0.597607 -0.117129
C25   C     C_R   0.739597 0.862413 0.402393 -0.117129
C26   C     C_R   0.051632 0.592140 0.309815 0.040228
C27   C     C_R   0.608290 0.884446 0.895496 0.487359
C28   C     C_R   0.948368 0.407860 0.690185 0.040228
C29   C     C_R   0.592140 0.309815 0.051631 0.040228
C30   C     C_R   0.407860 0.690185 0.948368 0.040228
C31   C     C_R   0.309815 0.051632 0.592140 0.040228
C32   C     C_R   0.690185 0.948368 0.407860 0.040228
C33   C     C_R   0.986586 0.643258 0.269300 -0.167361
C34   C     C_R   0.013413 0.356742 0.730700 -0.167361
C35   C     C_R   0.643257 0.269300 0.986587 -0.167360
C36   C     C_R   0.356743 0.730700 0.013413 -0.167361
C37   C     C_R   0.269300 0.986587 0.643258 -0.167361
C38   C     C_R   0.115554 0.104504 0.391710 0.487359
C39   C     C_R   0.730700 0.013413 0.356742 -0.167361
C40   C     C_R   0.006064 0.702411 0.181336 -0.085459
C41   C     C_R   0.993936 0.297589 0.818664 -0.085460
C42   C     C_R   0.702410 0.181336 0.006064 -0.085460
C43   C     C_R   0.297590 0.818664 0.993936 -0.085459
C44   C     C_R   0.181336 0.006064 0.702410 -0.085460
C45   C     C_R   0.818664 0.993936 0.297589 -0.085460
C46   C     C_R   0.092291 0.707058 0.130828 0.316001
C47   C     C_R   0.907709 0.292942 0.869172 0.316001
C48   C     C_R   0.707058 0.130828 0.092291 0.316001
C49   C     C_R   0.884446 0.895496 0.608290 0.487359
C50   C     C_R   0.292942 0.869172 0.907709 0.316001
C51   C     C_R   0.130828 0.092291 0.707058 0.316001
C52   C     C_R   0.869172 0.907708 0.292942 0.316001
C53   C     C_R   0.972107 0.592932 0.462622 -0.163072
C54   C     C_R   0.027893 0.407067 0.537377 -0.163072
C55   C     C_R   0.592932 0.462622 0.972107 -0.163072
C56   C     C_R   0.407067 0.537378 0.027893 -0.163072
C57   C     C_R   0.462623 0.972107 0.592932 -0.163072
C58   C     C_R   0.537378 0.027893 0.407067 -0.163072
C59   C     C_R   0.945391 0.552041 0.555462 0.017445
C60   C     C_R   0.104504 0.391710 0.115554 0.487359
C61   C     C_R   0.054609 0.447959 0.444538 0.017445
C62   C     C_R   0.552041 0.555462 0.945390 0.017445
C63   C     C_R   0.447959 0.444538 0.054609 0.017445
C64   C     C_R   0.555462 0.945390 0.552041 0.017446
C65   C     C_R   0.444538 0.054609 0.447959 0.017445
C66   C     C_R   0.973831 0.457585 0.593242 -0.020393
C67   C     C_R   0.026169 0.542415 0.406758 -0.020393
C68   C     C_R   0.457585 0.593242 0.973831 -0.020393
C69   C     C_R   0.542415 0.406758 0.026169 -0.020393
C70   C     C_R   0.593242 0.973831 0.457585 -0.020392
C71   C     C_R   0.895496 0.608290 0.884446 0.487359
C72   C     C_R   0.406758 0.026169 0.542414 -0.020393
C73   C     C_R   0.110191 0.390616 0.389765 0.505273
C74   C     C_R   0.889809 0.609383 0.610235 0.505273
C75   C     C_R   0.390616 0.389765 0.110191 0.505273
C76   C     C_R   0.609383 0.610235 0.889809 0.505273
C77   C     C_R   0.389765 0.110191 0.390616 0.505273
C78   C     C_R   0.610235 0.889809 0.609383 0.505273
C79   C     C_R   0.115558 0.991554 0.328011 -0.074071
C80   C     C_R   0.884442 0.008445 0.671989 -0.074071
C81   C     C_R   0.991554 0.328011 0.115558 -0.074071
C82   C     C_R   0.157892 0.654458 0.171386 -0.107399
C83   C     C_R   0.008445 0.671989 0.884442 -0.074071
C84   C     C_R   0.328011 0.115558 0.991554 -0.074071
C85   C     C_R   0.671989 0.884441 0.008446 -0.074070
C86   C     C_R   0.089468 0.982161 0.277832 -0.125481
C87   C     C_R   0.910532 0.017839 0.722168 -0.125481
C88   C     C_R   0.982161 0.277832 0.089469 -0.125480
C89   C     C_R   0.017839 0.722168 0.910532 -0.125481
C90   C     C_R   0.277832 0.089469 0.982161 -0.125480
C91   C     C_R   0.722168 0.910531 0.017840 -0.125480
C92   C     C_R   0.005412 0.977670 0.312942 -0.152909
C93   C     C_R   0.842108 0.345542 0.828613 -0.107400
C94   C     C_R   0.994588 0.022330 0.687058 -0.152909
C95   C     C_R   0.977669 0.312942 0.005413 -0.152909
C96   C     C_R   0.022330 0.687058 0.994588 -0.152909
C97   C     C_R   0.312942 0.005413 0.977669 -0.152909
C98   C     C_R   0.687058 0.994586 0.022331 -0.152909
C99   C     C_R   0.952800 0.968547 0.402639 -0.102475
C100  C     C_R   0.047200 0.031453 0.597361 -0.102475
C101  C     C_R   0.968546 0.402639 0.952801 -0.102475
C102  C     C_R   0.031453 0.597361 0.047199 -0.102474
C103  C     C_R   0.402639 0.952801 0.968546 -0.102475
C104  C     C_R   0.654458 0.171386 0.157891 -0.107399
C105  C     C_R   0.597361 0.047198 0.031454 -0.102475
C106  C     C_R   0.979991 0.974820 0.455766 0.011111
C107  C     C_R   0.020009 0.025180 0.544234 0.011111
C108  C     C_R   0.974820 0.455765 0.979991 0.011111
C109  C     C_R   0.025180 0.544234 0.020009 0.011111
C110  C     C_R   0.455766 0.979991 0.974820 0.011111
C111  C     C_R   0.544234 0.020008 0.025180 0.011111
C112  C     C_R   0.055308 0.001260 0.412060 0.011373
C113  C     C_R   0.944692 0.998740 0.587940 0.011373
C114  C     C_R   0.001260 0.412060 0.055308 0.011373
H1    H     H_    0.017553 0.019897 0.729944 0.161468
H2    H     H_    0.334936 0.566928 0.048365 0.126295
H3    H     H_    0.433072 0.951634 0.665063 0.126295
H4    H     H_    0.566928 0.048366 0.334936 0.126295
H5    H     H_    0.181891 0.994212 0.299305 0.140248
H6    H     H_    0.818109 0.005788 0.700695 0.140248
H7    H     H_    0.994212 0.299305 0.181891 0.140248
H8    H     H_    0.005787 0.700695 0.818109 0.140248
H9    H     H_    0.299306 0.181892 0.994212 0.140248
H10   H     H_    0.700694 0.818108 0.005788 0.140248
H11   H     H_    0.132842 0.982146 0.210467 0.123370
H12   H     H_    0.982447 0.980103 0.270056 0.161468
H13   H     H_    0.867158 0.017854 0.789532 0.123370
H14   H     H_    0.982145 0.210468 0.132843 0.123370
H15   H     H_    0.017855 0.789532 0.867157 0.123370
H16   H     H_    0.210468 0.132844 0.982145 0.123370
H17   H     H_    0.789532 0.867156 0.017855 0.123370
H18   H     H_    0.888479 0.963724 0.426869 0.153007
H19   H     H_    0.111520 0.036276 0.573131 0.153007
H20   H     H_    0.963724 0.426869 0.888480 0.153007
H21   H     H_    0.036276 0.573131 0.111521 0.153007
H22   H     H_    0.426869 0.888480 0.963723 0.153007
H23   H     H_    0.019898 0.729944 0.017553 0.161467
H24   H     H_    0.573131 0.111519 0.036277 0.153007
H25   H     H_    0.223283 0.660152 0.135564 0.098163
H26   H     H_    0.776717 0.339847 0.864435 0.098163
H27   H     H_    0.660153 0.135564 0.223282 0.098162
H28   H     H_    0.339847 0.864436 0.776718 0.098162
H29   H     H_    0.135564 0.223283 0.660153 0.098163
H30   H     H_    0.864436 0.776717 0.339848 0.098163
H31   H     H_    0.187729 0.560057 0.291697 0.108422
H32   H     H_    0.812271 0.439942 0.708303 0.108422
H33   H     H_    0.560058 0.291697 0.187729 0.108422
H34   H     H_    0.980102 0.270056 0.982448 0.161468
H35   H     H_    0.439942 0.708303 0.812271 0.108422
H36   H     H_    0.291697 0.187729 0.560057 0.108422
H37   H     H_    0.708303 0.812271 0.439943 0.108422
H38   H     H_    0.919506 0.640783 0.307400 0.103708
H39   H     H_    0.080493 0.359217 0.692600 0.103708
H40   H     H_    0.640782 0.307399 0.919507 0.103709
H41   H     H_    0.359218 0.692600 0.080493 0.103709
H42   H     H_    0.307400 0.919507 0.640782 0.103709
H43   H     H_    0.692600 0.080493 0.359217 0.103709
H44   H     H_    0.953326 0.745626 0.153092 0.122812
H45   H     H_    0.729944 0.017552 0.019898 0.161468
H46   H     H_    0.046673 0.254374 0.846908 0.122812
H47   H     H_    0.745625 0.153091 0.953327 0.122811
H48   H     H_    0.254375 0.846908 0.046673 0.122812
H49   H     H_    0.153092 0.953327 0.745625 0.122811
H50   H     H_    0.846908 0.046673 0.254374 0.122811
H51   H     H_    0.176377 0.660563 0.998497 0.108049
H52   H     H_    0.243636 0.711600 0.983327 0.132384
H53   H     H_    0.176499 0.769505 0.915536 0.148112
H54   H     H_    0.756364 0.288400 0.016672 0.132384
H55   H     H_    0.823622 0.339437 0.001502 0.108049
H56   H     H_    0.270056 0.982448 0.980102 0.161468
H57   H     H_    0.823500 0.230495 0.084463 0.148112
H58   H     H_    0.660563 0.998497 0.176378 0.108050
H59   H     H_    0.711600 0.983328 0.243636 0.132383
H60   H     H_    0.769505 0.915536 0.176500 0.148112
H61   H     H_    0.288400 0.016672 0.756364 0.132383
H62   H     H_    0.339437 0.001503 0.823622 0.108049
H63   H     H_    0.230495 0.084464 0.823500 0.148112
H64   H     H_    0.998498 0.176378 0.660562 0.108049
H65   H     H_    0.983327 0.243636 0.711600 0.132384
H66   H     H_    0.915537 0.176499 0.769503 0.148112
H67   H     H_    0.951634 0.665063 0.433072 0.126295
H68   H     H_    0.016674 0.756363 0.288400 0.132385
H69   H     H_    0.001500 0.823622 0.339440 0.108050
H70   H     H_    0.084463 0.823502 0.230498 0.148110
H71   H     H_    0.048366 0.334937 0.566928 0.126295
H72   H     H_    0.665063 0.433071 0.951634 0.126295
O1    O     O_3   0.250000 0.250000 0.250000 -0.437545
O2    O     O_R   0.865800 0.694910 0.573470 -0.553925
O3    O     O_R   0.305090 0.426530 0.134200 -0.553925
O4    O     O_R   0.694910 0.573470 0.865800 -0.553925
O5    O     O_R   0.426530 0.134200 0.305090 -0.553925
O6    O     O_R   0.573470 0.865800 0.694910 -0.553925
O7    O     O_R   0.134190 0.426530 0.134200 -0.558707
O8    O     O_R   0.865810 0.573470 0.865800 -0.558707
O9    O     O_R   0.426530 0.134200 0.134190 -0.558707
O10   O     O_R   0.573470 0.865800 0.865810 -0.558707
O11   O     O_R   0.134200 0.134190 0.426530 -0.558707
O12   O     O_3   0.750000 0.750000 0.750000 -0.437546
O13   O     O_R   0.865800 0.865810 0.573470 -0.558707
O14   O     O_R   0.426530 0.305080 0.134210 -0.535845
O15   O     O_R   0.573470 0.694920 0.865790 -0.535845
O16   O     O_R   0.305080 0.134210 0.426530 -0.535845
O17   O     O_R   0.694920 0.865790 0.573470 -0.535845
O18   O     O_R   0.134210 0.426530 0.305080 -0.535845
O19   O     O_R   0.865790 0.573470 0.694920 -0.535845
O20   O     O_3   0.108304 0.768891 0.044880 -0.537830
O21   O     O_3   0.891695 0.231109 0.955120 -0.537831
O22   O     O_3   0.768891 0.044880 0.108304 -0.537831
O23   O     O_R   0.305080 0.134200 0.134200 -0.545297
O24   O     O_3   0.231109 0.955120 0.891696 -0.537831
O25   O     O_3   0.044880 0.108305 0.768891 -0.537831
O26   O     O_3   0.955120 0.891695 0.231110 -0.537831
O27   O     O_R   0.694920 0.865800 0.865800 -0.545297
O28   O     O_R   0.134200 0.134200 0.305080 -0.545297
O29   O     O_R   0.865800 0.865800 0.694920 -0.545297
O30   O     O_R   0.134200 0.305080 0.134200 -0.545297
O31   O     O_R   0.865800 0.694920 0.865800 -0.545298
O32   O     O_R   0.134200 0.305090 0.426530 -0.553925
Zn1   Zn    Zn3+2 0.206620 0.206630 0.380140 0.921233
Zn2   Zn    Zn3+2 0.793380 0.793370 0.619860 0.921233
Zn3   Zn    Zn3+2 0.206630 0.380140 0.206620 0.921234
Zn4   Zn    Zn3+2 0.793370 0.619860 0.793380 0.921233
Zn5   Zn    Zn3+2 0.380140 0.206620 0.206630 0.921234
Zn6   Zn    Zn3+2 0.619860 0.793380 0.793370 0.921233
Zn7   Zn    Zn3+2 0.206620 0.206620 0.206620 0.913776
Zn8   Zn    Zn3+2 0.793380 0.793380 0.793380 0.913776

loop_
_geom_bond_atom_site_label_1
_geom_bond_atom_site_label_2
_ccdc_geom_bond_type
C17   H64   S    
C10   C27   S    
C80   H6    S    
C19   H30   S    
C22   C29   A    
C20   C82   A    
O18   Zn3   S    
C18   O26   S    
C1    C11   S    
C35   H40   S    
C77   O16   A    
C12   H53   S    
C87   H13   S    
C53   C59   A    
C42   H47   S    
C89   H15   S    
C106  C112  A    
C75   O14   A    
C16   H63   S    
C84   H9    S    
C40   C46   A    
C98   C105  A    
C20   C26   A    
C99   H18   S    
C103  C110  A    
C26   C67   S    
C40   H44   S    
O12   Zn4   S    
C45   H50   S    
C3    C109  A    
C102  C109  A    
C80   C87   A    
C96   C102  A    
O4    Zn4   S    
C59   C66   A    
C12   H52   S    
O1    Zn7   S    
O3    Zn3   S    
C32   C39   A    
C91   H17   S    
C18   H68   S    
C48   C104  A    
C87   C94   A    
O19   Zn4   S    
C58   H4    S    
C22   C104  A    
C7    C112  A    
C85   H10   S    
C55   H72   S    
C108  C114  A    
C35   C42   A    
O28   Zn7   S    
C102  H21   S    
C107  C113  A    
O27   Zn8   S    
C2    C50   A    
C105  H24   S    
C13   C51   A    
C19   C52   A    
C63   C69   A    
C8    C71   S    
C54   H71   S    
C79   H5    S    
C81   C114  A    
C15   H58   S    
C52   O26   S    
C44   H49   S    
C64   C70   A    
O10   Zn6   S    
C90   C97   A    
C74   O2    A    
C15   O22   S    
C89   C96   A    
O31   Zn8   S    
C39   C45   A    
C5    C85   A    
C17   H65   S    
C101  C108  A    
O7    Zn3   S    
C23   H35   S    
C88   C95   A    
C28   C34   A    
C91   C98   A    
C46   C82   A    
C14   O21   S    
C39   H43   S    
C86   H11   S    
C37   H42   S    
C62   C76   S    
C34   C41   A    
C84   C90   A    
C38   O28   A    
C14   H55   S    
C30   C36   A    
C8    C108  A    
C60   O7    A    
O1    Zn5   S    
C29   C69   S    
O2    Zn2   S    
C9    C109  A    
C83   C89   A    
C73   O18   A    
C56   C63   A    
C33   C40   A    
C65   C77   S    
C15   H59   S    
C11   C111  A    
C77   O5    A    
C23   C30   A    
C78   O6    A    
C78   O17   A    
O6    Zn6   S    
C3    C8    A    
C96   H23   S    
C76   O15   A    
C58   C70   A    
C71   O8    A    
C32   C70   S    
O1    Zn3   S    
C45   C52   A    
C61   C73   S    
C101  H20   S    
C1    O23   A    
C97   H56   S    
C31   C37   A    
C13   C24   A    
C81   H7    S    
C17   H66   S    
C12   O20   S    
O16   Zn1   S    
C28   C66   S    
C103  H22   S    
C6    C113  A    
C82   H25   S    
C53   H67   S    
C97   C103  A    
C41   H46   S    
C94   C100  A    
C61   C67   A    
C58   C65   A    
C4    C84   A    
C18   H70   S    
C48   O22   S    
C41   C47   A    
C38   O11   A    
C42   C48   A    
C22   H33   S    
C4    C11   A    
C6    C106  A    
C59   C74   S    
C50   O24   S    
C55   C69   A    
C24   H36   S    
C79   C112  A    
C16   H61   S    
C55   C62   A    
C31   C72   S    
C21   C28   A    
O17   Zn2   S    
C3    C83   A    
O12   Zn6   S    
O1    Zn1   S    
C7    C107  A    
C98   H45   S    
C21   C93   A    
C9    C114  A    
C14   H54   S    
C85   C91   A    
O5    Zn5   S    
C12   H51   S    
C100  H19   S    
C44   C51   A    
C57   C64   A    
C57   H3    S    
C49   O13   A    
C34   H39   S    
C46   O20   S    
C99   C106  A    
C4    C110  A    
C100  C107  A    
C47   C93   A    
C15   H60   S    
C1    O9    A    
C104  H27   S    
O14   Zn5   S    
C64   C78   S    
O12   Zn2   S    
O13   Zn2   S    
C14   H57   S    
C17   O25   S    
C33   H38   S    
C92   H12   S    
O12   Zn8   S    
C94   H1    S    
C43   C50   A    
C54   C66   A    
C54   C61   A    
C47   O21   S    
C65   C72   A    
C5    C111  A    
C49   O29   A    
C29   C35   A    
O30   Zn7   S    
C71   O31   A    
O8    Zn4   S    
C83   H8    S    
C25   H37   S    
O29   Zn8   S    
C21   H32   S    
C9    C60   S    
C37   C44   A    
C16   O24   S    
C60   O30   A    
C24   C31   A    
C5    C10   A    
O23   Zn7   S    
C93   H26   S    
C56   C68   A    
O9    Zn5   S    
C16   H62   S    
O32   Zn1   S    
C63   C75   S    
C18   H69   S    
C25   C32   A    
C2    H28   S    
C7    C38   S    
C73   O32   A    
C10   C110  A    
C62   C68   A    
C13   H29   S    
C6    C49   S    
C105  C111  A    
C53   C67   A    
C92   C99   A    
C75   O3    A    
C81   C88   A    
C76   O4    A    
C19   C25   A    
C90   H16   S    
C43   H48   S    
C51   O25   S    
C95   H34   S    
C80   C113  A    
C36   H41   S    
C88   H14   S    
C2    C23   A    
C27   O27   A    
C57   C72   A    
C20   H31   S    
C36   C43   A    
C86   C92   A    
C27   O10   A    
O15   Zn6   S    
O11   Zn1   S    
C79   C86   A    
C30   C68   S    
C56   H2    S    
C95   C101  A    
C26   C33   A    
C74   O19   A    
