data_mof_unit_52618.cif
_audit_creation_date              2012-10-26T20:43:02-0400
_audit_creation_method            fapswitch 2.2
_symmetry_space_group_name_H-M    P1
_symmetry_Int_Tables_number       1
_space_group_crystal_system       triclinic
_cell_length_a                    10.899385
_cell_length_b                    9.507986
_cell_length_c                    15.088456
_cell_angle_alpha                 89.586776
_cell_angle_beta                  90.880645
_cell_angle_gamma                 91.046079
_cell_volume                      1563.1519626

loop_
_atom_site_label
_atom_site_type_symbol
_atom_type_description
_atom_site_fract_x
_atom_site_fract_y
_atom_site_fract_z
_atom_type_partial_charge
C1    C     C_R   0.262115 0.498327 0.502547 0.572944
C2    C     C_R   0.127912 0.494949 0.506110 0.007432
C3    C     C_R   0.429060 0.073517 0.440605 0.429638
C4    C     C_R   0.570943 0.926483 0.559392 0.429639
C5    C     C_R   0.571419 0.075260 0.559126 0.416104
C6    C     C_R   0.428582 0.924740 0.440873 0.416077
C7    C     C_R   0.500522 0.500879 0.328987 0.586569
C8    C     C_R   0.499480 0.499121 0.671013 0.586662
C9    C     C_R   0.595561 0.568205 0.813509 0.095572
C10   C     C_R   0.404444 0.431792 0.186491 0.095624
C11   C     C_R   0.501075 0.496220 0.767523 0.050821
C12   C     C_R   0.737883 0.501674 0.497449 0.572808
C13   C     C_R   0.498933 0.503773 0.232477 0.050805
C14   C     C_R   0.408898 0.420792 0.812675 0.078238
C15   C     C_R   0.591122 0.579178 0.187324 0.078199
C16   C     C_R   0.405835 0.426149 0.905914 0.019063
C17   C     C_R   0.594189 0.573808 0.094087 0.019077
C18   C     C_R   0.500241 0.499226 0.953097 0.014698
C19   C     C_R   0.499781 0.500733 0.046903 0.014698
C20   C     C_R   0.595797 0.569543 0.906879 0.011167
C21   C     C_R   0.404221 0.430426 0.093121 0.011175
C22   C     C_R   0.310800 0.359693 0.953073 -0.132573
C23   C     C_R   0.309761 0.362203 0.044843 -0.133005
C24   C     C_R   0.689230 0.640250 0.046927 -0.132574
C25   C     C_3   0.794581 0.541431 0.748718 -0.281146
C26   C     C_3   0.205419 0.458676 0.251242 -0.281222
C27   C     C_3   0.343129 0.191601 0.759815 -0.274223
C28   C     C_3   0.656919 0.808364 0.240166 -0.274250
C29   C     C_3   0.128635 0.149576 0.523034 -0.261550
C30   C     C_3   0.871346 0.850391 0.476852 -0.261552
C31   C     C_3   0.834055 0.299368 0.329014 -0.298312
C32   C     C_3   0.165740 0.700805 0.670978 -0.298367
C33   C     C_R   0.690264 0.637748 0.955158 -0.133018
C34   C     C_R   0.060265 0.377073 0.473817 0.074709
C35   C     C_R   0.939732 0.622942 0.526147 0.074755
C36   C     C_R   0.932737 0.385173 0.463519 0.100079
C37   C     C_R   0.067257 0.614836 0.536448 0.100038
C38   C     C_R   0.872082 0.505057 0.493867 0.007442
Cu1   Cu    Cu3+1 0.500000 0.640660 0.500000 1.103267
Cu2   Cu    Cu3+1 0.500000 0.359340 0.500000 1.103261
F1    F     F_    0.357855 0.142401 0.380819 -0.582962
F2    F     F_    0.642157 0.857599 0.619173 -0.582949
F3    F     F_    0.644194 0.145964 0.617961 -0.602700
F4    F     F_    0.355809 0.854035 0.382037 -0.602722
H1    H     H_    0.235557 0.305065 0.919944 0.114832
H2    H     H_    0.162313 0.491991 0.187462 0.121121
H3    H     H_    0.236901 0.553122 0.288753 0.187583
H4    H     H_    0.135343 0.401981 0.290825 0.145941
H5    H     H_    0.229984 0.363999 0.776384 0.232188
H6    H     H_    0.337472 0.143444 0.826895 0.135639
H7    H     H_    0.435550 0.172606 0.732915 0.215851
H8    H     H_    0.273836 0.138941 0.716259 0.113937
H9    H     H_    0.770035 0.635939 0.223622 0.232215
H10   H     H_    0.662551 0.856498 0.173079 0.135663
H11   H     H_    0.726237 0.861025 0.283695 0.113923
H12   H     H_    0.764479 0.694865 0.080057 0.114837
H13   H     H_    0.564518 0.827382 0.267085 0.215852
H14   H     H_    0.092053 0.206203 0.392009 0.267841
H15   H     H_    0.179965 0.056604 0.501289 0.168972
H16   H     H_    0.035835 0.114058 0.543955 0.114280
H17   H     H_    0.177736 0.196935 0.580712 0.161797
H18   H     H_    0.907984 0.793908 0.607889 0.267846
H19   H     H_    0.964141 0.885940 0.455932 0.114231
H20   H     H_    0.819975 0.943355 0.498559 0.168966
H21   H     H_    0.822281 0.802948 0.419182 0.161798
H22   H     H_    0.894512 0.173312 0.433413 0.245778
H23   H     H_    0.233354 0.310098 0.076947 0.111798
H24   H     H_    0.918634 0.303778 0.288921 0.115140
H25   H     H_    0.784342 0.399687 0.321067 0.157731
H26   H     H_    0.773456 0.212822 0.303994 0.143277
H27   H     H_    0.105594 0.826705 0.566419 0.245807
H28   H     H_    0.081099 0.697317 0.711060 0.115090
H29   H     H_    0.226887 0.786998 0.695853 0.143556
H30   H     H_    0.214810 0.600060 0.679117 0.157473
H31   H     H_    0.766674 0.689845 0.923053 0.111796
H32   H     H_    0.718167 0.732718 0.784114 0.280183
H33   H     H_    0.837674 0.508051 0.812486 0.121126
H34   H     H_    0.864656 0.598192 0.709166 0.145974
H35   H     H_    0.763127 0.447021 0.711158 0.187544
H36   H     H_    0.281789 0.267337 0.215911 0.280196
N1    N     N_R   0.500000 0.852070 0.500000 -0.296931
N2    N     N_2   0.135296 0.726223 0.578653 -0.482650
N3    N     N_R   0.500000 0.147930 0.500000 -0.296919
N4    N     N_2   0.692529 0.632733 0.764449 -0.460184
N5    N     N_2   0.307450 0.367328 0.235552 -0.460204
N6    N     N_2   0.319859 0.341048 0.763004 -0.533716
N7    N     N_2   0.680164 0.658914 0.236994 -0.533781
N8    N     N_2   0.120559 0.250761 0.451075 -0.439367
N9    N     N_2   0.879448 0.749280 0.548851 -0.439350
N10   N     N_2   0.864711 0.273788 0.421290 -0.482658
O1    O     O_R   0.319640 0.618740 0.499990 -0.446064
O2    O     O_R   0.680360 0.381260 0.500010 -0.446097
O3    O     O_R   0.680360 0.618740 0.500010 -0.451909
O4    O     O_R   0.319640 0.381260 0.499990 -0.451921
O5    O     O_R   0.499970 0.618800 0.370260 -0.467251
O6    O     O_R   0.500030 0.381200 0.629740 -0.467262
O7    O     O_R   0.500030 0.618800 0.629740 -0.449460
O8    O     O_R   0.499970 0.381200 0.370260 -0.449491

loop_
_geom_bond_atom_site_label_1
_geom_bond_atom_site_label_2
_ccdc_geom_bond_type
C10   N5    S    
C7    O8    A    
C30   H20   S    
C8    O6    A    
C3    C6    A    
H32   N4    S    
H22   N10   S    
C28   H13   S    
C25   H33   S    
C35   C37   A    
C18   C19   A    
C8    C11   S    
C32   H30   S    
C5    N3    A    
C11   C14   A    
Cu1   O7    S    
H18   N9    S    
C1    C2    S    
C23   H23   S    
Cu1   O3    S    
C29   N8    S    
C33   H31   S    
C31   H26   S    
C4    N1    A    
C29   H15   S    
C1    O4    A    
C25   N4    S    
C18   C20   A    
C27   H6    S    
C26   H4    S    
H27   N2    S    
C2    C34   A    
C5    F3    S    
C1    O1    A    
C6    N1    A    
C6    F4    S    
C30   H19   S    
Cu2   N3    S    
Cu2   O6    S    
C30   N9    S    
Cu1   O1    S    
C28   H11   S    
C27   H7    S    
C10   C21   A    
C31   H24   S    
C29   H17   S    
C17   C24   A    
C25   H34   S    
C35   C38   A    
C14   N6    S    
C32   H28   S    
Cu1   N1    S    
C32   H29   S    
C28   H10   S    
C27   N6    S    
C8    O7    A    
H36   N5    S    
C9    C20   A    
C29   H16   S    
C7    C13   S    
C31   N10   S    
C28   N7    S    
H9    N7    S    
C34   N8    S    
Cu2   O2    S    
C9    C11   A    
Cu1   O5    S    
C26   H3    S    
C20   C33   A    
C35   N9    S    
C13   C15   A    
C3    N3    A    
C14   C16   A    
C37   N2    S    
Cu1   Cu2   S    
C32   N2    S    
C27   H8    S    
C15   N7    S    
C36   N10   S    
C15   C17   A    
C3    F1    S    
C16   C22   A    
C19   C21   A    
C25   H35   S    
H5    N6    S    
C12   O2    A    
Cu2   O4    S    
C4    C5    A    
C10   C13   A    
H14   N8    S    
C24   H12   S    
C7    O5    A    
C24   C33   A    
C21   C23   A    
Cu2   O8    S    
C2    C37   A    
C4    F2    S    
C26   N5    S    
C36   C38   A    
C17   C19   A    
C34   C36   A    
C12   C38   S    
C12   O3    A    
C30   H21   S    
C26   H2    S    
C9    N4    S    
C31   H25   S    
C22   H1    S    
C16   C18   A    
C22   C23   A    
