data_mof_unit_61866.cif
_audit_creation_date              2012-12-10T19:48:58-0500
_audit_creation_method            fapswitch 2.2
_symmetry_space_group_name_H-M    P1
_symmetry_Int_Tables_number       1
_space_group_crystal_system       triclinic
_cell_length_a                    28.220668
_cell_length_b                    18.257464
_cell_length_c                    21.540985
_cell_angle_alpha                 89.629498
_cell_angle_beta                  139.682407
_cell_angle_gamma                 90.256732
_cell_volume                      7180.99227468

loop_
_atom_site_label
_atom_site_type_symbol
_atom_type_description
_atom_site_fract_x
_atom_site_fract_y
_atom_site_fract_z
_atom_type_partial_charge
C1    C     C_R   0.858720 0.000022 0.858673 0.932530
C2    C     C_R   0.141279 0.999979 0.141326 0.932527
C3    C     C_R   0.358720 0.500022 0.858673 0.932582
C4    C     C_R   0.641279 0.499978 0.141327 0.932461
C5    C     C_1   0.717381 0.000053 0.717279 -0.173422
C6    C     C_1   0.282619 0.999957 0.282721 -0.173380
C7    C     C_1   0.217381 0.500048 0.717279 -0.173312
C8    C     C_1   0.782619 0.499953 0.282721 -0.173373
C9    C     C_R   0.000020 0.858749 0.499863 0.940661
C10   C     C_R   0.999980 0.141251 0.500137 0.940914
C11   C     C_R   0.500022 0.358752 0.499921 0.956819
C12   C     C_R   0.499978 0.641255 0.500095 0.926032
C13   C     C_R   0.999916 0.997713 0.621476 0.813585
C14   C     C_R   0.000084 0.002296 0.378525 0.815271
C15   C     C_R   0.499913 0.502691 0.621418 0.815973
C16   C     C_R   0.500084 0.502297 0.378525 0.814881
C17   C     C_R   0.500014 0.140858 0.499848 0.921113
C18   C     C_R   0.499986 0.859150 0.500152 0.917496
C19   C     C_R   0.000011 0.640854 0.499837 0.917871
C20   C     C_R   0.999989 0.359146 0.500163 0.920403
C21   C     C_R   0.640854 0.000020 0.640821 0.921609
C22   C     C_R   0.359146 0.999991 0.359179 0.921798
C23   C     C_R   0.140854 0.500014 0.640821 0.921766
C24   C     C_R   0.859146 0.499986 0.359179 0.921732
C25   C     C_1   0.000056 0.782228 0.499612 -0.163780
C26   C     C_1   0.999944 0.217772 0.500388 -0.160022
C27   C     C_1   0.500059 0.282236 0.499696 -0.126149
C28   C     C_1   0.499942 0.717781 0.500316 -0.199029
C29   C     C_1   0.500048 0.217408 0.499599 -0.137184
C30   C     C_1   0.499953 0.782611 0.500405 -0.181657
C31   C     C_1   0.000044 0.717399 0.499544 -0.160848
C32   C     C_1   0.999956 0.282601 0.500456 -0.156422
C33   C     C_R   0.000815 0.000434 0.879232 0.844403
C34   C     C_R   0.999192 0.999566 0.120775 0.844713
C35   C     C_R   0.500848 0.499930 0.879254 0.844522
C36   C     C_R   0.499209 0.499565 0.120791 0.844416
C37   C     C_3   0.065187 0.954533 0.851386 -0.415517
C38   C     C_3   0.934786 0.045427 0.148583 -0.412323
C39   C     C_3   0.072413 0.030444 0.285393 -0.387387
C40   C     C_3   0.927570 0.969613 0.714593 -0.390356
C41   C     C_3   0.427439 0.530894 0.714108 -0.388623
C42   C     C_3   0.434704 0.545288 0.148495 -0.416023
C43   C     C_3   0.572361 0.530594 0.285348 -0.390303
C44   C     C_3   0.564920 0.546557 0.850579 -0.413563
C45   C     C_3   0.063187 0.951743 0.778315 -0.414619
C46   C     C_3   0.936755 0.048189 0.221625 -0.413342
C47   C     C_3   0.072891 0.031806 0.357060 -0.369005
C48   C     C_3   0.927069 0.968299 0.642902 -0.371616
C49   C     C_3   0.426867 0.531992 0.642309 -0.368201
C50   C     C_3   0.436645 0.548034 0.221508 -0.413733
C51   C     C_3   0.572820 0.531979 0.356994 -0.371508
C52   C     C_3   0.562881 0.549267 0.777403 -0.413072
C53   C     C_3   0.009577 0.081162 0.794462 -0.380757
C54   C     C_3   0.990479 0.918837 0.205598 -0.382658
C55   C     C_3   0.510051 0.419650 0.795683 -0.380879
C56   C     C_3   0.490661 0.418814 0.205782 -0.380559
C57   C     C_3   0.000816 0.001524 0.811194 0.118556
C58   C     C_3   0.999191 0.998480 0.188813 0.114929
C59   C     C_3   0.500847 0.499286 0.811191 0.115118
C60   C     C_3   0.499209 0.498476 0.188832 0.118536
C61   C     C_3   0.999956 0.000924 0.689659 0.039141
C62   C     C_3   0.000046 0.999087 0.310343 0.034886
C63   C     C_3   0.499973 0.499706 0.689638 0.035572
C64   C     C_3   0.500052 0.499085 0.310349 0.038769
C65   C     C_3   0.008703 0.082591 0.721042 -0.049813
C66   C     C_3   0.991402 0.917410 0.279065 -0.041809
C67   C     C_3   0.509274 0.418132 0.722445 -0.044197
C68   C     C_3   0.491605 0.417387 0.279271 -0.049699
C69   C     C_1   0.782202 0.000061 0.782108 -0.192553
C70   C     C_1   0.217798 0.999944 0.217892 -0.192505
C71   C     C_1   0.282202 0.500059 0.782108 -0.192495
C72   C     C_1   0.717798 0.499942 0.217892 -0.192506
H1    H     H_    0.118207 0.978207 0.919966 0.159588
H2    H     H_    0.881784 0.021735 0.079998 0.159985
H3    H     H_    0.118981 0.996636 0.314931 0.180858
H4    H     H_    0.881023 0.003431 0.685101 0.181782
H5    H     H_    0.381070 0.496965 0.685262 0.181007
H6    H     H_    0.381754 0.521494 0.079945 0.159643
H7    H     H_    0.619000 0.496872 0.314971 0.181845
H8    H     H_    0.618077 0.523126 0.919559 0.160149
H9    H     H_    0.061879 0.897714 0.866933 0.195151
H10   H     H_    0.938075 0.102255 0.133035 0.198118
H11   H     H_    0.080303 0.087106 0.275072 0.184625
H12   H     H_    0.919660 0.912943 0.724869 0.180589
H13   H     H_    0.419322 0.587573 0.723490 0.183735
H14   H     H_    0.437887 0.602126 0.132849 0.195230
H15   H     H_    0.580145 0.587266 0.274911 0.180914
H16   H     H_    0.561235 0.603348 0.865142 0.197272
H17   H     H_    0.054705 0.894092 0.754861 0.175568
H18   H     H_    0.945147 0.105844 0.245009 0.177802
H19   H     H_    0.079601 0.089294 0.379763 0.172644
H20   H     H_    0.920263 0.910832 0.620077 0.168879
H21   H     H_    0.419641 0.589372 0.618326 0.172640
H22   H     H_    0.444884 0.605707 0.244753 0.176473
H23   H     H_    0.579381 0.589488 0.379538 0.169246
H24   H     H_    0.553988 0.606853 0.752873 0.178088
H25   H     H_    0.117370 0.968638 0.813768 0.180308
H26   H     H_    0.882591 0.031205 0.186172 0.181362
H27   H     H_    0.121324 0.000759 0.422633 0.202465
H28   H     H_    0.878681 0.999435 0.577397 0.202481
H29   H     H_    0.378688 0.500532 0.577450 0.202588
H30   H     H_    0.382517 0.530907 0.186077 0.180250
H31   H     H_    0.621329 0.501060 0.422655 0.202518
H32   H     H_    0.617172 0.532663 0.813135 0.180984
H33   H     H_    0.061650 0.104371 0.864852 0.146498
H34   H     H_    0.938400 0.895615 0.135227 0.143966
H35   H     H_    0.034095 0.883896 0.229001 0.230496
H36   H     H_    0.965955 0.116111 0.771033 0.231860
H37   H     H_    0.466579 0.384500 0.772694 0.231413
H38   H     H_    0.438622 0.395490 0.135463 0.146650
H39   H     H_    0.534338 0.383957 0.229238 0.231485
H40   H     H_    0.562210 0.396602 0.866457 0.144382
O1    O     O_R   0.892660 0.939370 0.892650 -0.621212
O2    O     O_R   0.107340 0.060630 0.107350 -0.615260
O3    O     O_R   0.107340 0.939370 0.107350 -0.616936
O4    O     O_R   0.892660 0.060630 0.892650 -0.610986
O5    O     O_R   0.392660 0.439370 0.892650 -0.612015
O6    O     O_R   0.607340 0.560630 0.107350 -0.618790
O7    O     O_R   0.607340 0.439370 0.107350 -0.613437
O8    O     O_R   0.392660 0.560630 0.892650 -0.620033
O9    O     O_R   0.999980 0.939370 0.907380 -0.630418
O10   O     O_R   0.000020 0.060630 0.092620 -0.627823
O11   O     O_R   0.000020 0.939370 0.092620 -0.631132
O12   O     O_R   0.999980 0.060630 0.907380 -0.628949
O13   O     O_R   0.499980 0.439370 0.907380 -0.631013
O14   O     O_R   0.500020 0.560630 0.092620 -0.630215
O15   O     O_R   0.500020 0.439370 0.092620 -0.629158
O16   O     O_R   0.499980 0.560630 0.907380 -0.627852
O17   O     O_R   0.939350 0.892680 0.439340 -0.594472
O18   O     O_R   0.060650 0.107320 0.560660 -0.592797
O19   O     O_R   0.060650 0.892680 0.560660 -0.633428
O20   O     O_R   0.939350 0.107320 0.439340 -0.631834
O21   O     O_R   0.439350 0.392680 0.439340 -0.606212
O22   O     O_R   0.560650 0.607320 0.560660 -0.620937
O23   O     O_R   0.560650 0.392680 0.560660 -0.605528
O24   O     O_R   0.439350 0.607320 0.439340 -0.619575
O25   O     O_R   0.939380 1.000000 0.531980 -0.641722
O26   O     O_R   0.060620 0.000000 0.468020 -0.641344
O27   O     O_R   0.439380 0.500000 0.531980 -0.641471
O28   O     O_R   0.560620 0.500000 0.468020 -0.641824
O29   O     O_R   0.060570 0.000000 0.653170 -0.615060
O30   O     O_R   0.939430 0.000000 0.346830 -0.614625
O31   O     O_R   0.560570 0.500000 0.653170 -0.614435
O32   O     O_R   0.439430 0.500000 0.346830 -0.615253
O33   O     O_R   0.499910 0.107290 0.447610 -0.606196
O34   O     O_R   0.500090 0.892710 0.552390 -0.620180
O35   O     O_R   0.500090 0.107290 0.552390 -0.608821
O36   O     O_R   0.499910 0.892710 0.447610 -0.622606
O37   O     O_R   0.999910 0.607290 0.447610 -0.602551
O38   O     O_R   0.000090 0.392710 0.552390 -0.601047
O39   O     O_R   0.000090 0.607290 0.552390 -0.628272
O40   O     O_R   0.999910 0.392710 0.447610 -0.625897
O41   O     O_R   0.607280 0.000000 0.555010 -0.616388
O42   O     O_R   0.392720 0.000000 0.444990 -0.616172
O43   O     O_R   0.107280 0.500000 0.555010 -0.616129
O44   O     O_R   0.892720 0.500000 0.444990 -0.616355
O45   O     O_R   0.607300 0.000000 0.659580 -0.618799
O46   O     O_R   0.392700 1.000000 0.340420 -0.618921
O47   O     O_R   0.107300 0.500000 0.659580 -0.618977
O48   O     O_R   0.892700 0.500000 0.340420 -0.618795
Zn1   Zn    Zn3+2 0.000000 0.919050 0.000000 0.960517
Zn2   Zn    Zn3+2 1.000000 0.080950 0.000000 0.975204
Zn3   Zn    Zn3+2 0.500000 0.419050 0.000000 0.978884
Zn4   Zn    Zn3+2 0.500000 0.580950 0.000000 0.957136
Zn5   Zn    Zn3+2 0.919050 0.000000 0.419040 0.979292
Zn6   Zn    Zn3+2 0.080950 0.000000 0.580960 0.979487
Zn7   Zn    Zn3+2 0.419050 0.500000 0.419040 0.979753
Zn8   Zn    Zn3+2 0.580950 0.500000 0.580960 0.980202
Zn9   Zn    Zn3+2 0.499950 1.000000 0.430140 0.991074
Zn10  Zn    Zn3+2 0.500050 1.000000 0.569860 0.991603
Zn11  Zn    Zn3+2 0.999950 0.500000 0.430140 0.991927
Zn12  Zn    Zn3+2 0.000050 0.500000 0.569860 0.990948
C73   C     C_2   0.081158 0.115268 0.770905 0.354895
H41   H     H_    0.132524 0.093297 0.839526 0.084760
O49   O     O_2   0.083382 0.166504 0.736354 -0.571005
C74   C     C_2   0.919010 0.884625 0.229299 0.349651
H42   H     H_    0.867600 0.906535 0.160673 0.082500
O50   O     O_2   0.916885 0.833369 0.263932 -0.573721
C75   C     C_2   0.054475 0.870519 0.367802 0.469802
H43   H     H_    0.057784 0.860376 0.420739 0.092824
O51   O     O_2   0.101933 0.844350 0.382094 -0.588391
C76   C     C_2   0.945718 0.129578 0.632360 0.475778
H44   H     H_    0.942408 0.139648 0.579412 0.091952
O52   O     O_2   0.898344 0.155922 0.618137 -0.575751
C77   C     C_2   0.446654 0.370756 0.634598 0.470730
H45   H     H_    0.443620 0.360443 0.582058 0.090158
O53   O     O_2   0.399261 0.344386 0.620575 -0.586819
C78   C     C_2   0.419298 0.384426 0.229606 0.353239
H46   H     H_    0.367831 0.406200 0.160922 0.085588
O54   O     O_2   0.417307 0.333181 0.264388 -0.574333
C79   C     C_2   0.554798 0.370647 0.368115 0.476351
H47   H     H_    0.558127 0.360478 0.421066 0.089352
O55   O     O_2   0.602334 0.344632 0.382476 -0.575563
C80   C     C_2   0.582000 0.385838 0.773030 0.350943
H48   H     H_    0.633186 0.408091 0.841292 0.083040
O56   O     O_2   0.584638 0.334623 0.739450 -0.575072

loop_
_geom_bond_atom_site_label_1
_geom_bond_atom_site_label_2
_ccdc_geom_bond_type
C25   C31   T    
C80   O56   D    
C79   O55   D    
C14   O30   A    
C26   C32   T    
C34   O11   A    
C49   C63   S    
C23   O43   A    
C55   H40   S    
C27   C29   T    
C17   C29   S    
C40   H12   S    
C17   O33   A    
C53   H33   S    
C4    C72   S    
C37   H9    S    
C47   C62   S    
O25   Zn5   S    
C77   H45   S    
C9    C25   S    
C16   O28   A    
C73   H41   S    
O5    Zn3   S    
C47   H19   S    
O6    Zn4   S    
O29   Zn6   S    
C54   H35   S    
C46   C62   S    
C64   C68   S    
C78   O54   D    
C16   O32   A    
C55   C59   S    
C11   O21   A    
C41   H5    S    
O11   Zn1   S    
C77   O53   D    
C44   C59   S    
C43   H7    S    
O28   Zn8   S    
C6    C22   S    
O16   Zn4   S    
C50   C64   S    
O42   Zn10  S    
C35   C59   S    
C41   C49   S    
C35   O13   A    
C76   H44   S    
C5    C69   T    
C3    O5    A    
C19   O37   A    
C38   C58   S    
O38   Zn12  S    
C14   O26   A    
O19   Zn6   S    
C40   H4    S    
C23   O47   A    
C46   H18   S    
C33   O12   A    
C19   O39   A    
O23   Zn8   S    
C4    O7    A    
C42   H14   S    
C1    O4    A    
C13   O29   A    
C67   C80   S    
C53   C65   S    
C56   H39   S    
C15   O27   A    
O35   Zn10  S    
C65   C73   S    
C10   C26   S    
C73   O49   D    
C80   H48   S    
C46   H26   S    
C19   C31   S    
C34   O10   A    
C12   O22   A    
C38   H2    S    
C55   H37   S    
C33   O9    A    
C4    O6    A    
O13   Zn3   S    
C1    O1    A    
O14   Zn4   S    
C21   O41   A    
C38   H10   S    
C56   H38   S    
O12   Zn2   S    
C65   C76   S    
C9    O19   A    
C48   H28   S    
O33   Zn9   S    
C8    C72   T    
O47   Zn12  S    
C54   H34   S    
O32   Zn7   S    
C79   H47   S    
C6    C70   T    
C44   H8    S    
O20   Zn5   S    
C41   C59   S    
C51   H31   S    
O7    Zn3   S    
O40   Zn11  S    
C62   C66   S    
C50   H22   S    
C22   O46   A    
C68   C79   S    
C18   O34   A    
C56   C68   S    
C39   C58   S    
O44   Zn12  S    
C1    C69   S    
O39   Zn12  S    
C20   O40   A    
O15   Zn3   S    
C78   H46   S    
C13   O25   A    
O3    Zn1   S    
C3    C71   S    
C10   O18   A    
C63   C67   S    
C11   O23   A    
O45   Zn10  S    
C2    O3    A    
O18   Zn6   S    
C11   C27   S    
O9    Zn1   S    
C54   C58   S    
O36   Zn9   S    
C5    C21   S    
O27   Zn7   S    
C43   C60   S    
C42   C50   S    
C15   O31   A    
C74   H42   S    
C12   C28   S    
C67   C77   S    
C42   H6    S    
C39   H3    S    
O34   Zn10  S    
C12   O24   A    
C18   C30   S    
O22   Zn8   S    
C9    O17   A    
C36   O15   A    
C42   C60   S    
C66   C74   S    
C45   H17   S    
C39   C47   S    
C20   C32   S    
O4    Zn2   S    
C40   C48   S    
C37   H1    S    
C52   H32   S    
C53   C57   S    
C40   C57   S    
C17   O35   A    
O37   Zn11  S    
C21   O45   A    
C22   O42   A    
C36   O14   A    
C51   C64   S    
C47   H27   S    
C36   C60   S    
C52   C63   S    
C55   C67   S    
C24   O48   A    
O46   Zn9   S    
C50   H30   S    
C54   C66   S    
O24   Zn7   S    
C33   C57   S    
C41   H13   S    
C66   C75   S    
C18   O36   A    
O10   Zn2   S    
O17   Zn5   S    
O26   Zn6   S    
C43   H15   S    
O21   Zn7   S    
C39   H11   S    
C45   H25   S    
C56   C60   S    
O30   Zn5   S    
C7    C71   T    
C2    O2    A    
C53   H36   S    
C44   C52   S    
C48   C61   S    
C43   C51   S    
C45   C61   S    
C7    C23   S    
C28   C30   T    
C8    C24   S    
O48   Zn11  S    
C20   O38   A    
C52   H24   S    
C44   H16   S    
C61   C65   S    
C35   O16   A    
C76   O52   D    
O31   Zn8   S    
C38   C46   S    
O2    Zn2   S    
C3    O8    A    
O8    Zn4   S    
O1    Zn1   S    
C75   H43   S    
O43   Zn11  S    
C10   O20   A    
C13   C61   S    
C68   C78   S    
C48   H20   S    
O41   Zn9   S    
C34   C58   S    
C15   C63   S    
C16   C64   S    
C49   H21   S    
C2    C70   S    
C37   C45   S    
C37   C57   S    
C24   O44   A    
C49   H29   S    
C51   H23   S    
C74   O50   D    
C75   O51   D    
C14   C62   S    
