data_mof_unit_45276.cif
_audit_creation_date              2012-12-10T17:20:22-0500
_audit_creation_method            fapswitch 2.2
_symmetry_space_group_name_H-M    P1
_symmetry_Int_Tables_number       1
_space_group_crystal_system       triclinic
_cell_length_a                    11.706602
_cell_length_b                    10.786071
_cell_length_c                    9.617462
_cell_angle_alpha                 89.995234
_cell_angle_beta                  89.995101
_cell_angle_gamma                 92.616153
_cell_volume                      1213.11429602

loop_
_atom_site_label
_atom_site_type_symbol
_atom_type_description
_atom_site_fract_x
_atom_site_fract_y
_atom_site_fract_z
_atom_type_partial_charge
C1    C     C_R   0.495763 0.262603 0.500052 0.787692
C2    C     C_R   0.233088 0.051175 0.725141 -0.134846
C3    C     C_R   0.233283 0.922276 0.725411 -0.126661
C4    C     C_R   0.316706 0.861557 0.651747 -0.169543
C5    C     C_R   0.403386 0.929583 0.578048 0.101089
C6    C     C_R   0.403215 0.060792 0.577874 0.099177
C7    C     C_R   0.487692 0.128380 0.499977 -0.104743
C8    C     C_R   0.566468 0.067350 0.418948 -0.182046
C9    C     C_R   0.566527 0.939464 0.418976 -0.200032
C10   C     C_R   0.487940 0.870475 0.500089 -0.091935
C11   C     C_R   0.652798 0.664540 0.143448 -0.258584
C12   C     C_R   0.284162 0.499686 0.500016 0.798754
C13   C     C_R   0.728837 0.745153 0.071073 0.414160
C14   C     C_R   0.727120 0.744816 0.927642 -0.193462
C15   C     C_R   0.651949 0.664865 0.856087 -0.236101
C16   C     C_R   0.574674 0.581114 0.925217 0.213700
C17   C     C_R   0.574838 0.581038 0.074549 0.176171
C18   C     C_R   0.428908 0.422821 0.073838 -0.042469
C19   C     C_R   0.428960 0.422826 0.926087 -0.048889
C20   C     C_R   0.496232 0.737058 0.500039 0.761158
C21   C     C_R   0.715836 0.500397 0.499998 0.802306
C22   C     C_1   0.162433 0.500127 0.500081 -0.181053
C23   C     C_1   0.059942 0.500498 0.500105 0.006650
C24   C     C_1   0.940102 0.500741 0.500060 0.007968
C25   C     C_1   0.837593 0.500696 0.500011 -0.177102
C26   C     C_R   0.316315 0.120192 0.651205 -0.185600
Cu1   Cu    Cu3+1 0.499990 0.499990 0.640660 0.935094
Cu2   Cu    Cu3+1 0.500010 0.500010 0.359340 0.945532
H1    H     H_    0.630092 0.119232 0.357810 0.162862
H2    H     H_    0.785216 0.807041 0.870410 0.170221
H3    H     H_    0.658838 0.672797 0.746497 0.214191
H4    H     H_    0.370681 0.359454 0.871092 0.132586
H5    H     H_    0.309975 0.219816 0.650017 0.138639
H6    H     H_    0.167160 0.097905 0.780818 0.140931
H7    H     H_    0.167495 0.868977 0.781301 0.145457
H8    H     H_    0.310681 0.761339 0.651176 0.155792
H9    H     H_    0.630100 0.894057 0.357850 0.146123
H10   H     H_    0.370600 0.359447 0.128826 0.138533
H11   H     H_    0.658267 0.671095 0.253012 0.189153
N1    N     N_R   0.501070 0.501210 0.147910 -0.185660
N2    N     N_R   0.501110 0.501290 0.852040 -0.188743
O1    O     O_R   0.499990 0.319640 0.618810 -0.575907
O2    O     O_R   0.500000 0.319660 0.381240 -0.573599
O3    O     O_R   0.337190 0.500000 0.618790 -0.587237
O4    O     O_R   0.337200 0.500030 0.381210 -0.564651
O5    O     O_R   0.500000 0.680340 0.618760 -0.600709
O6    O     O_R   0.500010 0.680360 0.381190 -0.586871
O7    O     O_R   0.662800 0.499970 0.618790 -0.582302
O8    O     O_R   0.662810 0.500000 0.381210 -0.585947
O9    O     O_3   0.806029 0.825316 0.137863 -0.725498
H12   H     H_    0.800041 0.812030 0.239647 0.306250

loop_
_geom_bond_atom_site_label_1
_geom_bond_atom_site_label_2
_ccdc_geom_bond_type
Cu1   O7    S    
C23   C24   S    
C4    H8    S    
Cu2   O6    S    
C15   H3    S    
C6    C7    A    
C12   O4    A    
Cu2   O8    S    
Cu1   N2    S    
C26   H5    S    
C3    H7    S    
C21   O7    A    
C2    H6    S    
C21   O8    A    
C2    C3    A    
C18   H10   S    
C5    C10   A    
C2    C26   A    
C13   C14   A    
C11   H11   S    
C11   C13   A    
Cu1   O1    S    
C6    C26   A    
C21   C25   S    
C14   H2    S    
C8    H1    S    
Cu1   O3    S    
Cu1   O5    S    
C9    H9    S    
O9    H12   S    
C22   C23   T    
C5    C6    A    
C20   O5    A    
Cu2   O4    S    
C20   O6    A    
C7    C8    A    
C15   C16   A    
C19   H4    S    
C13   O9    S    
C12   C22   S    
C1    O1    A    
C4    C5    A    
C24   C25   T    
C12   O3    A    
C18   C19   A    
C9    C10   A    
Cu1   Cu2   S    
Cu2   N1    S    
C14   C15   A    
C16   C17   A    
C18   N1    A    
Cu2   O2    S    
C1    C7    S    
C16   N2    A    
C1    O2    A    
C11   C17   A    
C3    C4    A    
C19   N2    A    
C10   C20   S    
C8    C9    A    
C17   N1    A    
