data_mof_unit_56078.cif
_audit_creation_date              2012-12-10T17:35:48-0500
_audit_creation_method            fapswitch 2.2
_symmetry_space_group_name_H-M    P1
_symmetry_Int_Tables_number       1
_space_group_crystal_system       triclinic
_cell_length_a                    10.553356
_cell_length_b                    12.057302
_cell_length_c                    12.852199
_cell_angle_alpha                 94.233921
_cell_angle_beta                  91.129882
_cell_angle_gamma                 85.98818
_cell_volume                      1626.7445916

loop_
_atom_site_label
_atom_site_type_symbol
_atom_type_description
_atom_site_fract_x
_atom_site_fract_y
_atom_site_fract_z
_atom_type_partial_charge
C1    C     C_R   0.497525 0.523053 0.700687 0.899616
C2    C     C_R   0.501965 0.476918 0.299570 0.904592
C3    C     C_R   0.468959 0.446908 0.866410 -0.305123
C4    C     C_R   0.549907 0.544120 0.133552 -0.343803
C5    C     C_R   0.483690 0.449335 0.973064 0.127848
C6    C     C_R   0.535031 0.541992 0.026990 0.122755
C7    C     C_R   0.361093 0.955626 0.419152 0.021183
C8    C     C_R   0.614085 0.046234 0.604090 0.021505
C9    C     C_R   0.382269 0.837820 0.419325 0.590240
C10   C     C_R   0.605990 0.163476 0.591786 0.590158
C11   C     C_R   0.555377 0.857922 0.538049 -0.169696
C12   C     C_R   0.444509 0.141727 0.461741 -0.147456
C13   C     C_R   0.542906 0.975832 0.536192 -0.016574
C14   C     C_R   0.449921 0.024646 0.470266 -0.028660
C15   C     C_R   0.742236 0.500388 0.498969 0.895649
C16   C     C_R   0.257724 0.499470 0.497742 0.896784
C17   C     C_3   0.962395 0.464862 0.587081 -0.302348
C18   C     C_3   0.037794 0.536324 0.404503 -0.252778
C19   C     C_3   0.039035 0.567292 0.575127 0.198086
C20   C     C_3   0.960314 0.433982 0.416145 0.182694
C21   C     C_3   0.123078 0.498532 0.495399 -0.071637
C22   C     C_3   0.876620 0.502383 0.496472 -0.088278
C23   C     C_3   0.047191 0.396255 0.505755 0.215786
C24   C     C_3   0.952411 0.604828 0.485505 0.227860
C25   C     C_R   0.503515 0.459959 0.187708 -0.144705
C26   C     C_R   0.498900 0.537992 0.813076 -0.173991
C27   C     C_R   0.561949 0.634779 0.974647 -0.334251
C28   C     C_R   0.444736 0.361217 0.026179 -0.325731
C29   C     C_R   0.535463 0.636589 0.868074 0.496380
C30   C     C_R   0.452419 0.365714 0.135505 0.487701
H1    H     H_    0.929525 0.441317 0.663085 0.160193
H2    H     H_    0.070899 0.563805 0.329960 0.150193
H3    H     H_    0.591292 0.614780 0.175129 0.164689
H4    H     H_    0.433374 0.373546 0.824746 0.188899
H5    H     H_    0.596889 0.707933 0.016935 0.148893
H6    H     H_    0.402776 0.293008 0.981903 0.143135
H7    H     H_    0.377180 0.181247 0.409328 0.188852
H8    H     H_    0.626803 0.817079 0.586060 0.193951
N1    N     N_R   0.523490 0.207800 0.519350 -0.152321
N2    N     N_R   0.476510 0.792200 0.480650 -0.161771
O1    O     O_R   0.506270 0.421700 0.658830 -0.574997
O2    O     O_R   0.493730 0.578300 0.341170 -0.623802
O3    O     O_R   0.491200 0.609310 0.646410 -0.598315
O4    O     O_R   0.508800 0.390690 0.353590 -0.580527
O5    O     O_R   0.693580 0.406210 0.506230 -0.619744
O6    O     O_R   0.306420 0.593790 0.493770 -0.576154
O7    O     O_R   0.678510 0.593830 0.493810 -0.624390
O8    O     O_R   0.321490 0.406170 0.506190 -0.628032
Zn1   Zn    Zn3+2 0.510060 0.374730 0.508290 0.978355
Zn2   Zn    Zn3+2 0.489940 0.625270 0.491710 0.966135
C31   C     C_3   0.084530 0.642962 0.665809 -0.914031
H9    H     H_    0.001862 0.680091 0.711373 0.252212
H10   H     H_    0.148964 0.593781 0.717060 0.226167
H11   H     H_    0.135587 0.710570 0.635017 0.261302
C32   C     C_3   0.912360 0.359017 0.325442 -0.905355
H12   H     H_    0.994057 0.321644 0.278808 0.245523
H13   H     H_    0.860496 0.291456 0.355678 0.249707
H14   H     H_    0.847377 0.408784 0.275048 0.233839
C33   C     C_3   0.101732 0.276806 0.511465 -0.899153
H15   H     H_    0.024134 0.220329 0.517301 0.225714
H16   H     H_    0.155094 0.251999 0.439086 0.252825
H17   H     H_    0.166934 0.270069 0.579744 0.253241
C34   C     C_3   0.901760 0.724704 0.473827 -0.867556
H18   H     H_    0.982389 0.777320 0.464387 0.245503
H19   H     H_    0.838329 0.728501 0.404097 0.239654
H20   H     H_    0.848431 0.756895 0.544488 0.242176
O9    O     O_3   0.396834 0.289980 0.194628 -0.645822
C35   C     C_3   0.401878 0.179729 0.148158 0.079914
H21   H     H_    0.426607 0.122683 0.210594 0.154127
H22   H     H_    0.478179 0.161368 0.089358 0.125195
C36   C     C_3   0.270824 0.153364 0.103238 -0.342453
H23   H     H_    0.201298 0.157613 0.167385 0.219895
H24   H     H_    0.236065 0.215900 0.048314 0.220958
C37   C     C_3   0.275192 0.037993 0.046110 -1.007538
H25   H     H_    0.338029 0.035326 0.977606 0.268493
H26   H     H_    0.178018 0.019023 0.019072 0.274027
H27   H     H_    0.311983 0.973834 0.098543 0.257805
O10   O     O_3   0.550805 0.732498 0.817974 -0.637980
C38   C     C_3   0.451798 0.814384 0.846864 0.045212
H28   H     H_    0.490894 0.897532 0.850183 0.156815
H29   H     H_    0.412808 0.807241 0.926003 0.130821
C39   C     C_3   0.344148 0.810689 0.765519 -0.299515
H30   H     H_    0.382186 0.820869 0.687295 0.248650
H31   H     H_    0.303598 0.728301 0.764399 0.218259
C40   C     C_3   0.238973 0.901736 0.789339 -0.986179
H32   H     H_    0.193772 0.888905 0.864350 0.274842
H33   H     H_    0.165241 0.898370 0.726589 0.268437
H34   H     H_    0.277739 0.985258 0.793136 0.271584
O11   O     O_3   0.663048 0.236561 0.663626 -0.615760
C41   C     C_3   0.797382 0.222817 0.660980 0.059594
H35   H     H_    0.832162 0.278959 0.605646 0.175143
H36   H     H_    0.835780 0.137635 0.633918 0.131396
C42   C     C_3   0.849939 0.254270 0.770614 -0.321163
H37   H     H_    0.827594 0.344612 0.790972 0.220383
H38   H     H_    0.803058 0.208260 0.829055 0.225241
C43   C     C_3   0.993091 0.227665 0.779477 -0.978104
H39   H     H_    0.017994 0.138468 0.755676 0.273238
H40   H     H_    0.024814 0.244663 0.861654 0.266734
H41   H     H_    0.044097 0.280832 0.730173 0.271852
O12   O     O_3   0.300370 0.767596 0.366698 -0.616887
C44   C     C_3   0.317036 0.768774 0.257728 0.065544
H42   H     H_    0.415505 0.738956 0.235815 0.145678
H43   H     H_    0.298927 0.853621 0.230621 0.137677
C45   C     C_3   0.223385 0.693162 0.201175 -0.301944
H44   H     H_    0.250084 0.605085 0.216846 0.221405
H45   H     H_    0.126339 0.716136 0.231282 0.220913
C46   C     C_3   0.221044 0.704314 0.083645 -0.979854
H46   H     H_    0.186382 0.790126 0.066095 0.264424
H47   H     H_    0.156351 0.644650 0.045026 0.270990
H48   H     H_    0.317234 0.685704 0.051419 0.272620
C47   C     C_3   0.236700 0.006534 0.378433 -0.955545
H49   H     H_    0.190780 0.061359 0.441676 0.256523
H50   H     H_    0.253314 0.055002 0.310850 0.236284
H51   H     H_    0.167676 0.943741 0.354984 0.270093
C48   C     C_3   0.685324 0.998022 0.695775 -0.926208
H52   H     H_    0.630012 0.935593 0.729875 0.259317
H53   H     H_    0.778218 0.957261 0.670127 0.235471
H54   H     H_    0.699371 0.061521 0.760568 0.260581

loop_
_geom_bond_atom_site_label_1
_geom_bond_atom_site_label_2
_ccdc_geom_bond_type
O4    Zn1   S    
C32   H12   S    
C34   H19   S    
C42   H37   S    
C27   C29   A    
C18   C21   S    
C47   H49   S    
C15   O7    A    
C16   O8    A    
C45   H45   S    
C4    C25   A    
C15   C22   S    
C40   H32   S    
C23   C33   S    
C17   C23   S    
C37   H26   S    
C18   C24   S    
C42   C43   S    
C19   C21   S    
C5    C6    A    
C8    C10   A    
C48   H52   S    
C43   H41   S    
C12   H7    S    
C8    C48   S    
C1    O3    A    
C7    C14   A    
C29   O10   S    
C10   O11   S    
C2    O4    A    
C35   H21   S    
C48   H53   S    
C37   H27   S    
C43   H40   S    
C46   H46   S    
C2    C25   S    
C30   O9    S    
C34   H20   S    
C33   H15   S    
C44   H43   S    
C13   C14   A    
C46   H47   S    
C20   C32   S    
O1    Zn1   S    
C45   H44   S    
O7    Zn2   S    
C40   H33   S    
C33   H16   S    
C37   H25   S    
O9    C35   S    
C44   H42   S    
C38   H28   S    
C4    C6    A    
C16   O6    A    
C38   H29   S    
O10   C38   S    
C3    H4    S    
C27   H5    S    
C9    N2    A    
C31   H9    S    
C10   N1    A    
C31   H10   S    
C11   H8    S    
C36   C37   S    
C5    C28   A    
C41   H36   S    
C6    C27   A    
C20   C23   S    
O5    Zn1   S    
C48   H54   S    
C43   H39   S    
C47   H50   S    
O2    Zn2   S    
C1    O1    A    
O8    Zn1   S    
N1    Zn1   S    
C12   C14   A    
C9    O12   S    
C39   H31   S    
C32   H13   S    
C1    C26   S    
C17   H1    S    
C46   H48   S    
C22   C24   S    
C18   H2    S    
C15   O5    A    
O3    Zn2   S    
C41   C42   S    
C36   H24   S    
C40   H34   S    
C25   C30   A    
C7    C9    A    
C4    H3    S    
C33   H17   S    
C3    C26   A    
C20   C22   S    
C3    C5    A    
C38   C39   S    
C16   C21   S    
C24   C34   S    
C39   C40   S    
O6    Zn2   S    
C17   C22   S    
C31   H11   S    
C12   N1    A    
C21   C23   S    
C19   C24   S    
C36   H23   S    
C11   C13   A    
C41   H35   S    
C2    O2    A    
C35   C36   S    
N2    Zn2   S    
C28   C30   A    
O12   C44   S    
C17   C19   S    
C7    C47   S    
C47   H51   S    
C18   C20   S    
C11   N2    A    
C34   H18   S    
C8    C13   A    
C19   C31   S    
C28   H6    S    
C26   C29   A    
C42   H38   S    
C39   H30   S    
C32   H14   S    
C35   H22   S    
C44   C45   S    
O11   C41   S    
C45   C46   S    
