data_mof_unit_48535.cif
_audit_creation_date              2013-03-05T16:47:42-0500
_audit_creation_method            fapswitch 2.2
_symmetry_space_group_name_H-M    P1
_symmetry_Int_Tables_number       1
_space_group_crystal_system       triclinic
_cell_length_a                    11.022644
_cell_length_b                    12.929224
_cell_length_c                    11.931436
_cell_angle_alpha                 98.045888
_cell_angle_beta                  95.056929
_cell_angle_gamma                 89.577014
_cell_volume                      1677.08657927

loop_
_atom_site_label
_atom_site_type_symbol
_atom_site_description
_atom_site_fract_x
_atom_site_fract_y
_atom_site_fract_z
_atom_type_partial_charge
O1    O     O_R   0.506570 0.354460 0.582000 -0.529076
O2    O     O_R   0.493430 0.645540 0.418000 -0.529070
O3    O     O_R   0.490940 0.341410 0.386200 -0.598425
O4    O     O_R   0.509060 0.658590 0.613800 -0.598430
C1    C     C_R   0.502450 0.300391 0.480424 0.859871
C2    C     C_R   0.497551 0.699609 0.519576 0.859875
O5    O     O_R   0.327460 0.506540 0.597900 -0.506239
O6    O     O_R   0.672540 0.493460 0.402100 -0.506238
O7    O     O_R   0.311830 0.493480 0.402100 -0.603865
O8    O     O_R   0.688170 0.506520 0.597900 -0.603872
C3    C     C_R   0.262661 0.499857 0.499319 0.870216
C4    C     C_R   0.737338 0.500144 0.500681 0.870203
Cu1   Cu    Cu3+1 0.509250 0.507730 0.615930 1.072760
Cu2   Cu    Cu3+1 0.490750 0.492270 0.384070 1.072770
C5    C     C_R   0.138825 0.599725 0.133046 0.215484
C6    C     C_R   0.861164 0.400277 0.866951 0.215473
C7    C     C_R   0.106525 0.596862 0.243331 -0.119951
C8    C     C_R   0.893471 0.403141 0.756669 -0.119963
H1    H     H_    0.081417 0.668101 0.295145 0.219657
H2    H     H_    0.918582 0.331902 0.704856 0.219655
C9    C     C_R   0.099932 0.502068 0.285731 0.034043
C10   C     C_R   0.900067 0.497936 0.714269 0.034051
C11   C     C_R   0.123858 0.408590 0.217896 -0.177545
C12   C     C_R   0.876136 0.591414 0.782102 -0.177538
H3    H     H_    0.113261 0.335587 0.250910 0.216823
H4    H     H_    0.886732 0.664417 0.749087 0.216820
C13   C     C_R   0.159014 0.408668 0.107967 0.276051
C14   C     C_R   0.840975 0.591335 0.892029 0.276057
C15   C     C_R   0.170999 0.505085 0.066584 0.236848
C16   C     C_R   0.828989 0.494918 0.933412 0.236850
C17   C     C_R   0.926130 0.498616 0.398365 0.320410
C18   C     C_R   0.073869 0.501389 0.601636 0.320414
C19   C     C_R   0.871661 0.499799 0.501260 -0.199918
C20   C     C_R   0.128339 0.500204 0.498740 -0.199915
C21   C     C_R   0.947595 0.500300 0.603041 -0.095763
C22   C     C_R   0.052404 0.499703 0.396959 -0.095758
C23   C     C_R   0.483278 0.811706 0.527419 -0.189372
C24   C     C_R   0.516725 0.188294 0.472580 -0.189384
C25   C     C_R   0.624476 0.029067 0.411463 0.287279
C26   C     C_R   0.375529 0.970934 0.588538 0.287277
C27   C     C_R   0.609409 0.136899 0.412935 0.238039
C28   C     C_R   0.390593 0.863101 0.587063 0.238044
C29   C     C_R   0.438836 0.133416 0.528740 -0.128193
C30   C     C_R   0.561171 0.866585 0.471264 -0.128202
C31   C     C_R   0.453293 0.026392 0.529830 -0.030322
C32   C     C_R   0.546714 0.973609 0.470173 -0.030320
H5    H     H_    0.633755 0.824839 0.429258 0.217933
H6    H     H_    0.366253 0.175161 0.570747 0.217941
N1    N     N_R   0.523180 0.519350 0.790130 -0.273733
N2    N     N_R   0.476820 0.480650 0.209870 -0.273728
C33   C     C_R   0.493518 0.364145 0.033939 0.259970
C34   C     C_R   0.506474 0.635853 0.966059 0.259984
C35   C     C_R   0.477020 0.382747 0.150308 -0.012335
C36   C     C_R   0.522981 0.617254 0.849690 -0.012343
C37   C     C_R   0.486161 0.564870 0.150650 0.491275
C38   C     C_R   0.513826 0.435130 0.849351 0.491281
C39   C     C_R   0.497704 0.551082 0.029792 -0.193674
C40   C     C_R   0.502298 0.448921 0.970211 -0.193726
H7    H     H_    0.528563 0.684718 0.806990 0.204719
H8    H     H_    0.471448 0.315277 0.193005 0.204718
O9    O     O_3   0.219148 0.504725 0.964228 -0.620237
H9    H     H_    0.257813 0.573322 0.963698 0.373734
O10   O     O_3   0.780839 0.495278 0.035768 -0.620240
H10   H     H_    0.742177 0.426680 0.036299 0.373735
N3    N     N_R   0.507846 0.332420 0.788578 0.147683
O11   O     O_R   0.403330 0.284665 0.766684 -0.245078
O12   O     O_R   0.607394 0.282985 0.763959 -0.310043
N4    N     N_R   0.492125 0.667579 0.211428 0.147691
O13   O     O_R   0.596632 0.715348 0.233303 -0.245082
O14   O     O_R   0.392570 0.716998 0.236056 -0.310050
N5    N     N_R   0.512646 0.257934 0.986725 0.170748
O15   O     O_R   0.623657 0.224320 0.980698 -0.210353
O16   O     O_R   0.425217 0.190111 0.982262 -0.176962
N6    N     N_R   0.487345 0.742068 0.013267 0.170773
O17   O     O_R   0.574752 0.809896 0.017699 -0.176990
O18   O     O_R   0.376332 0.775665 0.019338 -0.210374
N7    N     N_R   0.133158 0.697737 0.088375 0.182580
O19   O     O_R   0.099758 0.700599 0.981532 -0.238906
O20   O     O_R   0.142766 0.785421 0.157049 -0.200195
N8    N     N_R   0.866826 0.302263 0.911620 0.182573
O21   O     O_R   0.900228 0.299399 0.018462 -0.238896
O22   O     O_R   0.857212 0.214579 0.842946 -0.200203
N9    N     N_R   0.182554 0.310554 0.039850 0.177225
O23   O     O_R   0.182858 0.303614 0.930077 -0.163325
O24   O     O_R   0.193081 0.225175 0.086146 -0.250983
N10   N     N_R   0.817426 0.689449 0.960143 0.177216
O25   O     O_R   0.806905 0.774827 0.913846 -0.250987
O26   O     O_R   0.817105 0.696388 0.069915 -0.163325
N11   N     N_R   0.854062 0.494725 0.292349 0.150658
O27   O     O_R   0.813459 0.580840 0.258478 -0.254874
O28   O     O_R   0.819282 0.404770 0.236282 -0.250639
N12   N     N_R   0.145936 0.505282 0.707651 0.150660
O29   O     O_R   0.186536 0.419167 0.741525 -0.254864
O30   O     O_R   0.180722 0.595238 0.763714 -0.250642
N13   N     N_R   0.309185 0.805700 0.643077 0.155072
O31   O     O_R   0.295293 0.832878 0.750338 -0.195326
O32   O     O_R   0.239241 0.733593 0.584128 -0.345047
N14   N     N_R   0.690809 0.194298 0.356911 0.155076
O33   O     O_R   0.704682 0.167121 0.249646 -0.195328
O34   O     O_R   0.760760 0.266406 0.415852 -0.345035
N15   N     N_R   0.721937 0.977501 0.354279 0.146211
O35   O     O_R   0.834358 0.002473 0.389476 -0.229396
O36   O     O_R   0.698235 0.917782 0.257833 -0.175484
N16   N     N_R   0.278069 0.022500 0.645721 0.146213
O37   O     O_R   0.165647 0.997543 0.610511 -0.229404
O38   O     O_R   0.301768 0.082212 0.742173 -0.175475

loop_
_geom_bond_atom_site_label_1
_geom_bond_atom_site_label_2
_geom_bond_distance
_ccdc_geom_bond_type
N15   O35   1.300908 A    
C13   C15   1.414740 A    
N13   O31   1.301013 A    
N16   O38   1.299963 A    
C37   N4    1.420184 S    
C25   C27   1.400672 A    
C9    C22   1.473352 S    
Cu2   N2    2.054944 S    
N7    O19   1.300868 A    
O5    C3    1.313565 A    
C10   C21   1.473354 S    
N6    O18   1.300094 A    
O1    C1    1.308884 A    
C12   H4    1.083291 S    
C34   N6    1.430985 S    
N10   O26   1.300532 A    
C6    C16   1.422465 A    
C38   N3    1.420187 S    
C23   C28   1.406228 A    
O4    Cu1   1.954206 S    
C7    H1    1.083582 S    
C30   C32   1.393453 A    
N4    O13   1.299585 A    
N3    O12   1.301055 A    
C17   C19   1.411549 A    
C5    C15   1.422459 A    
C11   C13   1.400159 A    
N11   O28   1.300285 A    
C29   H6    1.082226 S    
C20   C22   1.412113 A    
C30   H5    1.082227 S    
C26   C28   1.400670 A    
C5    N7    1.440785 S    
N15   O36   1.299959 A    
C16   O10   1.373245 S    
O2    C2    1.308883 A    
C33   N5    1.430965 S    
N16   O37   1.300906 A    
C35   H8    1.074691 S    
C34   C36   1.403263 A    
C25   N15   1.433662 S    
C36   H7    1.074673 S    
N7    O20   1.301648 A    
C26   C31   1.412463 A    
C15   O9    1.373247 S    
N2    C35   1.362256 A    
N6    O17   1.300236 A    
C28   N13   1.434240 S    
C18   C21   1.393646 A    
C1    C24   1.447520 S    
C24   C27   1.406230 A    
O4    C2    1.304616 A    
N5    O16   1.300334 A    
N10   O25   1.301777 A    
C17   N11   1.428012 S    
C31   C32   1.419731 A    
C27   N14   1.434239 S    
C7    C9    1.394533 A    
O10   H10   0.987884 S    
C33   C35   1.403241 A    
C18   C20   1.411549 A    
O7    Cu2   2.002342 S    
C26   N16   1.433657 S    
C29   C31   1.393449 A    
N9    O23   1.300533 A    
O6    C4    1.313564 A    
N12   O30   1.300288 A    
C2    C23   1.447521 S    
C33   C40   1.427157 A    
O7    C3    1.315080 A    
O3    Cu2   1.954205 S    
O8    C4    1.315078 A    
C25   C32   1.412465 A    
Cu1   N1    2.054945 S    
N8    O22   1.301651 A    
N9    O24   1.301777 A    
N14   O33   1.301013 A    
N14   O34   1.299889 A    
C37   C39   1.444795 A    
C14   N10   1.442488 S    
C10   C12   1.394436 A    
O1    Cu1   1.966196 S    
C5    C7    1.398584 A    
O6    Cu2   1.996319 S    
C8    C10   1.394534 A    
C3    C20   1.479976 S    
C12   C14   1.400159 A    
N8    O21   1.300871 A    
O3    C1    1.304613 A    
O8    Cu1   2.002342 S    
N13   O32   1.299891 A    
N1    C38   1.387626 A    
N2    C37   1.387595 A    
C23   C30   1.390331 A    
C9    C11   1.394432 A    
C4    C19   1.479974 S    
C24   C29   1.390326 A    
C39   C40   1.412486 A    
C18   N12   1.428010 S    
C14   C16   1.414745 A    
N12   O29   1.299995 A    
C19   C21   1.412113 A    
C38   C40   1.444773 A    
C8    H2    1.083579 S    
C11   H3    1.083283 S    
O9    H9    0.987888 S    
O2    Cu2   1.966197 S    
C34   C39   1.427126 A    
C13   N9    1.442485 S    
O5    Cu1   1.996319 S    
N5    O15   1.300099 A    
C6    C8    1.398584 A    
N3    O11   1.299596 A    
N4    O14   1.301048 A    
C17   C22   1.393648 A    
C6    N8    1.440790 S    
N11   O27   1.300000 A    
Cu1   Cu2   2.735139 S    
N1    C36   1.362254 A    
