data_mof_unit_63081.cif
_audit_creation_date              2012-12-10T17:46:12-0500
_audit_creation_method            fapswitch 2.2
_symmetry_space_group_name_H-M    P1
_symmetry_Int_Tables_number       1
_space_group_crystal_system       triclinic
_cell_length_a                    37.421588
_cell_length_b                    30.396924
_cell_length_c                    21.729882
_cell_angle_alpha                 89.999715
_cell_angle_beta                  54.288474
_cell_angle_gamma                 90.0
_cell_volume                      20069.988687

loop_
_atom_site_label
_atom_site_type_symbol
_atom_type_description
_atom_site_fract_x
_atom_site_fract_y
_atom_site_fract_z
_atom_type_partial_charge
C1    C     C_R   0.085153 0.499958 0.414838 0.815631
C2    C     C_R   0.914847 0.499958 0.585162 0.815632
C3    C     C_R   0.585153 0.999958 0.414838 0.815631
C4    C     C_R   0.414847 0.999958 0.585162 0.815632
C5    C     C_R   0.000608 0.499391 0.814398 -0.102581
C6    C     C_R   0.999392 0.499391 0.185602 -0.102582
C7    C     C_R   0.500608 0.999391 0.814398 -0.102581
C8    C     C_R   0.499392 0.999391 0.185602 -0.102582
C9    C     C_R   0.971582 0.524791 0.809535 0.115829
C10   C     C_R   0.028418 0.524791 0.190464 0.115828
C11   C     C_R   0.471582 0.024791 0.809535 0.115828
C12   C     C_R   0.528418 0.024791 0.190464 0.115829
C13   C     C_3   0.934190 0.556464 0.851347 -0.047348
C14   C     C_3   0.065811 0.556464 0.148651 -0.047348
C15   C     C_3   0.434190 0.056464 0.851347 -0.047348
C16   C     C_3   0.565811 0.056464 0.148651 -0.047348
C17   C     C_3   0.935020 0.557255 0.779352 -0.464363
C18   C     C_3   0.064981 0.557256 0.220647 -0.464362
C19   C     C_3   0.435020 0.057255 0.779352 -0.464363
C20   C     C_3   0.564981 0.057256 0.220647 -0.464362
C21   C     C_R   0.202819 0.539806 0.295716 0.251047
C22   C     C_R   0.797181 0.539806 0.704269 0.251048
C23   C     C_R   0.702819 0.039806 0.295724 0.251048
C24   C     C_R   0.297181 0.039806 0.704274 0.251047
C25   C     C_R   0.156963 0.539662 0.341417 -0.215173
C26   C     C_R   0.843037 0.539661 0.658569 -0.215171
C27   C     C_R   0.656963 0.039662 0.341424 -0.215173
C28   C     C_R   0.343037 0.039661 0.658574 -0.215172
C29   C     C_R   0.133615 0.499878 0.366467 -0.131277
C30   C     C_R   0.866385 0.499878 0.633533 -0.131280
C31   C     C_R   0.633615 0.999878 0.366467 -0.131279
C32   C     C_R   0.366385 0.999878 0.633533 -0.131279
C33   C     C_R   0.156823 0.459975 0.345116 -0.181143
C34   C     C_R   0.843177 0.459975 0.654899 -0.181144
C35   C     C_R   0.656823 0.959975 0.345109 -0.181144
C36   C     C_R   0.343177 0.959975 0.654893 -0.181144
C37   C     C_R   0.202900 0.459529 0.299265 0.153602
C38   C     C_R   0.797100 0.459529 0.700750 0.153601
C39   C     C_R   0.702900 0.959529 0.299257 0.153602
C40   C     C_R   0.297100 0.959529 0.700744 0.153602
C41   C     C_R   0.226007 0.499798 0.274460 -0.000663
C42   C     C_R   0.773993 0.499797 0.725540 -0.000661
C43   C     C_R   0.726007 0.999798 0.274460 -0.000661
C44   C     C_R   0.273993 0.999797 0.725540 -0.000662
C45   C     C_R   0.999994 0.499962 0.618659 0.806289
C46   C     C_R   0.000006 0.499962 0.381341 0.806290
C47   C     C_R   0.499994 0.999962 0.618659 0.806290
C48   C     C_R   0.500006 0.999962 0.381341 0.806290
C49   C     C_R   0.297092 0.499963 0.259095 -0.128933
C50   C     C_R   0.702908 0.499964 0.740905 -0.128919
C51   C     C_R   0.797092 0.999963 0.259095 -0.128926
C52   C     C_R   0.202908 0.999960 0.740904 -0.128928
C53   C     C_R   0.342959 0.499950 0.213202 -0.180757
C54   C     C_R   0.657041 0.499951 0.786798 -0.180755
C55   C     C_R   0.842959 0.999950 0.213202 -0.180756
C56   C     C_R   0.157041 0.999947 0.786798 -0.180756
C57   C     C_R   0.366408 0.500139 0.133849 -0.034858
C58   C     C_R   0.633592 0.500138 0.866151 -0.034858
C59   C     C_R   0.866408 0.000139 0.133849 -0.034858
C60   C     C_R   0.133592 0.000139 0.866151 -0.034857
C61   C     C_R   0.343128 0.500414 0.101326 -0.181507
C62   C     C_R   0.656872 0.500412 0.898674 -0.181508
C63   C     C_R   0.843128 0.000414 0.101326 -0.181508
C64   C     C_R   0.156872 0.000417 0.898674 -0.181506
C65   C     C_R   0.297274 0.500431 0.147332 -0.127341
C66   C     C_R   0.702726 0.500429 0.852668 -0.127355
C67   C     C_R   0.797274 0.000432 0.147332 -0.127347
C68   C     C_R   0.202726 0.000434 0.852668 -0.127345
C69   C     C_R   0.274240 0.500176 0.226196 0.158062
C70   C     C_R   0.725760 0.500175 0.773804 0.158061
C71   C     C_R   0.774240 0.000176 0.226196 0.158062
C72   C     C_R   0.225760 0.000175 0.773804 0.158062
C73   C     C_R   0.000000 0.633234 0.000000 -0.050544
C74   C     C_R   0.500000 0.133234 0.000000 -0.050544
C75   C     C_R   0.000000 0.725695 0.000000 0.010603
C76   C     C_R   0.500000 0.225695 0.000000 0.010603
C77   C     C_R   0.500000 0.725752 1.000000 0.098509
C78   C     C_R   1.000000 0.225752 1.000000 0.098509
C79   C     C_R   1.000000 0.414805 0.000000 0.785025
C80   C     C_R   0.500000 0.914805 0.000000 0.785025
C81   C     C_R   0.026317 0.656593 0.930730 0.127365
C82   C     C_R   0.973684 0.656593 0.069270 0.127364
C83   C     C_R   0.526317 0.156593 0.930730 0.127365
C84   C     C_R   0.473684 0.156592 0.069270 0.127364
C85   C     C_R   0.000079 0.499934 0.881218 0.804107
C86   C     C_R   0.999921 0.499934 0.118782 0.804106
C87   C     C_R   0.500079 0.999934 0.881218 0.804107
C88   C     C_R   0.499921 0.999934 0.118782 0.804107
C89   C     C_R   1.000000 0.584892 0.000000 0.800053
C90   C     C_R   0.500000 0.084892 1.000000 0.800053
C91   C     C_R   0.500000 0.366535 0.000000 -0.032311
C92   C     C_R   0.000000 0.866535 0.000000 -0.032312
C93   C     C_R   0.500000 0.414900 0.000000 0.789359
C94   C     C_R   1.000000 0.914900 0.000000 0.789359
C95   C     C_R   0.414849 0.500035 0.085241 0.795172
C96   C     C_R   0.585151 0.500035 0.914759 0.795172
C97   C     C_R   0.914849 0.000035 0.085241 0.795172
C98   C     C_R   0.085151 0.000035 0.914759 0.795172
C99   C     C_R   0.502256 0.343224 0.053436 -0.184432
C100  C     C_R   0.497744 0.343224 0.946565 -0.184431
C101  C     C_R   0.002256 0.843224 0.053436 -0.184431
C102  C     C_R   0.997744 0.843224 0.946565 -0.184431
C103  C     C_R   0.500000 0.585068 1.000000 0.795365
C104  C     C_R   0.000000 0.085068 1.000000 0.795365
C105  C     C_R   0.037534 0.297316 0.981173 -0.164085
C106  C     C_R   0.962465 0.297316 0.018826 -0.164085
C107  C     C_R   0.537534 0.797316 0.981173 -0.164085
C108  C     C_R   0.462465 0.797316 0.018826 -0.164085
C109  C     C_R   0.037666 0.343176 0.980578 -0.181152
C110  C     C_R   0.962333 0.343175 0.019421 -0.181152
C111  C     C_R   0.537666 0.843175 0.980578 -0.181152
C112  C     C_R   0.462333 0.843175 0.019421 -0.181152
C113  C     C_R   1.000000 0.366461 0.000000 -0.030896
C114  C     C_R   0.500000 0.866461 0.000000 -0.030896
C115  C     C_R   0.502289 0.297411 0.053382 -0.166336
C116  C     C_R   0.497711 0.297411 0.946619 -0.166338
C117  C     C_R   0.002289 0.797411 0.053382 -0.166337
C118  C     C_R   0.997711 0.797411 0.946619 -0.166339
C119  C     C_R   1.000000 0.274124 1.000000 0.097570
C120  C     C_R   0.500000 0.774124 1.000000 0.097570
C121  C     C_R   0.486408 0.702561 0.961214 -0.160680
C122  C     C_R   0.513591 0.702561 0.038785 -0.160682
C123  C     C_R   0.986408 0.202561 0.961214 -0.160681
C124  C     C_R   0.013591 0.202561 0.038785 -0.160681
C125  C     C_R   0.486739 0.656701 0.960695 -0.172042
C126  C     C_R   0.513260 0.656701 0.039304 -0.172044
C127  C     C_R   0.986739 0.156701 0.960695 -0.172043
C128  C     C_R   0.013260 0.156701 0.039304 -0.172042
C129  C     C_R   0.500000 0.633414 1.000000 -0.029720
C130  C     C_R   1.000000 0.133414 1.000000 -0.029720
C131  C     C_R   0.500000 0.274155 0.000000 0.125511
C132  C     C_R   0.000000 0.774155 0.000000 0.125511
C133  C     C_R   0.025895 0.702591 0.931675 -0.161099
C134  C     C_R   0.974106 0.702591 0.068325 -0.161099
C135  C     C_R   0.525895 0.202591 0.931675 -0.161099
C136  C     C_R   0.474106 0.202591 0.068325 -0.161100
C137  C     C_R   0.972332 0.525635 0.746667 0.068528
C138  C     C_R   0.027668 0.525635 0.253332 0.068527
C139  C     C_R   0.472332 0.025635 0.746667 0.068528
C140  C     C_R   0.527668 0.025635 0.253332 0.068528
C141  C     C_R   0.000941 0.499793 0.683904 -0.075822
C142  C     C_R   0.999058 0.499793 0.316097 -0.075822
C143  C     C_R   0.500941 0.999793 0.683904 -0.075822
C144  C     C_R   0.499058 0.999793 0.316097 -0.075822
C145  C     C_R   0.030795 0.472946 0.686472 -0.203710
C146  C     C_R   0.969205 0.472946 0.313529 -0.203708
C147  C     C_R   0.530795 0.972946 0.686472 -0.203710
C148  C     C_R   0.469205 0.972946 0.313529 -0.203708
C149  C     C_R   0.031142 0.473323 0.751013 -0.201059
C150  C     C_R   0.968857 0.473323 0.248988 -0.201059
C151  C     C_R   0.531142 0.973323 0.751013 -0.201058
C152  C     C_R   0.468857 0.973323 0.248988 -0.201059
Cu1   Cu    Cu3+1 0.000000 0.544020 0.500000 0.961614
Cu2   Cu    Cu3+1 0.500000 0.044020 0.500000 0.961614
Cu3   Cu    Cu3+1 0.000000 0.455930 0.500000 0.945761
Cu4   Cu    Cu3+1 0.500000 0.955930 0.500000 0.945761
Cu5   Cu    Cu3+1 0.955930 0.499910 0.044070 0.942450
Cu6   Cu    Cu3+1 0.044070 0.499910 0.955930 0.942450
Cu7   Cu    Cu3+1 0.455930 0.999910 0.044070 0.942450
Cu8   Cu    Cu3+1 0.544070 0.999910 0.955930 0.942450
Cu9   Cu    Cu3+1 0.499980 0.499990 0.061820 0.948615
Cu10  Cu    Cu3+1 0.500020 0.499990 0.938180 0.948617
Cu11  Cu    Cu3+1 0.999980 0.999990 0.061820 0.948616
Cu12  Cu    Cu3+1 0.000020 0.999990 0.938180 0.948616
H1    H     H_    0.053983 0.452300 0.638675 0.152901
H2    H     H_    0.946016 0.452301 0.361326 0.152902
H3    H     H_    0.553983 0.952300 0.638676 0.152902
H4    H     H_    0.446016 0.952301 0.361326 0.152902
H5    H     H_    0.279364 0.499722 0.320167 0.137231
H6    H     H_    0.720636 0.499724 0.679832 0.137235
H7    H     H_    0.779364 0.999721 0.320168 0.137233
H8    H     H_    0.220636 0.999715 0.679832 0.137232
H9    H     H_    0.359988 0.499739 0.239855 0.155685
H10   H     H_    0.640011 0.499741 0.760145 0.155685
H11   H     H_    0.859989 0.999738 0.239855 0.155685
H12   H     H_    0.140011 0.999733 0.760145 0.155685
H13   H     H_    0.360279 0.500576 0.040407 0.155078
H14   H     H_    0.639721 0.500573 0.959593 0.155078
H15   H     H_    0.860279 0.000576 0.040407 0.155078
H16   H     H_    0.139721 0.000581 0.959593 0.155078
H17   H     H_    0.279694 0.500549 0.121632 0.136858
H18   H     H_    0.720306 0.500546 0.878369 0.136854
H19   H     H_    0.779694 0.000550 0.121631 0.136856
H20   H     H_    0.220306 0.000554 0.878368 0.136857
H21   H     H_    0.504632 0.280140 0.094501 0.130636
H22   H     H_    0.495368 0.280140 0.905500 0.130637
H23   H     H_    0.004632 0.780140 0.094501 0.130637
H24   H     H_    0.995368 0.780140 0.905500 0.130637
H25   H     H_    0.504191 0.360324 0.095125 0.155030
H26   H     H_    0.495809 0.360324 0.904876 0.155031
H27   H     H_    0.004191 0.860324 0.095125 0.155030
H28   H     H_    0.995809 0.860325 0.904876 0.155030
H29   H     H_    0.066889 0.279904 0.966054 0.136630
H30   H     H_    0.933110 0.279904 0.033945 0.136631
H31   H     H_    0.566889 0.779904 0.966054 0.136630
H32   H     H_    0.433110 0.779904 0.033945 0.136631
H33   H     H_    0.067071 0.360389 0.965642 0.152925
H34   H     H_    0.932929 0.360389 0.034358 0.152925
H35   H     H_    0.567071 0.860390 0.965642 0.152925
H36   H     H_    0.432929 0.860389 0.034358 0.152925
H37   H     H_    0.054520 0.452830 0.751893 0.158363
H38   H     H_    0.945479 0.452830 0.248108 0.158363
H39   H     H_    0.554520 0.952829 0.751893 0.158363
H40   H     H_    0.445479 0.952830 0.248108 0.158363
H41   H     H_    0.046331 0.720587 0.878928 0.138877
H42   H     H_    0.953669 0.720586 0.121072 0.138878
H43   H     H_    0.546332 0.220587 0.878928 0.138878
H44   H     H_    0.453669 0.220586 0.121072 0.138878
H45   H     H_    0.476060 0.719973 0.930597 0.132805
H46   H     H_    0.523939 0.719972 0.069402 0.132804
H47   H     H_    0.976060 0.219973 0.930597 0.132804
H48   H     H_    0.023939 0.219972 0.069402 0.132804
H49   H     H_    0.476222 0.639488 0.930180 0.152708
H50   H     H_    0.523777 0.639488 0.069819 0.152709
H51   H     H_    0.976222 0.139488 0.930180 0.152708
H52   H     H_    0.023777 0.139488 0.069819 0.152708
H53   H     H_    0.903987 0.541303 0.901345 0.175305
H54   H     H_    0.096013 0.541303 0.098654 0.175305
H55   H     H_    0.403987 0.041303 0.901345 0.175304
H56   H     H_    0.596013 0.041303 0.098654 0.175305
H57   H     H_    0.905474 0.541974 0.787771 0.176642
H58   H     H_    0.094526 0.541974 0.212228 0.176642
H59   H     H_    0.405474 0.041974 0.787771 0.176642
H60   H     H_    0.594526 0.041974 0.212228 0.176642
H61   H     H_    0.945332 0.589098 0.748320 0.215698
H62   H     H_    0.054669 0.589099 0.251677 0.215697
H63   H     H_    0.445332 0.089099 0.748320 0.215698
H64   H     H_    0.554669 0.089099 0.251677 0.215697
H65   H     H_    0.139667 0.570792 0.357214 0.191647
H66   H     H_    0.860333 0.570792 0.642760 0.191649
H67   H     H_    0.639667 0.070792 0.357227 0.191648
H68   H     H_    0.360333 0.070792 0.642770 0.191648
H69   H     H_    0.139060 0.429084 0.364215 0.164239
H70   H     H_    0.860939 0.429084 0.635811 0.164240
H71   H     H_    0.639060 0.929084 0.364202 0.164240
H72   H     H_    0.360940 0.929084 0.635801 0.164240
O1    O     O_R   0.064270 0.537170 0.435740 -0.586422
O2    O     O_R   0.935730 0.537170 0.564260 -0.586423
O3    O     O_R   0.564270 0.037170 0.435740 -0.586422
O4    O     O_R   0.435730 0.037170 0.564260 -0.586423
O5    O     O_R   0.435710 0.499990 0.116480 -0.587255
O6    O     O_R   0.564290 0.499990 0.883520 -0.587254
O7    O     O_R   0.935710 0.999990 0.116480 -0.587254
O8    O     O_R   0.064290 0.999990 0.883520 -0.587253
O9    O     O_R   0.435700 0.499990 0.012100 -0.589903
O10   O     O_R   0.564300 0.499990 0.987900 -0.589904
O11   O     O_R   0.935700 0.999990 0.012100 -0.589903
O12   O     O_R   0.064300 0.999990 0.987900 -0.589904
O13   O     O_R   0.500010 0.564260 0.052180 -0.585909
O14   O     O_R   0.499990 0.564260 0.947820 -0.585908
O15   O     O_R   0.000010 0.064260 0.052180 -0.585909
O16   O     O_R   0.999990 0.064260 0.947820 -0.585908
O17   O     O_R   0.064230 0.462780 0.435770 -0.592822
O18   O     O_R   0.935770 0.462780 0.564230 -0.592821
O19   O     O_R   0.564230 0.962780 0.435770 -0.592822
O20   O     O_R   0.435770 0.962780 0.564230 -0.592821
O21   O     O_R   0.000000 0.537170 0.590170 -0.581372
O22   O     O_R   1.000000 0.537170 0.409830 -0.581373
O23   O     O_R   0.500000 0.037170 0.590170 -0.581372
O24   O     O_R   0.500000 0.037170 0.409830 -0.581372
O25   O     O_R   0.999960 0.462780 0.590210 -0.587633
O26   O     O_R   0.000040 0.462780 0.409790 -0.587631
O27   O     O_R   0.499960 0.962780 0.590210 -0.587632
O28   O     O_R   0.500040 0.962780 0.409790 -0.587632
O29   O     O_R   0.962790 0.435650 0.037200 -0.588747
O30   O     O_R   0.037210 0.435650 0.962800 -0.588747
O31   O     O_R   0.462790 0.935650 0.037200 -0.588747
O32   O     O_R   0.537210 0.935650 0.962800 -0.588747
O33   O     O_R   0.962770 0.499920 0.947050 -0.588587
O34   O     O_R   0.037230 0.499920 0.052950 -0.588586
O35   O     O_R   0.462770 0.999920 0.947050 -0.588587
O36   O     O_R   0.537230 0.999920 0.052950 -0.588586
O37   O     O_R   0.037170 0.499970 0.872660 -0.583278
O38   O     O_R   0.962830 0.499970 0.127340 -0.583279
O39   O     O_R   0.537170 0.999970 0.872660 -0.583278
O40   O     O_R   0.462830 0.999970 0.127340 -0.583279
O41   O     O_R   0.962770 0.564180 0.037230 -0.585267
O42   O     O_R   0.037230 0.564180 0.962770 -0.585267
O43   O     O_R   0.462770 0.064180 0.037230 -0.585267
O44   O     O_R   0.537230 0.064180 0.962770 -0.585267
O45   O     O_R   0.499950 0.435720 0.052230 -0.589882
O46   O     O_R   0.500050 0.435720 0.947770 -0.589881
O47   O     O_R   0.999950 0.935720 0.052230 -0.589881
O48   O     O_R   0.000050 0.935720 0.947770 -0.589881
C153  C     C_3   0.226938 0.416172 0.277125 -0.862692
H73   H     H_    0.248251 0.412874 0.214456 0.236332
H74   H     H_    0.247650 0.414518 0.298330 0.235814
H75   H     H_    0.203838 0.387857 0.301120 0.229470
C154  C     C_3   0.773061 0.416172 0.722905 -0.862698
H76   H     H_    0.751749 0.412880 0.785576 0.236330
H77   H     H_    0.752348 0.414511 0.701703 0.235817
H78   H     H_    0.796161 0.387856 0.698918 0.229472
C155  C     C_3   0.726938 0.916172 0.277110 -0.862696
H79   H     H_    0.748251 0.912878 0.214440 0.236331
H80   H     H_    0.747651 0.914515 0.298313 0.235816
H81   H     H_    0.703838 0.887857 0.301100 0.229471
C156  C     C_3   0.273062 0.916171 0.722894 -0.862694
H82   H     H_    0.251748 0.912878 0.785564 0.236331
H83   H     H_    0.252349 0.914513 0.701690 0.235814
H84   H     H_    0.296161 0.887856 0.698905 0.229471
C157  C     C_3   0.054379 0.633316 0.855326 -0.837209
H85   H     H_    0.034333 0.609020 0.849652 0.223904
H86   H     H_    0.068647 0.656657 0.807086 0.223022
H87   H     H_    0.082066 0.616203 0.850623 0.252960
C158  C     C_3   0.945621 0.633314 0.144674 -0.837207
H88   H     H_    0.965668 0.609019 0.150348 0.223904
H89   H     H_    0.931354 0.656655 0.192915 0.223023
H90   H     H_    0.917934 0.616202 0.149378 0.252960
C159  C     C_3   0.554379 0.133316 0.855326 -0.837207
H91   H     H_    0.534333 0.109020 0.849652 0.223904
H92   H     H_    0.568647 0.156657 0.807086 0.223023
H93   H     H_    0.582066 0.116203 0.850623 0.252960
C160  C     C_3   0.445621 0.133314 0.144674 -0.837207
H94   H     H_    0.465668 0.109019 0.150348 0.223903
H95   H     H_    0.431353 0.156655 0.192914 0.223022
H96   H     H_    0.417934 0.116202 0.149377 0.252961
C161  C     C_3   0.947167 0.600054 0.868403 -0.823928
H97   H     H_    0.920553 0.624537 0.888016 0.243045
H98   H     H_    0.951728 0.595105 0.914038 0.235793
H99   H     H_    0.978213 0.613166 0.817291 0.240216
C162  C     C_3   0.052834 0.600054 0.131594 -0.823927
H100  H     H_    0.079448 0.624537 0.111980 0.243045
H101  H     H_    0.048273 0.595105 0.085960 0.235793
H102  H     H_    0.021788 0.613166 0.182705 0.240217
C163  C     C_3   0.447167 0.100054 0.868403 -0.823928
H103  H     H_    0.420554 0.124537 0.888016 0.243045
H104  H     H_    0.451729 0.095105 0.914037 0.235793
H105  H     H_    0.478214 0.113166 0.817291 0.240217
C164  C     C_3   0.552834 0.100054 0.131594 -0.823926
H106  H     H_    0.579448 0.124537 0.111980 0.243044
H107  H     H_    0.548273 0.095105 0.085960 0.235793
H108  H     H_    0.521788 0.113166 0.182705 0.240216
Br1   Br    Br    0.232613 0.595489 0.263591 -0.522198
Br2   Br    Br    0.767388 0.595488 0.736375 -0.522197
Br3   Br    Br    0.732613 0.095489 0.263608 -0.522198
Br4   Br    Br    0.267388 0.095488 0.736388 -0.522197

loop_
_geom_bond_atom_site_label_1
_geom_bond_atom_site_label_2
_ccdc_geom_bond_type
C61   H13   S    
Cu5   Cu6   S    
Cu6   O30   S    
C55   C59   A    
C80   O31   A    
C164  H107  S    
C142  C146  A    
C109  H33   S    
C74   C83   A    
Cu1   O21   S    
C157  H85   S    
C26   H66   S    
C16   C20   S    
C80   C114  S    
C60   C98   S    
C76   C131  S    
C29   C33   A    
C23   C43   A    
C48   C144  S    
C117  C132  A    
C108  C120  A    
C77   C122  A    
C146  C150  A    
C125  H49   S    
C68   H20   S    
C12   C16   S    
C91   C100  A    
Cu9   O5    S    
C92   C102  A    
C66   H18   S    
C49   C69   A    
C51   C71   A    
C2    O18   A    
C73   C81   A    
C14   C162  S    
C25   C29   A    
Cu8   O36   S    
C27   C31   A    
C28   C32   A    
C37   C153  S    
Cu5   O38   S    
C62   C66   A    
C126  C129  A    
C90   O43   A    
C82   C134  A    
C161  H99   S    
C98   O8    A    
C52   C72   A    
C55   H11   S    
C96   O10   A    
C68   C72   A    
C92   C94   S    
C20   H60   S    
Cu8   O39   S    
C3    C31   S    
C4    C32   S    
C147  H3    S    
C95   O5    A    
C82   C158  S    
C107  C120  A    
Cu2   O24   S    
C41   C69   S    
C157  H87   S    
C48   O24   A    
C43   C71   S    
C24   Br4   S    
C100  H26   S    
C101  H27   S    
Cu8   O32   S    
C81   C157  S    
C97   O11   A    
C57   C61   A    
C59   C63   A    
C60   C64   A    
C54   H10   S    
C50   C70   A    
C153  H74   S    
C127  H51   S    
C66   C70   A    
C154  H77   S    
C49   C53   A    
C44   C72   S    
C51   C55   A    
C134  H42   S    
Cu5   O41   S    
C16   C164  S    
Cu3   O25   S    
C61   C65   A    
Cu7   O35   S    
C19   C139  S    
C162  H100  S    
C14   H54   S    
C17   C137  S    
C10   C138  A    
C112  H36   S    
C46   O22   A    
C104  O16   A    
C47   C143  S    
Cu7   O43   S    
Cu8   O44   S    
C52   H8    S    
C112  C114  A    
C75   C134  A    
C5    C149  A    
C106  H30   S    
C121  C125  A    
C56   H12   S    
C64   C68   A    
Cu12  O16   S    
C160  H95   S    
Cu2   O4    S    
C42   C70   S    
Cu12  O48   S    
C18   C138  S    
C163  H104  S    
C19   H63   S    
C9    C13   S    
Cu4   O28   S    
C139  C143  A    
C158  H89   S    
C122  H46   S    
Cu11  O7    S    
C28   H68   S    
C5    C85   S    
C156  H83   S    
C87   O39   A    
C93   O46   A    
C76   C135  A    
C7    C11   A    
C159  H92   S    
C30   C34   A    
C103  O13   A    
C17   H57   S    
C10   C14   S    
C1    O1    A    
C38   C154  S    
C8    C88   S    
C147  C151  A    
C5    C9    A    
C155  H79   S    
C125  C129  A    
C123  C127  A    
C8    C12   A    
C162  H102  S    
Cu5   O33   S    
C89   O41   A    
C154  H76   S    
C78   C123  A    
C83   C159  S    
C98   O12   A    
C67   H19   S    
C128  H52   S    
C26   C30   A    
C79   C113  S    
C108  H32   S    
C4    O20   A    
C15   H55   S    
C33   H69   S    
C75   C132  S    
Cu6   O37   S    
C135  H43   S    
C21   C25   A    
C80   O32   A    
C107  C111  A    
C105  C119  A    
C24   C28   A    
C74   C84   A    
C81   C133  A    
C141  C145  A    
C36   H72   S    
C20   H64   S    
C13   C17   S    
C2    C30   S    
Cu10  O9    S    
C95   O9    A    
Cu9   O13   S    
C74   C90   S    
C164  H108  S    
C85   O37   A    
C16   H56   S    
C37   C41   A    
C15   C163  S    
C118  C132  A    
C40   C44   A    
C35   H71   S    
C91   C99   A    
C94   O47   A    
C58   C62   A    
C121  H45   S    
C106  C119  A    
C110  H34   S    
C100  C116  A    
C45   O25   A    
C77   C120  S    
Cu9   Cu10  S    
C46   C142  S    
C145  H1    S    
C15   C19   S    
C25   H65   S    
C50   C54   A    
Cu1   O2    S    
Cu7   O40   S    
C40   C156  S    
C155  H81   S    
C99   C115  A    
C115  H21   S    
Cu3   O18   S    
Cu9   O45   S    
Cu6   O42   S    
C79   O30   A    
C90   O44   A    
C156  H82   S    
C85   O33   A    
C161  H98   S    
Cu12  O11   S    
C11   C139  A    
C105  C109  A    
C126  H50   S    
C9    C137  A    
C154  H78   S    
C7    C87   S    
C47   O23   A    
C39   C155  S    
C102  H28   S    
C12   C140  A    
Cu10  O6    S    
Cu2   Cu4   S    
Cu4   O19   S    
C124  C128  A    
C104  C130  S    
C45   C141  S    
Cu11  O12   S    
Cu1   O22   S    
C93   O45   A    
C1    O17   A    
C157  H86   S    
C53   H9    S    
C148  C152  A    
C19   H59   S    
C138  C142  A    
C21   Br1   S    
C136  H44   S    
C53   C57   A    
C115  C131  A    
C124  H48   S    
C23   Br3   S    
C116  H22   S    
C33   C37   A    
C56   C60   A    
C35   C39   A    
C153  H73   S    
C91   C93   S    
Cu7   Cu8   S    
C4    O4    A    
C13   C161  S    
C50   H6    S    
C103  C129  S    
Cu1   Cu3   S    
C92   C101  A    
C7    C151  A    
C148  H4    S    
C31   C35   A    
C150  H38   S    
Cu12  O8    S    
C32   C36   A    
C73   C82   A    
C137  C141  A    
C84   C136  A    
C8    C152  A    
C140  C144  A    
C128  C130  A    
C6    C10   A    
C75   C133  A    
C45   O21   A    
Cu5   O29   S    
Cu6   O34   S    
C101  C117  A    
C20   C140  S    
Cu11  O15   S    
C78   C119  S    
C73   C89   S    
C49   H5    S    
C160  H94   S    
C65   C69   A    
C111  C114  A    
C67   C71   A    
C163  H103  S    
C18   H58   S    
C6    C150  A    
C108  C112  A    
C22   Br2   S    
C155  H80   S    
C158  H88   S    
C22   C26   A    
C152  H40   S    
C13   H53   S    
C133  H41   S    
C145  C149  A    
Cu2   O23   S    
C3    O3    A    
C105  H29   S    
C164  H106  S    
C14   C18   S    
Cu11  Cu12  S    
C144  C148  A    
C107  H31   S    
C76   C136  A    
C65   H17   S    
C159  H91   S    
C143  C147  A    
C86   O38   A    
C38   C42   A    
C153  H75   S    
C64   H16   S    
Cu7   O31   S    
C63   H15   S    
C58   C96   S    
C18   H62   S    
C87   O35   A    
Cu3   O26   S    
C88   O36   A    
C162  H101  S    
C123  H47   S    
C23   C27   A    
C78   C124  A    
C83   C135  A    
C102  C118  A    
C109  C113  A    
C111  H35   S    
C146  H2    S    
C104  O15   A    
C17   H61   S    
C1    C29   S    
Cu10  O46   S    
C63   C67   A    
C36   C40   A    
C77   C121  A    
C86   O34   A    
C117  H23   S    
C99   H25   S    
C118  H24   S    
C2    O2    A    
C160  H96   S    
C39   C43   A    
C47   O27   A    
Cu2   O3    S    
C48   O28   A    
C122  C126  A    
C163  H105  S    
C97   O7    A    
Cu4   O27   S    
C158  H90   S    
C84   C160  S    
C110  C113  A    
C96   O6    A    
C27   H67   S    
Cu11  O47   S    
C11   C15   S    
C59   C97   S    
C156  H84   S    
C21   C41   A    
C34   H70   S    
C149  H37   S    
C6    C86   S    
C94   O48   A    
C54   C58   A    
C159  H93   S    
C34   C38   A    
C103  O14   A    
C151  H39   S    
C62   H14   S    
C46   O26   A    
Cu1   O1    S    
C51   H7    S    
C88   O40   A    
C127  C130  A    
Cu9   O10   S    
Cu10  O14   S    
Cu3   O17   S    
C22   C42   A    
C116  C131  A    
C24   C44   A    
C89   O42   A    
C79   O29   A    
C161  H97   S    
C3    O19   A    
C52   C56   A    
C106  C110  A    
C57   C95   S    
Cu4   O20   S    
