data_mof_unit_48720.cif
_audit_creation_date              2012-12-10T19:44:40-0500
_audit_creation_method            fapswitch 2.2
_symmetry_space_group_name_H-M    P1
_symmetry_Int_Tables_number       1
_space_group_crystal_system       triclinic
_cell_length_a                    18.292365
_cell_length_b                    18.386679
_cell_length_c                    34.545896
_cell_angle_alpha                 89.943771
_cell_angle_beta                  90.071717
_cell_angle_gamma                 89.820587
_cell_volume                      11618.9513612

loop_
_atom_site_label
_atom_site_type_symbol
_atom_type_description
_atom_site_fract_x
_atom_site_fract_y
_atom_site_fract_z
_atom_type_partial_charge
C1    C     C_R   0.999930 0.499610 0.893954 0.858227
C2    C     C_R   0.551896 0.046870 0.290103 -0.108315
C3    C     C_R   0.300001 0.809213 0.997653 -0.103951
C4    C     C_R   0.690350 0.200374 0.495569 -0.101262
C5    C     C_R   0.808119 0.699318 0.502857 -0.067590
C6    C     C_R   0.309154 0.799860 0.496929 -0.094489
C7    C     C_R   0.193936 0.302253 0.503227 -0.076467
C8    C     C_R   0.299064 0.189913 0.503493 -0.097708
C9    C     C_R   0.199426 0.691318 0.498310 -0.099543
C10   C     C_R   0.700306 0.809186 0.502991 -0.076658
C11   C     C_R   0.799914 0.308357 0.497175 -0.083579
C12   C     C_R   0.170673 0.773733 0.004964 -0.137559
C13   C     C_R   0.944269 0.460436 0.291183 -0.079899
C14   C     C_R   0.277381 0.222382 0.038607 -0.125803
C15   C     C_R   0.828906 0.226916 0.999916 -0.137027
C16   C     C_R   0.725032 0.779401 0.038542 -0.126710
C17   C     C_R   0.778529 0.722944 0.038767 -0.102414
C18   C     C_R   0.774119 0.171919 0.000657 -0.129988
C19   C     C_R   0.222512 0.277573 0.038498 -0.102683
C20   C     C_R   0.226247 0.827832 0.006797 -0.135723
C21   C     C_R   0.670314 0.273993 0.502848 -0.132035
C22   C     C_R   0.776422 0.721433 0.538586 -0.124898
C23   C     C_R   0.328324 0.726968 0.506945 -0.139419
C24   C     C_R   0.452039 0.957309 0.290062 -0.082670
C25   C     C_R   0.231012 0.284204 0.538408 -0.127182
C26   C     C_R   0.282079 0.225836 0.538742 -0.107445
C27   C     C_R   0.272919 0.672783 0.508199 -0.145627
C28   C     C_R   0.722120 0.777214 0.538708 -0.104044
C29   C     C_R   0.725749 0.328037 0.504204 -0.134723
C30   C     C_3   0.374731 0.688385 0.973073 -0.277852
C31   C     C_3   0.219841 0.279553 0.927087 -0.300370
C32   C     C_3   0.618778 0.317378 0.992468 -0.273722
C33   C     C_3   0.775620 0.714315 0.927352 -0.285296
C34   C     C_3   0.716073 0.776035 0.926946 -0.281890
C35   C     C_R   0.501764 0.998265 0.770688 -0.017481
C36   C     C_3   0.678820 0.378370 0.995494 -0.296152
C37   C     C_3   0.280826 0.219235 0.926982 -0.272509
C38   C     C_3   0.313617 0.628341 0.971547 -0.291699
C39   C     C_3   0.876128 0.183311 0.487684 -0.287137
C40   C     C_3   0.722372 0.784473 0.427173 -0.284735
C41   C     C_3   0.125035 0.812808 0.473754 -0.279498
C42   C     C_3   0.271871 0.210788 0.428008 -0.299740
C43   C     C_3   0.213382 0.273361 0.427662 -0.271964
C44   C     C_3   0.186999 0.871707 0.470764 -0.280950
C45   C     C_3   0.782313 0.723071 0.426717 -0.283668
C46   C     C_R   0.000807 0.498700 0.769210 0.002777
C47   C     C_3   0.814964 0.123722 0.488658 -0.305550
C48   C     C_R   0.438337 0.975534 0.831724 -0.081746
C49   C     C_R   0.942457 0.465132 0.830172 -0.072384
C50   C     C_R   0.563364 0.023277 0.832103 -0.056256
C51   C     C_R   0.058082 0.531905 0.830332 -0.062556
C52   C     C_R   0.941280 0.466214 0.332024 -0.053660
C53   C     C_R   0.446136 0.964615 0.330452 -0.069287
C54   C     C_R   0.057312 0.532758 0.331589 -0.070755
C55   C     C_R   0.552455 0.045187 0.331232 -0.065442
C56   C     C_R   0.500392 0.999972 0.852084 -0.210404
C57   C     C_R   0.997390 0.501169 0.270709 -0.015464
C58   C     C_R   0.999947 0.498985 0.850989 -0.207875
C59   C     C_R   0.999556 0.499692 0.352039 -0.216393
C60   C     C_R   0.499561 0.003586 0.351297 -0.196476
C61   C     C_2   0.092440 0.795301 0.009074 0.967088
C62   C     C_2   0.305014 0.191539 0.075575 0.952833
C63   C     C_2   0.907570 0.206036 0.000802 0.969186
C64   C     C_2   0.701411 0.813495 0.075291 0.975329
C65   C     C_2   0.809432 0.695295 0.075902 0.930184
C66   C     C_2   0.796116 0.094362 0.001402 0.988445
C67   C     C_2   0.191929 0.305873 0.075397 0.941069
C68   C     C_R   0.503129 0.000489 0.269715 0.003979
C69   C     C_2   0.205845 0.904076 0.015302 1.022294
C70   C     C_2   0.592295 0.295116 0.508048 0.974048
C71   C     C_2   0.802617 0.689046 0.575434 0.960012
C72   C     C_2   0.406208 0.705629 0.512451 0.965657
C73   C     C_2   0.218624 0.325359 0.574791 0.966970
C74   C     C_2   0.317676 0.202746 0.575602 0.983750
C75   C     C_2   0.293263 0.596444 0.516794 1.016294
C76   C     C_2   0.691515 0.805129 0.575721 0.941789
C77   C     C_2   0.705200 0.404775 0.511250 1.005710
C78   C     C_2   0.408091 0.707685 0.934124 1.000749
C79   C     C_R   0.616040 0.066771 0.770187 0.366822
C80   C     C_2   0.141521 0.252878 0.922119 0.933178
C81   C     C_2   0.576477 0.315958 0.954596 0.980402
C82   C     C_2   0.854282 0.738415 0.920514 0.925842
C83   C     C_2   0.744330 0.851161 0.916560 0.953194
C84   C     C_2   0.682243 0.429364 0.961125 0.983156
C85   C     C_2   0.253918 0.142882 0.918144 0.947829
C86   C     C_2   0.294187 0.604746 0.930745 0.984205
C87   C     C_2   0.923359 0.184364 0.451488 0.957338
C88   C     C_2   0.643767 0.759880 0.420582 0.918343
C89   C     C_2   0.089794 0.792959 0.435359 0.986857
C90   C     C_R   0.104577 0.582264 0.768778 0.340881
C91   C     C_2   0.350549 0.233440 0.419920 0.928969
C92   C     C_2   0.242548 0.348018 0.416683 0.948082
C93   C     C_2   0.206777 0.890637 0.429311 0.975195
C94   C     C_2   0.754503 0.647594 0.416659 0.947864
C95   C     C_2   0.816708 0.071757 0.454635 1.022896
C96   C     C_2   0.433373 0.678409 0.003745 0.925636
C97   C     C_2   0.236873 0.344971 0.901835 0.996239
C98   C     C_2   0.567739 0.309934 0.026790 0.930379
C99   C     C_2   0.755360 0.646968 0.904253 0.993699
C100  C     C_2   0.646455 0.758772 0.904670 0.939193
C101  C     C_R   0.389696 0.926336 0.770376 0.394215
C102  C     C_2   0.682227 0.418910 0.033885 0.920878
C103  C     C_2   0.349231 0.236798 0.903711 0.932951
C104  C     C_2   0.322332 0.565580 0.999944 0.964520
C105  C     C_2   0.922363 0.186993 0.524005 0.957011
C106  C     C_2   0.741896 0.852339 0.404228 0.993859
C107  C     C_2   0.067959 0.825232 0.504979 0.928259
C108  C     C_2   0.249646 0.142978 0.405849 1.002395
C109  C     C_2   0.142961 0.256628 0.405971 0.938278
C110  C     C_2   0.179568 0.937330 0.497222 0.967445
C111  C     C_2   0.851372 0.740819 0.404171 0.938423
C112  C     C_R   0.499930 0.000030 0.894407 0.862859
C113  C     C_R   0.899639 0.412085 0.768364 0.391729
C114  C     C_2   0.803215 0.084468 0.527176 0.923109
C115  C     C_2   0.367000 0.966494 0.852120 0.950611
C116  C     C_2   0.874384 0.441219 0.849658 1.035764
C117  C     C_2   0.632934 0.034240 0.853807 0.950447
C118  C     C_2   0.126547 0.552165 0.850238 1.053116
C119  C     C_2   0.874362 0.444292 0.353465 0.960331
C120  C     C_2   0.377908 0.941405 0.349631 1.046961
C121  C     C_2   0.128216 0.548521 0.351300 0.977990
C122  C     C_2   0.606637 0.088333 0.353472 1.016331
C123  C     C_3   0.647120 0.177020 0.794907 0.072215
C124  C     C_R   0.096657 0.589724 0.270501 0.357711
C125  C     C_3   0.704475 0.216158 0.819262 -0.298041
C126  C     C_3   0.682979 0.294926 0.827103 -0.856856
C127  C     C_3   0.120292 0.699365 0.788136 0.099868
C128  C     C_3   0.176573 0.752993 0.803805 -0.309963
C129  C     C_3   0.146889 0.830627 0.804234 -0.863811
C130  C     C_3   0.374769 0.817654 0.802297 0.092611
C131  C     C_3   0.390686 0.763942 0.769331 -0.393894
C132  C     C_3   0.416259 0.690671 0.785172 -0.913293
C133  C     C_3   0.898686 0.298845 0.796313 0.101500
C134  C     C_3   0.902021 0.244479 0.762726 -0.371714
C135  C     C_R   0.598551 0.093340 0.268381 0.383659
C136  C     C_3   0.935247 0.172148 0.775556 -0.920762
C137  C     C_3   0.101360 0.704594 0.294592 0.091287
C138  C     C_3   0.153394 0.763729 0.308779 -0.350508
C139  C     C_3   0.113151 0.835346 0.315733 -0.879765
C140  C     C_3   0.594663 0.210683 0.290864 0.099393
C141  C     C_3   0.590840 0.257727 0.254270 -0.363929
C142  C     C_3   0.553811 0.330578 0.262356 -0.927945
C143  C     C_3   0.884645 0.300154 0.292751 0.092554
C144  C     C_3   0.833128 0.245962 0.312119 -0.301171
C145  C     C_3   0.870632 0.172490 0.318011 -0.902644
C146  C     C_R   0.895458 0.415475 0.270160 0.357065
C147  C     C_3   0.407515 0.793798 0.293532 0.093887
C148  C     C_3   0.361855 0.736063 0.314126 -0.315636
C149  C     C_3   0.407320 0.668645 0.323578 -0.858641
C150  C     C_3   0.215592 0.602724 0.210548 0.164231
C151  C     C_3   0.272731 0.662755 0.207309 -0.318469
C152  C     C_3   0.350259 0.632219 0.208851 -0.953110
C153  C     C_3   0.720827 0.074126 0.202304 0.166772
C154  C     C_3   0.779615 0.081903 0.233554 -0.374623
C155  C     C_3   0.847416 0.037078 0.223660 -0.931915
C156  C     C_3   0.784043 0.423628 0.197839 0.159950
C157  C     C_R   0.406649 0.908564 0.269324 0.333085
C158  C     C_3   0.727587 0.437038 0.229811 -0.355462
C159  C     C_3   0.660983 0.477747 0.214189 -0.944210
C160  C     C_3   0.283002 0.913058 0.210705 0.173601
C161  C     C_3   0.219997 0.864317 0.198003 -0.343921
C162  C     C_3   0.147651 0.905769 0.198078 -0.923808
C163  C     C_3   0.726842 0.045348 0.699779 0.162323
C164  C     C_3   0.786778 0.038185 0.730570 -0.345570
C165  C     C_3   0.851014 0.992855 0.715917 -0.942021
C166  C     C_3   0.221467 0.569229 0.700378 0.174987
C167  C     C_3   0.278673 0.567541 0.732771 -0.377703
C168  C     C_R   0.096932 0.589774 0.230024 0.368200
C169  C     C_3   0.347494 0.526953 0.720161 -0.928446
C170  C     C_3   0.269090 0.947183 0.711419 0.173155
C171  C     C_3   0.205425 0.913915 0.689005 -0.351103
C172  C     C_3   0.138327 0.963445 0.689947 -0.937068
C173  C     C_3   0.781779 0.424023 0.700155 0.190048
C174  C     C_3   0.719166 0.411286 0.728645 -0.385434
C175  C     C_3   0.650916 0.453987 0.717057 -0.921371
C176  C     C_3   0.033282 0.670727 0.149727 0.172648
C177  C     C_3   0.074119 0.732157 0.129411 -0.313789
C178  C     C_3   0.026622 0.800352 0.126483 -0.859996
C179  C     C_R   0.606291 0.083472 0.228687 0.410871
C180  C     C_3   0.564054 0.159540 0.142887 0.140943
C181  C     C_3   0.623254 0.215460 0.133269 -0.254365
C182  C     C_3   0.593937 0.293154 0.135844 -0.913794
C183  C     C_3   0.949382 0.331490 0.149583 0.170451
C184  C     C_3   0.903006 0.276513 0.127341 -0.311446
C185  C     C_3   0.937362 0.200813 0.128112 -0.880113
C186  C     C_3   0.449444 0.840674 0.141574 0.125577
C187  C     C_3   0.398386 0.782862 0.125157 -0.283499
C188  C     C_3   0.437936 0.710065 0.120845 -0.861592
C189  C     C_3   0.577826 0.157220 0.648716 0.148824
C190  C     C_R   0.894053 0.417414 0.229705 0.389433
C191  C     C_3   0.633858 0.203515 0.627120 -0.296217
C192  C     C_3   0.614958 0.284283 0.629317 -0.875216
C193  C     C_3   0.065006 0.658023 0.642996 0.131747
C194  C     C_3   0.120961 0.709831 0.625251 -0.281861
C195  C     C_3   0.092946 0.788057 0.625408 -0.895254
C196  C     C_3   0.422895 0.841238 0.648925 0.176558
C197  C     C_3   0.364296 0.793912 0.629966 -0.319745
C198  C     C_3   0.380834 0.713093 0.635197 -0.878724
C199  C     C_3   0.941625 0.333598 0.649049 0.155833
C200  C     C_3   0.999714 0.320163 0.618048 -0.385175
C201  C     C_R   0.401996 0.912777 0.229209 0.388900
C202  C     C_3   0.025512 0.241173 0.618951 -0.829236
C203  C     C_R   0.616677 0.065460 0.729736 0.389148
C204  C     C_R   0.499855 0.000989 0.394082 0.871516
C205  C     C_R   0.108279 0.578006 0.728602 0.400867
C206  C     C_R   0.386985 0.930106 0.730023 0.370637
C207  C     C_R   0.895347 0.417449 0.728298 0.396415
C208  C     C_R   0.045596 0.547795 0.209340 -0.134125
C209  C     C_R   0.554678 0.041853 0.208078 -0.165162
C210  C     C_R   0.948147 0.456302 0.209136 -0.156317
C211  C     C_R   0.452323 0.955432 0.208391 -0.143506
C212  C     C_R   0.557361 0.035085 0.709063 -0.148940
C213  C     C_R   0.054051 0.539935 0.707913 -0.155305
C214  C     C_R   0.445026 0.962050 0.709187 -0.146214
C215  C     C_R   0.999990 0.499945 0.394381 0.839042
C216  C     C_R   0.948720 0.456978 0.707768 -0.175827
C217  C     C_R   0.997194 0.501564 0.229739 -0.157918
C218  C     C_R   0.503499 0.999131 0.228724 -0.164884
C219  C     C_R   0.501483 0.998349 0.729646 -0.158869
C220  C     C_R   0.001054 0.498725 0.728309 -0.157685
C221  C     C_R   0.039892 0.552569 0.168682 0.383569
C222  C     C_R   0.550968 0.044649 0.167344 0.393960
C223  C     C_R   0.955376 0.450183 0.168496 0.367563
C224  C     C_R   0.453870 0.953885 0.167689 0.399795
C225  C     C_R   0.551704 0.041619 0.668328 0.367621
C226  C     C_R   0.561026 0.029658 0.791199 -0.075331
C227  C     C_R   0.050184 0.543821 0.667299 0.378527
C228  C     C_R   0.449108 0.957008 0.668365 0.383913
C229  C     C_R   0.953081 0.453288 0.667131 0.416903
C230  C     C_R   0.998829 0.500497 0.148344 -0.281086
C231  C     C_R   0.501167 0.000219 0.147633 -0.278317
C232  C     C_R   0.500039 0.999707 0.648226 -0.267667
C233  C     C_R   0.000591 0.499722 0.647438 -0.258929
C234  C     C_R   0.999777 0.500058 0.105802 0.916888
C235  C     C_R   0.500191 0.000503 0.105583 0.864598
C236  C     C_R   0.499854 0.999942 0.605756 0.929192
C237  C     C_R   0.054572 0.538314 0.789672 -0.082412
C238  C     C_R   0.000107 0.500360 0.605512 0.862554
C239  C     C_R   0.859398 0.639124 0.000394 0.865636
C240  C     C_R   0.359154 0.861244 0.999453 0.869312
C241  C     C_R   0.140283 0.360460 0.000180 0.864495
C242  C     C_R   0.640760 0.138823 0.999416 0.878562
C243  C     C_R   0.138700 0.640963 0.999028 0.895036
C244  C     C_R   0.639349 0.859589 0.000551 0.883140
C245  C     C_R   0.860178 0.360052 0.999848 0.897257
C246  C     C_R   0.360929 0.140557 0.000616 0.901886
C247  C     C_R   0.359263 0.138931 0.500519 0.871051
C248  C     C_R   0.442778 0.966504 0.791148 -0.083240
C249  C     C_R   0.859341 0.360696 0.499629 0.856691
C250  C     C_R   0.640481 0.860747 0.500369 0.863751
C251  C     C_R   0.140604 0.639015 0.499655 0.875424
C252  C     C_R   0.639012 0.140692 0.499261 0.853890
C253  C     C_R   0.139595 0.359734 0.500705 0.844006
C254  C     C_R   0.361245 0.859053 0.499128 0.889142
C255  C     C_R   0.860680 0.640397 0.500475 0.892474
C256  C     C_R   0.262219 0.686912 0.985269 0.022226
C257  C     C_R   0.289967 0.237052 0.969381 0.060856
C258  C     C_R   0.733610 0.317027 0.993321 0.030754
C259  C     C_R   0.947351 0.458273 0.789498 -0.100953
C260  C     C_R   0.708514 0.761151 0.969807 0.063195
C261  C     C_R   0.759236 0.706954 0.969978 0.032170
C262  C     C_R   0.682079 0.264696 0.992571 0.043852
C263  C     C_R   0.238632 0.290756 0.969264 0.027244
C264  C     C_R   0.314132 0.738804 0.985575 0.064382
C265  C     C_R   0.761501 0.185718 0.483606 0.030076
C266  C     C_R   0.790373 0.738060 0.469552 0.061113
C267  C     C_R   0.237380 0.813539 0.486000 0.024625
C268  C     C_R   0.206517 0.259502 0.470708 0.067818
C269  C     C_R   0.256879 0.204802 0.470861 0.021272
C270  C     C_R   0.051001 0.541390 0.291117 -0.067194
C271  C     C_R   0.185209 0.761963 0.486563 0.056904
C272  C     C_R   0.739294 0.791792 0.469730 0.038168
C273  C     C_R   0.814357 0.237725 0.484666 0.075017
C274  C     C_R   0.190378 0.700481 0.996121 -0.096721
C275  C     C_R   0.308428 0.199463 0.002916 -0.068658
C276  C     C_R   0.807565 0.301438 0.997556 -0.083001
C277  C     C_R   0.692192 0.800836 0.002938 -0.075848
C278  C     C_R   0.799273 0.690300 0.003108 -0.087206
C279  C     C_R   0.698981 0.191763 0.997800 -0.104222
C280  C     C_R   0.199976 0.308602 0.002651 -0.093949
H1    H     H_    0.016471 0.853436 0.037960 0.361691
H2    H     H_    0.887369 0.671449 0.611490 0.325086
H3    H     H_    0.900647 0.277996 0.263920 0.148790
H4    H     H_    0.815488 0.267500 0.340686 0.266693
H5    H     H_    0.783782 0.238539 0.293727 0.240217
H6    H     H_    0.889721 0.150476 0.289886 0.257299
H7    H     H_    0.831716 0.133358 0.331021 0.287095
H8    H     H_    0.918351 0.178163 0.337631 0.270116
H9    H     H_    0.456119 0.806419 0.311824 0.168390
H10   H     H_    0.426176 0.771318 0.265235 0.145452
H11   H     H_    0.339263 0.758800 0.341413 0.270291
H12   H     H_    0.315536 0.719938 0.295293 0.222771
H13   H     H_    0.481901 0.655343 0.545561 0.363713
H14   H     H_    0.430383 0.644817 0.296685 0.254730
H15   H     H_    0.372161 0.627366 0.337773 0.274904
H16   H     H_    0.452651 0.682832 0.343599 0.286695
H17   H     H_    0.219820 0.566184 0.185000 0.161273
H18   H     H_    0.227891 0.570341 0.237165 0.160604
H19   H     H_    0.265475 0.701272 0.231713 0.231360
H20   H     H_    0.264721 0.692964 0.179744 0.220068
H21   H     H_    0.358640 0.600217 0.235787 0.272267
H22   H     H_    0.389865 0.677819 0.208762 0.268612
H23   H     H_    0.360683 0.596946 0.183355 0.275196
H24   H     H_    0.184378 0.323187 0.630202 0.343375
H25   H     H_    0.744612 0.090796 0.174085 0.186950
H26   H     H_    0.704892 0.015808 0.199084 0.136341
H27   H     H_    0.757693 0.063243 0.261838 0.264757
H28   H     H_    0.795165 0.140081 0.236190 0.243889
H29   H     H_    0.888614 0.042538 0.247079 0.271216
H30   H     H_    0.871921 0.056558 0.196141 0.271308
H31   H     H_    0.832984 0.978696 0.220746 0.280442
H32   H     H_    0.756538 0.395825 0.173288 0.183692
H33   H     H_    0.804475 0.476490 0.186291 0.137468
H34   H     H_    0.752527 0.469826 0.253339 0.258066
H35   H     H_    0.344285 0.119939 0.611389 0.337443
H36   H     H_    0.709912 0.384179 0.242144 0.253115
H37   H     H_    0.677593 0.531042 0.201904 0.276162
H38   H     H_    0.621582 0.487564 0.238055 0.282038
H39   H     H_    0.633503 0.445183 0.191370 0.264370
H40   H     H_    0.287676 0.959464 0.190111 0.170137
H41   H     H_    0.269802 0.934572 0.240105 0.156745
H42   H     H_    0.215602 0.817709 0.218274 0.223930
H43   H     H_    0.230748 0.842928 0.168461 0.234960
H44   H     H_    0.137110 0.929733 0.227054 0.265333
H45   H     H_    0.102502 0.867852 0.191263 0.268520
H46   H     H_    0.319166 0.521633 0.557268 0.380290
H47   H     H_    0.148529 0.949741 0.176014 0.286861
H48   H     H_    0.752115 0.064421 0.672368 0.188179
H49   H     H_    0.702585 0.990973 0.693392 0.124741
H50   H     H_    0.764081 0.011655 0.756812 0.271531
H51   H     H_    0.806650 0.093161 0.738648 0.249397
H52   H     H_    0.832381 0.937472 0.707808 0.278190
H53   H     H_    0.892881 0.987957 0.739085 0.279506
H54   H     H_    0.876415 0.019361 0.690365 0.266879
H55   H     H_    0.247474 0.591121 0.673765 0.186131
H56   H     H_    0.203427 0.512829 0.693235 0.137656
H57   H     H_    0.669721 0.892594 0.609088 0.335471
H58   H     H_    0.255685 0.539953 0.758631 0.264800
H59   H     H_    0.293331 0.624119 0.740816 0.249278
H60   H     H_    0.386970 0.524824 0.744576 0.276550
H61   H     H_    0.373633 0.555328 0.695399 0.271746
H62   H     H_    0.333842 0.470400 0.711553 0.280517
H63   H     H_    0.284419 0.999534 0.697281 0.142549
H64   H     H_    0.250827 0.958033 0.741644 0.177055
H65   H     H_    0.191154 0.860364 0.701880 0.227447
H66   H     H_    0.221966 0.905201 0.658412 0.245964
H67   H     H_    0.119418 0.971130 0.720220 0.266987
H68   H     H_    0.693823 0.486160 0.549857 0.367793
H69   H     H_    0.093356 0.938569 0.672968 0.272316
H70   H     H_    0.151378 0.017246 0.677076 0.280876
H71   H     H_    0.762782 0.409060 0.670657 0.196263
H72   H     H_    0.795709 0.483152 0.699059 0.127976
H73   H     H_    0.736307 0.428561 0.758082 0.268710
H74   H     H_    0.705855 0.352341 0.729428 0.234205
H75   H     H_    0.662629 0.513230 0.716762 0.283453
H76   H     H_    0.606629 0.443412 0.738264 0.271537
H77   H     H_    0.631862 0.436951 0.687908 0.273743
H78   H     H_    0.022453 0.687872 0.180136 0.131317
H79   H     H_    0.412189 0.776123 0.888530 0.337379
H80   H     H_    0.979770 0.662315 0.134991 0.157321
H81   H     H_    0.124625 0.744912 0.145974 0.228208
H82   H     H_    0.090128 0.714679 0.099803 0.254462
H83   H     H_    0.980897 0.791146 0.105902 0.301804
H84   H     H_    0.060095 0.846543 0.115945 0.301179
H85   H     H_    0.003664 0.814905 0.155202 0.248211
H86   H     H_    0.535967 0.176797 0.170022 0.118811
H87   H     H_    0.523310 0.158797 0.119000 0.145123
H88   H     H_    0.669772 0.210079 0.153738 0.242173
H89   H     H_    0.644586 0.204975 0.103701 0.252121
H90   H     H_    0.063071 0.183088 0.939327 0.385011
H91   H     H_    0.543860 0.299562 0.117997 0.291320
H92   H     H_    0.636053 0.331767 0.125314 0.277685
H93   H     H_    0.580674 0.306785 0.166348 0.250020
H94   H     H_    0.955022 0.312482 0.180074 0.139493
H95   H     H_    0.004809 0.333805 0.136318 0.158041
H96   H     H_    0.847589 0.273857 0.140454 0.234071
H97   H     H_    0.897140 0.294548 0.096776 0.255521
H98   H     H_    0.992162 0.201829 0.114294 0.296518
H99   H     H_    0.902048 0.162380 0.111895 0.296650
H100  H     H_    0.942724 0.181163 0.158408 0.250625
H101  H     H_    0.561020 0.269737 0.902276 0.352778
H102  H     H_    0.472657 0.819875 0.169384 0.134843
H103  H     H_    0.494557 0.849609 0.120593 0.125402
H104  H     H_    0.350973 0.775801 0.144844 0.233053
H105  H     H_    0.377641 0.800817 0.096418 0.248217
H106  H     H_    0.486160 0.715889 0.101620 0.309151
H107  H     H_    0.400139 0.669277 0.108240 0.284703
H108  H     H_    0.457062 0.690094 0.149437 0.244123
H109  H     H_    0.573974 0.177135 0.679094 0.146064
H110  H     H_    0.523414 0.164263 0.634702 0.155953
H111  H     H_    0.688919 0.194686 0.639991 0.248259
H112  H     H_    0.391682 0.173370 0.110308 0.325588
H113  H     H_    0.936830 0.805006 0.935889 0.383415
H114  H     H_    0.635776 0.186562 0.596266 0.250396
H115  H     H_    0.559952 0.294513 0.616756 0.292872
H116  H     H_    0.655885 0.316059 0.612723 0.304526
H117  H     H_    0.615742 0.302950 0.659889 0.247000
H118  H     H_    0.048203 0.679744 0.671806 0.142275
H119  H     H_    0.016365 0.655736 0.623695 0.123031
H120  H     H_    0.172759 0.707252 0.642081 0.234684
H121  H     H_    0.132775 0.692922 0.594997 0.243329
H122  H     H_    0.040174 0.792087 0.609615 0.306190
H123  H     H_    0.133489 0.824015 0.611141 0.280555
H124  H     H_    0.768437 0.953225 0.933261 0.373236
H125  H     H_    0.084826 0.806842 0.655636 0.245608
H126  H     H_    0.431015 0.822274 0.679258 0.138389
H127  H     H_    0.475311 0.833728 0.633092 0.154441
H128  H     H_    0.310255 0.805887 0.643188 0.236583
H129  H     H_    0.361116 0.806768 0.598557 0.240027
H130  H     H_    0.435395 0.699610 0.623058 0.298324
H131  H     H_    0.338752 0.680479 0.619913 0.298533
H132  H     H_    0.379819 0.698455 0.666412 0.245879
H133  H     H_    0.896259 0.294377 0.644707 0.200289
H134  H     H_    0.965224 0.321647 0.678130 0.113711
H135  H     H_    0.724416 0.452020 0.908995 0.361988
H136  H     H_    0.976841 0.333305 0.589085 0.254223
H137  H     H_    0.047473 0.355952 0.623255 0.205114
H138  H     H_    0.055900 0.230052 0.646192 0.263949
H139  H     H_    0.062178 0.230746 0.594002 0.286523
H140  H     H_    0.978287 0.203532 0.617101 0.267991
H141  H     H_    0.231670 0.041574 0.936857 0.377474
H142  H     H_    0.266843 0.639627 0.877031 0.338187
H143  H     H_    0.946554 0.231593 0.400148 0.357651
H144  H     H_    0.561652 0.693215 0.436475 0.381246
H145  H     H_    0.084028 0.724516 0.389979 0.348606
H146  H     H_    0.435125 0.298597 0.433862 0.383724
H147  H     H_    0.272622 0.448749 0.433163 0.376439
H148  H     H_    0.987213 0.145608 0.025494 0.366878
H149  H     H_    0.242312 0.850009 0.378231 0.337138
H150  H     H_    0.729247 0.546175 0.434136 0.374356
H151  H     H_    0.776533 0.042973 0.402805 0.370833
H152  H     H_    0.521406 0.621329 0.021853 0.367342
H153  H     H_    0.249433 0.383525 0.847549 0.371701
H154  H     H_    0.485280 0.354156 0.057689 0.344635
H155  H     H_    0.742331 0.601944 0.851487 0.365085
H156  H     H_    0.596517 0.752352 0.852675 0.341522
H157  H     H_    0.638130 0.496274 0.068131 0.346182
H158  H     H_    0.397367 0.240025 0.851215 0.339348
H159  H     H_    0.621733 0.826374 0.114752 0.324831
H160  H     H_    0.374642 0.471959 0.013135 0.369287
H161  H     H_    0.000905 0.138366 0.556188 0.334709
H162  H     H_    0.750008 0.899834 0.351751 0.350462
H163  H     H_    0.981786 0.884722 0.523226 0.364790
H164  H     H_    0.231141 0.097170 0.353744 0.369629
H165  H     H_    0.091235 0.250804 0.354446 0.335271
H166  H     H_    0.129540 0.033410 0.507370 0.366279
H167  H     H_    0.899737 0.749427 0.351914 0.338538
H168  H     H_    0.794871 0.989023 0.555770 0.361600
H169  H     H_    0.258774 0.987895 0.852376 0.362594
H170  H     H_    0.833931 0.607975 0.108985 0.330795
H171  H     H_    0.764081 0.444810 0.848536 0.334980
H172  H     H_    0.739976 0.009326 0.858659 0.360194
H173  H     H_    0.233917 0.529167 0.857146 0.361382
H174  H     H_    0.765868 0.458355 0.360723 0.353210
H175  H     H_    0.269157 0.958929 0.354692 0.349669
H176  H     H_    0.237976 0.537038 0.350495 0.353234
H177  H     H_    0.711678 0.117124 0.359480 0.361067
H178  H     H_    0.594038 0.178449 0.810768 0.139952
H179  H     H_    0.640991 0.205903 0.766706 0.156645
H180  H     H_    0.711484 0.187434 0.847338 0.267412
H181  H     H_    0.807013 0.002082 0.032481 0.370029
H182  H     H_    0.757521 0.214876 0.803774 0.225527
H183  H     H_    0.679372 0.325816 0.799571 0.256307
H184  H     H_    0.724958 0.320412 0.845862 0.293224
H185  H     H_    0.629443 0.297544 0.842124 0.265294
H186  H     H_    0.071558 0.699535 0.807454 0.164813
H187  H     H_    0.103656 0.717635 0.758591 0.151068
H188  H     H_    0.192546 0.736982 0.833683 0.259966
H189  H     H_    0.225925 0.751067 0.785199 0.233358
H190  H     H_    0.132743 0.848458 0.774407 0.252568
H191  H     H_    0.189159 0.867834 0.815963 0.296470
H192  H     H_    0.171456 0.393547 0.108798 0.335100
H193  H     H_    0.097530 0.834106 0.822842 0.273844
H194  H     H_    0.337271 0.791365 0.823309 0.189472
H195  H     H_    0.426027 0.829494 0.818516 0.131144
H196  H     H_    0.340809 0.755982 0.751480 0.246835
H197  H     H_    0.434322 0.786178 0.750426 0.214073
H198  H     H_    0.465605 0.697728 0.803556 0.279630
H199  H     H_    0.430318 0.654073 0.760743 0.272174
H200  H     H_    0.372235 0.665067 0.802579 0.273017
H201  H     H_    0.871848 0.272353 0.821430 0.195833
H202  H     H_    0.955072 0.312878 0.806111 0.147725
H203  H     H_    0.194441 0.982675 0.055502 0.365609
H204  H     H_    0.846136 0.234865 0.751197 0.251413
H205  H     H_    0.936106 0.267244 0.739138 0.218076
H206  H     H_    0.990881 0.180686 0.787620 0.288998
H207  H     H_    0.939487 0.135070 0.750303 0.267756
H208  H     H_    0.900194 0.146145 0.797831 0.274801
H209  H     H_    0.057509 0.696481 0.316510 0.138393
H210  H     H_    0.076216 0.723585 0.266891 0.149951
H211  H     H_    0.180140 0.745832 0.336095 0.257077
H212  H     H_    0.196428 0.772778 0.286673 0.228960
H213  H     H_    0.086667 0.854394 0.288588 0.259768
H214  H     H_    0.517302 0.350772 0.538998 0.365501
H215  H     H_    0.152572 0.877399 0.325376 0.277062
H216  H     H_    0.070875 0.828448 0.338471 0.287606
H217  H     H_    0.620202 0.243142 0.314354 0.192667
H218  H     H_    0.538441 0.196877 0.300949 0.148894
H219  H     H_    0.646901 0.267309 0.243068 0.252594
H220  H     H_    0.558889 0.228966 0.231731 0.219361
H221  H     H_    0.497969 0.321925 0.274054 0.286515
H222  H     H_    0.549281 0.362101 0.235044 0.266805
H223  H     H_    0.586394 0.362489 0.283480 0.277974
H224  H     H_    0.934461 0.306017 0.311117 0.146150
O1    O     O_3   1.000000 0.500000 0.999990 -0.530962
O2    O     O_R   1.000000 0.560740 0.412560 -0.602286
O3    O     O_R   0.264858 0.655949 0.904959 -0.767829
O4    O     O_2   0.971661 0.138863 0.447415 -0.489003
O5    O     O_R   0.911318 0.236490 0.422599 -0.743792
O6    O     O_2   0.606526 0.787546 0.395031 -0.589230
O7    O     O_R   0.613660 0.705655 0.444072 -0.757996
O8    O     O_2   0.043522 0.833371 0.421398 -0.526687
O9    O     O_R   0.112344 0.731292 0.414942 -0.729313
O10   O     O_2   0.385479 0.204295 0.393998 -0.572362
O11   O     O_R   0.383360 0.287557 0.442421 -0.758458
O12   O     O_2   0.258079 0.360558 0.382901 -0.547840
O13   O     O_R   0.439260 0.000000 0.412560 -0.617380
O14   O     O_R   0.252993 0.401948 0.444615 -0.767098
O15   O     O_2   0.183146 0.946171 0.414357 -0.540307
O16   O     O_R   0.244677 0.839501 0.406927 -0.764589
O17   O     O_2   0.737072 0.634076 0.383240 -0.540555
O18   O     O_R   0.747830 0.593822 0.445039 -0.787886
O19   O     O_2   0.862760 0.023389 0.453669 -0.470554
O20   O     O_R   0.767390 0.079726 0.424089 -0.776167
O21   O     O_2   0.437611 0.720434 0.031029 -0.672291
O22   O     O_R   0.484443 0.622134 0.999959 -0.664030
O23   O     O_2   0.253614 0.403197 0.916318 -0.530576
O24   O     O_R   0.000000 0.439260 0.412560 -0.598985
O25   O     O_R   0.233903 0.337737 0.861581 -0.721939
O26   O     O_2   0.567343 0.254408 0.046230 -0.677040
O27   O     O_R   0.518051 0.365800 0.034884 -0.706925
O28   O     O_2   0.736030 0.591342 0.920650 -0.579935
O29   O     O_R   0.758373 0.649259 0.863835 -0.717678
O30   O     O_2   0.591247 0.739376 0.921677 -0.550623
O31   O     O_R   0.645760 0.765023 0.864325 -0.728718
O32   O     O_2   0.729793 0.404901 0.057728 -0.659430
O33   O     O_R   0.630527 0.473029 0.041837 -0.701651
O34   O     O_2   0.404254 0.259695 0.919702 -0.569943
O35   O     O_R   1.000000 0.560680 0.087420 -0.634213
O36   O     O_R   0.348972 0.226764 0.863590 -0.727959
O37   O     O_2   0.284812 0.562394 0.029192 -0.639798
O38   O     O_R   0.373768 0.511001 0.992390 -0.651523
O39   O     O_2   0.914069 0.235980 0.547449 -0.660928
O40   O     O_R   0.973768 0.132008 0.530887 -0.735706
O41   O     O_2   0.763466 0.907014 0.420723 -0.569386
O42   O     O_R   0.735638 0.851731 0.363887 -0.725720
O43   O     O_2   0.064535 0.784905 0.533083 -0.664424
O44   O     O_R   0.017638 0.882133 0.500907 -0.669445
O45   O     O_2   0.231862 0.087706 0.423072 -0.535425
O46   O     O_R   0.439320 0.000000 0.087420 -0.604370
O47   O     O_R   0.249116 0.144409 0.365389 -0.716843
O48   O     O_2   0.088353 0.237028 0.423423 -0.573532
O49   O     O_R   0.140896 0.263267 0.365654 -0.729441
O50   O     O_2   0.216708 0.942412 0.526573 -0.646602
O51   O     O_R   0.129606 0.992307 0.487824 -0.646806
O52   O     O_2   0.907283 0.758814 0.421014 -0.550746
O53   O     O_R   0.850743 0.736605 0.363759 -0.733591
O54   O     O_2   0.792115 0.119289 0.556799 -0.633741
O55   O     O_R   0.803745 0.008408 0.528704 -0.739624
O56   O     O_2   0.362826 0.930612 0.881837 -0.619368
O57   O     O_R   1.000000 0.439320 0.087420 -0.633326
O58   O     O_R   0.304139 0.998762 0.836591 -0.740933
O59   O     O_2   0.875901 0.393312 0.874245 -0.601449
O60   O     O_R   0.807813 0.470609 0.837224 -0.798029
O61   O     O_2   0.635599 0.076285 0.881164 -0.631623
O62   O     O_R   0.695745 0.996526 0.842347 -0.733285
O63   O     O_2   0.127929 0.603803 0.872494 -0.599937
O64   O     O_R   0.189857 0.512467 0.842019 -0.799052
O65   O     O_2   0.877004 0.396154 0.377863 -0.601946
O66   O     O_R   0.807765 0.477954 0.344652 -0.752800
O67   O     O_2   0.378502 0.891710 0.373160 -0.608549
O68   O     O_R   0.560680 0.000000 0.087420 -0.602707
O69   O     O_R   0.312787 0.976587 0.339562 -0.789863
O70   O     O_2   0.130236 0.583774 0.381225 -0.603910
O71   O     O_R   0.193236 0.522860 0.334910 -0.750369
O72   O     O_2   0.585891 0.134364 0.376574 -0.618996
O73   O     O_R   0.681235 0.077574 0.347077 -0.779280
O74   O     O_3   0.670850 0.104809 0.788799 -0.622683
O75   O     O_3   0.152107 0.629282 0.787251 -0.637863
O76   O     O_3   0.339526 0.881554 0.788649 -0.627593
O77   O     O_3   0.856006 0.360510 0.786218 -0.636731
O78   O     O_3   0.140981 0.639199 0.289459 -0.621552
O79   O     O_R   0.500000 0.060680 0.587420 -0.641829
O80   O     O_3   0.639259 0.148482 0.285048 -0.630308
O81   O     O_3   0.848624 0.367843 0.288698 -0.619283
O82   O     O_3   0.364340 0.856757 0.287797 -0.633496
O83   O     O_3   0.145404 0.635193 0.211105 -0.621060
O84   O     O_3   0.661334 0.121335 0.210133 -0.627174
O85   O     O_3   0.840815 0.377107 0.210947 -0.621647
O86   O     O_3   0.348661 0.872271 0.210789 -0.612245
O87   O     O_3   0.674686 0.098399 0.710947 -0.624402
O88   O     O_3   0.163028 0.616550 0.710059 -0.624930
O89   O     O_3   0.328613 0.898096 0.711133 -0.614978
O90   O     O_R   0.939320 0.500000 0.587420 -0.603075
O91   O     O_3   0.841553 0.378076 0.709487 -0.629507
O92   O     O_3   0.076203 0.606517 0.148416 -0.595640
O93   O     O_3   0.596739 0.089984 0.146367 -0.600680
O94   O     O_3   0.914617 0.400230 0.147705 -0.610868
O95   O     O_3   0.410053 0.906104 0.147148 -0.584383
O96   O     O_3   0.600458 0.083593 0.647362 -0.620074
O97   O     O_3   0.096880 0.588258 0.646445 -0.598077
O98   O     O_3   0.400148 0.914926 0.647501 -0.605246
O99   O     O_3   0.911442 0.404514 0.645907 -0.600196
O100  O     O_R   0.500000 0.939320 0.587420 -0.642119
O101  O     O_3   0.500000 0.000000 0.999990 -0.541087
O102  O     O_R   0.060680 0.500000 0.587420 -0.612658
O103  O     O_R   0.853840 0.585430 0.977070 -0.623948
O104  O     O_R   0.414570 0.853840 0.977070 -0.588502
O105  O     O_R   0.146160 0.414570 0.977070 -0.611471
O106  O     O_R   0.585430 0.146160 0.977070 -0.587211
O107  O     O_R   0.146160 0.585430 0.977070 -0.617446
O108  O     O_R   0.585430 0.853840 0.977070 -0.624232
O109  O     O_R   0.853840 0.414570 0.977070 -0.591782
O110  O     O_R   0.414570 0.146160 0.977070 -0.625618
O111  O     O_R   0.353840 0.085430 0.477070 -0.622333
O112  O     O_3   0.500000 1.000000 0.499990 -0.530525
O113  O     O_R   0.914570 0.353840 0.477070 -0.596581
O114  O     O_R   0.646160 0.914570 0.477070 -0.612991
O115  O     O_R   0.085430 0.646160 0.477070 -0.586736
O116  O     O_R   0.646160 0.085430 0.477070 -0.594838
O117  O     O_R   0.085430 0.353840 0.477070 -0.626627
O118  O     O_R   0.353840 0.914570 0.477070 -0.614717
O119  O     O_R   0.914570 0.646160 0.477070 -0.625178
O120  O     O_R   0.085450 0.353820 0.022910 -0.623672
O121  O     O_R   0.646180 0.085450 0.022910 -0.617648
O122  O     O_R   0.914550 0.646180 0.022910 -0.620985
O123  O     O_3   0.000000 0.500000 0.499990 -0.541283
O124  O     O_R   0.353820 0.914550 0.022910 -0.638815
O125  O     O_R   0.914550 0.353820 0.022910 -0.649843
O126  O     O_R   0.353820 0.085450 0.022910 -0.619660
O127  O     O_R   0.085450 0.646180 0.022910 -0.646833
O128  O     O_R   0.646180 0.914550 0.022910 -0.625063
O129  O     O_R   0.585450 0.853820 0.522910 -0.621534
O130  O     O_R   0.146180 0.585450 0.522910 -0.639484
O131  O     O_R   0.414550 0.146180 0.522910 -0.618525
O132  O     O_R   0.853820 0.414550 0.522910 -0.621270
O133  O     O_R   0.414550 0.853820 0.522910 -0.649269
O134  O     O_R   0.060740 0.500000 0.912560 -0.618852
O135  O     O_R   0.853820 0.585450 0.522910 -0.623714
O136  O     O_R   0.585450 0.146180 0.522910 -0.647030
O137  O     O_R   0.146180 0.414550 0.522910 -0.602951
O138  O     O_2   0.047094 0.772529 0.986079 -0.612935
O139  O     O_R   0.070824 0.842513 0.038611 -0.796125
O140  O     O_2   0.263613 0.159427 0.097399 -0.562517
O141  O     O_R   0.379261 0.197167 0.084638 -0.826209
O142  O     O_2   0.950235 0.233600 0.977908 -0.619047
O143  O     O_R   0.932715 0.154892 0.027715 -0.784540
O144  O     O_2   0.742768 0.854109 0.092697 -0.558519
O145  O     O_R   0.500000 0.060740 0.912560 -0.603770
O146  O     O_R   0.631084 0.800551 0.089321 -0.834947
O147  O     O_2   0.834584 0.737416 0.099766 -0.611888
O148  O     O_R   0.810682 0.620434 0.083142 -0.806450
O149  O     O_2   0.821627 0.066415 0.972300 -0.616086
O150  O     O_R   0.790051 0.054290 0.035642 -0.731193
O151  O     O_2   0.161801 0.264827 0.098153 -0.589314
O152  O     O_R   0.195473 0.380353 0.083303 -0.800752
O153  O     O_2   0.184913 0.943801 0.989145 -0.605810
O154  O     O_R   0.209682 0.929778 0.053309 -0.743148
O155  O     O_2   0.546068 0.272877 0.485403 -0.606197
O156  O     O_R   0.939260 0.500000 0.912560 -0.610432
O157  O     O_R   0.571812 0.340660 0.538567 -0.787277
O158  O     O_2   0.760891 0.654014 0.595764 -0.562323
O159  O     O_R   0.875946 0.696502 0.586035 -0.824441
O160  O     O_2   0.451650 0.722696 0.488178 -0.612428
O161  O     O_R   0.427525 0.666163 0.545165 -0.778888
O162  O     O_2   0.240646 0.387826 0.577769 -0.564859
O163  O     O_R   0.187613 0.290441 0.606665 -0.826683
O164  O     O_2   0.347413 0.247563 0.596436 -0.612187
O165  O     O_R   0.317783 0.129233 0.586055 -0.792386
O166  O     O_2   0.297360 0.552256 0.490477 -0.600529
O167  O     O_R   0.500000 0.939260 0.912560 -0.608300
O168  O     O_R   0.306134 0.575100 0.555038 -0.748628
O169  O     O_2   0.663281 0.763549 0.598880 -0.581828
O170  O     O_R   0.693234 0.879769 0.583408 -0.824257
O171  O     O_2   0.683627 0.442461 0.484394 -0.615784
O172  O     O_R   0.709270 0.433203 0.548697 -0.734654
O173  O     O_2   0.452831 0.666516 0.919507 -0.529641
O174  O     O_R   0.385783 0.770084 0.914103 -0.731506
O175  O     O_2   0.102033 0.278742 0.896980 -0.582327
O176  O     O_R   0.114432 0.198507 0.946530 -0.760988
O177  O     O_2   0.527107 0.359843 0.949184 -0.494647
O178  O     O_R   0.560740 0.000000 0.412560 -0.615034
O179  O     O_R   0.594106 0.265559 0.925732 -0.753479
O180  O     O_2   0.891082 0.710251 0.895015 -0.581051
O181  O     O_R   0.884925 0.792767 0.943708 -0.762733
O182  O     O_2   0.763456 0.863472 0.883285 -0.540671
O183  O     O_R   0.749527 0.905922 0.944427 -0.799817
O184  O     O_2   0.641602 0.482272 0.959754 -0.474851
O185  O     O_R   0.729035 0.414442 0.930219 -0.755398
O186  O     O_2   0.234734 0.128012 0.885166 -0.548766
O187  O     O_R   0.249753 0.089936 0.947082 -0.785356
O188  O     O_2   0.309314 0.543585 0.919495 -0.528600
Zn1   Zn    Zn3+2 0.000000 0.586730 0.032740 1.038071
Zn2   Zn    Zn3+2 0.500000 0.913250 0.967240 1.067339
Zn3   Zn    Zn3+2 0.086750 0.500000 0.967240 1.094474
Zn4   Zn    Zn3+2 0.500000 0.086750 0.967240 1.076198
Zn5   Zn    Zn3+2 0.413250 0.000000 0.467240 1.092199
Zn6   Zn    Zn3+2 0.000000 0.413250 0.467240 1.056607
Zn7   Zn    Zn3+2 0.586750 0.000000 0.467240 1.092745
Zn8   Zn    Zn3+2 1.000000 0.586750 0.467240 1.069973
Zn9   Zn    Zn3+2 0.413270 1.000000 0.032740 1.055502
Zn10  Zn    Zn3+2 1.000000 0.413270 0.032740 1.042352
Zn11  Zn    Zn3+2 0.586730 1.000000 0.032740 1.059144
Zn12  Zn    Zn3+2 0.500000 0.086730 0.532740 1.041311
Zn13  Zn    Zn3+2 0.913270 0.500000 0.532740 1.045112
Zn14  Zn    Zn3+2 0.500000 0.913270 0.532740 1.039931
Zn15  Zn    Zn3+2 0.086730 0.500000 0.532740 1.048831
Zn16  Zn    Zn3+2 0.913250 0.500000 0.967240 1.090088

loop_
_geom_bond_atom_site_label_1
_geom_bond_atom_site_label_2
_ccdc_geom_bond_type
C38   C256  S    
O124  Zn9   S    
C155  H29   S    
O118  Zn5   S    
C255  O119  A    
C83   O183  S    
C242  O106  A    
C50   C117  S    
C169  H61   S    
C165  H54   S    
C127  H186  S    
C76   O170  S    
C39   C87   S    
C184  H97   S    
C64   O144  D    
O134  Zn3   S    
H153  O25   S    
C131  H197  S    
O145  Zn4   S    
O121  Zn11  S    
C178  H83   S    
C32   C81   S    
C173  O91   S    
C150  O83   S    
C188  H107  S    
C9    C251  S    
C37   C257  S    
C189  H110  S    
O100  Zn14  S    
C2    C55   A    
H141  O187  S    
C59   C215  S    
C71   O158  D    
C172  H70   S    
C45   C94   S    
C156  O85   S    
C143  C144  S    
C238  O102  A    
C46   C259  A    
C51   C118  S    
C8    C26   A    
C30   C38   S    
C31   C263  S    
C135  O80   S    
C202  H138  S    
C11   C273  A    
C30   C96   S    
C157  O82   S    
C100  O30   D    
C124  C168  A    
C65   O148  S    
C241  O105  A    
C162  H47   S    
C197  H129  S    
C261  C278  A    
C244  O128  A    
C102  O32   D    
C191  H111  S    
C129  H193  S    
C246  O126  A    
H146  O11   S    
C32   C262  S    
C245  O125  A    
C254  O133  A    
O108  Zn2   S    
O130  Zn15  S    
O2    Zn8   S    
C17   C278  A    
C90   C237  A    
C247  O111  A    
H150  O18   S    
C206  C214  A    
C77   O172  S    
C19   C280  A    
C156  H32   S    
C199  C200  S    
C128  H188  S    
C209  C222  A    
C99   O29   S    
C256  C274  A    
C171  H65   S    
C27   C75   S    
C23   C72   S    
H203  O154  S    
O105  Zn3   S    
C146  O81   S    
H46   O168  S    
O101  Zn11  S    
C130  H195  S    
C227  C233  A    
C191  H114  S    
C257  C275  A    
C122  O73   S    
C258  C276  A    
C191  C192  S    
C151  H19   S    
C140  C141  S    
C4    C252  S    
H79   O174  S    
O1    Zn1   S    
C142  H223  S    
C192  H117  S    
C66   O149  D    
O123  Zn6   S    
C144  C145  S    
C4    C265  A    
C149  H15   S    
C137  H210  S    
C181  C182  S    
H144  O7    S    
C21   C29   A    
C89   O8    D    
C90   O75   S    
C31   C37   S    
C63   O143  S    
C183  C184  S    
H157  O33   S    
C90   C205  A    
O101  Zn2   S    
C200  H136  S    
C85   O187  S    
C12   C20   A    
C150  H18   S    
C145  H6    S    
C210  C217  A    
C159  H38   S    
C154  C155  S    
C141  H219  S    
C224  O95   S    
C251  O115  A    
C212  C225  A    
H2    O159  S    
C256  C264  A    
C158  C159  S    
C50   C226  A    
C125  H182  S    
C114  O54   D    
C39   C47   S    
C147  H9    S    
C162  H44   S    
C208  C217  A    
C211  C218  A    
C164  C165  S    
H160  O38   S    
C41   C107  S    
C250  O114  A    
C257  C263  A    
C143  H3    S    
C14   C19   A    
O104  Zn2   S    
C196  C197  S    
C225  O96   S    
C35   C219  A    
C215  O2    A    
C134  C136  S    
C45   C111  S    
C164  H51   S    
O117  Zn6   S    
C185  H99   S    
C190  O85   S    
C249  O113  A    
H142  O3    S    
C128  H189  S    
H171  O60   S    
C40   C88   S    
C156  C158  S    
C130  C131  S    
C190  C210  A    
C228  O98   S    
C48   C248  A    
C247  O131  A    
C193  O97   S    
C260  C277  A    
C162  H45   S    
H159  O146  S    
O133  Zn14  S    
C198  H132  S    
C262  C279  A    
C235  O68   A    
C244  C277  S    
C32   C98   S    
C230  C234  S    
O167  Zn2   S    
C84   O185  S    
C193  H119  S    
C117  O61   D    
C105  O40   S    
C194  H120  S    
C61   O139  S    
C139  H215  S    
C18   C279  A    
C173  H71   S    
C120  O67   D    
C200  C202  S    
C193  C194  S    
C97   O23   D    
C1    O156  A    
C88   O6    D    
O136  Zn12  S    
C186  C187  S    
C101  C248  A    
C136  H206  S    
C134  H204  S    
C75   O168  S    
C129  H191  S    
C15   C18   A    
C41   C89   S    
C200  H137  S    
C177  H82   S    
H147  O14   S    
C69   O153  D    
C147  C148  S    
O111  Zn5   S    
C149  H14   S    
O1    Zn3   S    
C142  H221  S    
C67   O151  D    
C128  C129  S    
O35   Zn1   S    
C119  O66   S    
C167  C169  S    
C107  O44   S    
C124  C270  A    
C149  H16   S    
C38   C86   S    
C32   C36   S    
C62   O141  S    
C127  H187  S    
H24   O163  S    
C109  O49   S    
C2    C68   A    
C199  H133  S    
O101  Zn4   S    
C13   C57   A    
C170  C171  S    
C263  C280  A    
C14   C62   S    
C239  C278  S    
C253  O137  A    
C103  O36   S    
C232  C236  S    
C184  C185  S    
C116  O59   D    
C188  H106  S    
O1    Zn10  S    
C189  C191  S    
C94   O17   D    
C174  C175  S    
C207  C216  A    
H149  O16   S    
H163  O44   S    
C60   C204  S    
C71   O159  S    
C8    C247  S    
C160  H41   S    
C221  C230  A    
C109  O48   D    
C36   C258  S    
O107  Zn3   S    
C223  C230  A    
C3    C240  S    
C47   C265  S    
C195  H122  S    
C31   C97   S    
C235  O46   A    
C91   O10   D    
C132  H200  S    
H35   O165  S    
C95   O20   S    
C258  C262  A    
C70   O157  S    
C145  H7    S    
C143  O81   S    
C53   C60   A    
C44   C267  S    
C140  H218  S    
C54   C59   A    
C40   C272  S    
C82   O180  D    
C225  C232  A    
C46   C220  A    
C166  H55   S    
C34   C260  S    
H164  O47   S    
C87   O5    S    
C242  O121  A    
C175  H75   S    
C224  C231  A    
C24   C157  A    
C16   C17   A    
O57   Zn10  S    
C25   C26   A    
C198  H130  S    
C50   C56   A    
C10   C250  S    
C252  O116  A    
C121  O71   S    
C33   C99   S    
H177  O73   S    
C139  H213  S    
C82   O181  S    
C204  O13   A    
C156  H33   S    
C183  O94   S    
C168  C208  A    
C216  C229  A    
C74   O164  D    
C207  O91   S    
C136  H208  S    
C75   O166  D    
C265  C273  A    
C54   C121  S    
C133  H201  S    
C161  H42   S    
C239  O122  A    
C106  O41   D    
C157  C201  A    
H169  O58   S    
C202  H139  S    
C159  H39   S    
C160  H40   S    
C40   C106  S    
C113  O77   S    
C78   O173  D    
C98   O26   D    
C74   O165  S    
C169  H60   S    
C165  H53   S    
C112  O145  A    
C241  O120  A    
C216  C220  A    
C260  C261  A    
C192  H115  S    
C66   O150  S    
C195  H125  S    
C103  O34   D    
C79   C203  A    
C43   C92   S    
C104  O37   D    
O110  Zn4   S    
C182  H91   S    
C188  H108  S    
C236  O79   A    
C189  H109  S    
O24   Zn6   S    
C118  O63   D    
C240  O104  A    
C138  H211  S    
C79   O74   S    
C164  H50   S    
C56   C112  S    
C180  O93   S    
C54   C270  A    
C165  H52   S    
C163  H48   S    
C186  H102  S    
C25   C73   S    
C81   O179  S    
C229  C233  A    
C87   O4    D    
C203  C212  A    
C101  C206  A    
C153  H26   S    
C205  C213  A    
C65   O147  D    
C52   C119  S    
C29   C77   S    
H155  O29   S    
C3    C264  A    
O112  Zn14  S    
C150  C151  S    
C194  H121  S    
C10   C272  A    
C70   O155  D    
C43   C109  S    
C96   O21   D    
C84   O184  D    
C201  C211  A    
C167  H58   S    
H154  O27   S    
C201  O86   S    
H143  O5    S    
C112  O167  A    
C47   C114  S    
C229  O99   S    
C126  H183  S    
C110  O51   S    
C221  O92   S    
C161  C162  S    
C144  H5    S    
C53   C120  S    
H170  O148  S    
C31   C80   S    
C154  H27   S    
C35   C248  A    
C170  O89   S    
C244  O108  A    
C245  C276  S    
C113  C207  A    
C246  C275  S    
H161  O40   S    
O114  Zn7   S    
C123  C125  S    
H165  O49   S    
C137  H209  S    
C148  H12   S    
C33   C261  S    
C253  O117  A    
C179  O84   S    
C48   C56   A    
O127  Zn1   S    
C46   C237  A    
C86   O3    S    
C170  H63   S    
O116  Zn7   S    
C123  H178  S    
C267  C271  A    
C176  O92   S    
C85   O186  D    
C183  H94   S    
O178  Zn7   S    
C34   C100  S    
C151  C152  S    
C19   C67   S    
C189  O96   S    
O79   Zn12  S    
C33   C82   S    
C159  H37   S    
C80   O175  D    
C118  O64   S    
C39   C273  S    
C194  C195  S    
C9    C271  A    
C155  H30   S    
C152  H22   S    
C5    C266  A    
C22   C28   A    
C55   C60   A    
C169  H62   S    
C241  C280  S    
C76   O169  D    
C242  C279  S    
H156  O31   S    
C114  O55   S    
O137  Zn15  S    
C213  C220  A    
C243  O127  A    
C195  H123  S    
C40   C45   S    
C150  H17   S    
C91   O11   S    
C167  H59   S    
O102  Zn15  S    
C124  O78   S    
C240  O124  A    
C1    O134  A    
C254  O118  A    
C12   C274  A    
C37   C103  S    
C187  H105  S    
C172  H69   S    
C185  H98   S    
C173  C174  S    
C97   O25   S    
C185  H100  S    
C158  H36   S    
C233  C238  S    
C125  H180  S    
C16   C277  A    
C213  C227  A    
C13   C52   A    
O46   Zn9   S    
H172  O62   S    
C86   O188  D    
C3    C20   A    
C51   C58   A    
C178  H84   S    
C193  H118  S    
C105  O39   D    
C166  O88   S    
C61   O138  D    
C251  O130  A    
C163  O87   S    
C45   C266  S    
O112  Zn12  S    
C111  O52   D    
C154  H28   S    
C133  C134  S    
C41   C44   S    
C171  H66   S    
C18   C66   S    
C42   C43   S    
C160  O86   S    
C131  C132  S    
C28   C76   S    
C158  H34   S    
O129  Zn14  S    
C228  C232  A    
C180  C181  S    
C9    C27   A    
C134  H205  S    
C10   C28   A    
C129  H190  S    
C130  H194  S    
O123  Zn15  S    
C222  O93   S    
C177  H81   S    
C210  C223  A    
C180  H87   S    
C178  H85   S    
C151  H20   S    
C2    C135  A    
C142  H222  S    
H151  O20   S    
C119  O65   D    
C79   C226  A    
C212  C219  A    
C127  O75   S    
O122  Zn1   S    
C7    C25   A    
H214  O157  S    
C176  H78   S    
C24   C53   A    
C187  C188  S    
C266  C272  A    
C160  C161  S    
C204  O178  A    
C12   C61   S    
C148  H11   S    
C102  O33   S    
C5    C255  S    
C57   C217  A    
C57   C270  A    
C211  C224  A    
C181  H88   S    
C92   O12   D    
C116  O60   S    
C15   C276  A    
C94   O18   S    
C141  H220  S    
C138  C139  S    
C24   C68   A    
C236  O100  A    
H13   O161  S    
C49   C116  S    
C268  C269  A    
C177  C178  S    
C83   O182  D    
C6    C267  A    
C163  H49   S    
C133  O77   S    
C113  C259  A    
O131  Zn12  S    
C1    C58   S    
C131  H196  S    
C147  H10   S    
C196  O98   S    
C171  C172  S    
H113  O181  S    
O103  Zn16  S    
C4    C21   A    
C35   C226  A    
C49   C259  A    
O1    Zn16  S    
C95   O19   D    
C163  C164  S    
C101  O76   S    
C252  O136  A    
H148  O143  S    
C140  O80   S    
H152  O22   S    
C64   O146  S    
C120  O69   S    
H168  O55   S    
C243  O107  A    
H166  O51   S    
C172  H67   S    
O119  Zn8   S    
C166  H56   S    
C255  O135  A    
C209  C218  A    
C110  O50   D    
C37   C85   S    
C36   C84   S    
C93   O15   D    
C214  C219  A    
O135  Zn13  S    
C100  O31   S    
H158  O36   S    
O126  Zn9   S    
C153  H25   S    
C182  H93   S    
C115  O58   S    
C198  H131  S    
C132  H199  S    
C137  O78   S    
C6    C254  S    
C36   C102  S    
C42   C91   S    
C121  O70   D    
C145  H8    S    
C117  O62   S    
O90   Zn13  S    
C38   C104  S    
C44   C93   S    
C139  H216  S    
C173  H72   S    
C14   C275  A    
C174  H73   S    
C5    C22   A    
C227  O97   S    
C72   O160  D    
C126  H185  S    
O132  Zn13  S    
C144  H4    S    
C108  O45   D    
H90   O176  S    
C175  H77   S    
C23   C27   A    
C214  C228  A    
H176  O71   S    
C130  O76   S    
C123  H179  S    
C208  C221  A    
O123  Zn13  S    
C55   C122  S    
C183  H95   S    
C7    C253  S    
C250  O129  A    
H145  O9    S    
C69   O154  S    
C197  C198  S    
C125  C126  S    
C13   C146  A    
C246  O110  A    
C152  H21   S    
C245  O109  A    
O156  Zn16  S    
H167  O53   S    
H101  O179  S    
C155  H31   S    
C78   O174  S    
C98   O27   S    
H174  O66   S    
H173  O64   S    
C176  H80   S    
C63   O142  D    
C62   O140  D    
C205  O88   S    
C148  C149  S    
C234  O35   A    
C192  H116  S    
O128  Zn11  S    
C196  H127  S    
C199  H134  S    
C239  O103  A    
H112  O141  S    
C197  H128  S    
O115  Zn8   S    
C147  O82   S    
C92   O14   S    
C49   C58   A    
C104  O38   S    
C182  H92   S    
O113  Zn6   S    
C73   O162  D    
C41   C271  S    
C68   C218  A    
C77   O171  D    
C11   C249  S    
C123  O74   S    
C122  O72   D    
C8    C269  A    
C52   C59   A    
C67   O152  S    
H57   O170  S    
C138  H212  S    
C243  C274  S    
C168  O83   S    
C99   O28   D    
C153  O84   S    
C73   O163  S    
C33   C34   S    
C174  H74   S    
C186  H103  S    
C51   C237  A    
H175  O69   S    
C202  H140  S    
C184  H96   S    
C206  O89   S    
C11   C29   A    
C48   C115  S    
C132  H198  S    
H1    O139  S    
C176  C177  S    
C181  H89   S    
C222  C231  A    
C81   O177  D    
C166  C167  S    
C20   C69   S    
C196  H126  S    
C34   C83   S    
C96   O22   S    
H162  O42   S    
C22   C71   S    
C199  O99   S    
C143  H224  S    
C140  H217  S    
C39   C105  S    
O112  Zn7   S    
C15   C63   S    
C72   O161  S    
C187  H104  S    
C203  O87   S    
H192  O152  S    
C175  H76   S    
C126  H184  S    
C231  C235  S    
O109  Zn16  S    
C115  O56   D    
O101  Zn9   S    
C215  O24   A    
C137  C138  S    
C179  C209  A    
C234  O57   A    
C17   C65   S    
C180  H86   S    
C21   C70   S    
C93   O16   S    
C186  O95   S    
H68   O172  S    
C42   C269  S    
C106  O42   S    
C135  C179  A    
C43   C268  S    
C111  O53   S    
C141  C142  S    
O123  Zn8   S    
C238  O90   A    
H135  O185  S    
O68   Zn11  S    
C6    C23   A    
C26   C74   S    
C108  O47   S    
C107  O43   D    
C88   O7    S    
C30   C264  S    
O106  Zn4   S    
C7    C268  A    
C136  H207  S    
H124  O183  S    
C170  H64   S    
O125  Zn10  S    
O120  Zn10  S    
C30   C78   S    
O112  Zn5   S    
C89   O9    S    
C133  H202  S    
C161  H43   S    
C223  O94   S    
C47   C95   S    
H181  O150  S    
C146  C190  A    
C249  O132  A    
C16   C64   S    
C153  C154  S    
C152  H23   S    
C42   C108  S    
C80   O176  S    
O13   Zn5   S    
C127  C128  S    
C44   C110  S    
