data_mof_unit_55144.cif
_audit_creation_date              2013-03-05T16:02:39-0500
_audit_creation_method            fapswitch 2.2
_symmetry_space_group_name_H-M    P1
_symmetry_Int_Tables_number       1
_space_group_crystal_system       triclinic
_cell_length_a                    6.951787
_cell_length_b                    17.26158
_cell_length_c                    18.835249
_cell_angle_alpha                 106.226735
_cell_angle_beta                  90.434488
_cell_angle_gamma                 91.005047
_cell_volume                      2169.65143891

loop_
_atom_site_label
_atom_site_type_symbol
_atom_site_description
_atom_site_fract_x
_atom_site_fract_y
_atom_site_fract_z
_atom_type_partial_charge
O1    O     O_R   0.494360 0.415680 0.413760 -0.593627
O2    O     O_R   0.818810 0.432910 0.557230 -0.557868
O3    O     O_R   0.994290 0.584320 0.586240 -0.571501
C1    C     C_R   0.650115 0.415625 0.580311 0.998025
O4    O     O_R   0.823740 0.406440 0.412520 -0.595524
O5    O     O_R   0.999250 0.557660 0.440500 -0.575589
C2    C     C_R   0.654013 0.383337 0.385421 0.911393
O6    O     O_R   0.489400 0.442340 0.559500 -0.523680
O7    O     O_3   0.662500 0.549650 0.509350 -0.270376
V1    V     V_3+5 0.935340 0.490790 0.498270 1.222613
O8    O     O_R   0.329270 0.567090 0.442770 -0.579567
C3    C     C_R   0.160976 0.584053 0.419373 0.933496
O9    O     O_R   0.324340 0.593560 0.587480 -0.558051
C4    C     C_R   0.158708 0.619393 0.613380 0.975480
V2    V     V_3+5 0.435970 0.509210 0.501730 1.233069
O10   O     O_3   0.158940 0.450350 0.490650 -0.244792
H1    H     H_    0.334125 0.890862 0.575943 0.140199
C5    C     C_R   0.141889 0.588859 0.760484 0.184081
C6    C     C_R   0.084922 0.571926 0.826331 0.257100
C7    C     C_R   0.002237 0.632104 0.881835 -0.283542
C8    C     C_R   0.985849 0.710384 0.875978 0.239489
C9    C     C_R   0.068845 0.731990 0.815020 -0.037648
C10   C     C_R   0.123204 0.668511 0.752205 -0.053564
C11   C     C_R   0.099346 0.814064 0.815084 -0.186810
C12   C     C_R   0.138333 0.831970 0.747325 -0.019833
C13   C     C_R   0.192556 0.768910 0.683898 0.050045
C14   C     C_R   0.163844 0.686437 0.684159 -0.211700
C15   C     C_R   0.122626 0.912081 0.740681 0.313993
C16   C     C_R   0.191150 0.931207 0.678392 -0.194143
C17   C     C_R   0.272154 0.872867 0.621755 -0.194179
C18   C     C_R   0.275876 0.792663 0.623550 -0.015362
H2    H     H_    0.941525 0.616810 0.929117 0.234016
H3    H     H_    0.179916 0.992034 0.673515 0.160126
C19   C     C_1   0.112445 0.864367 0.133012 -0.227840
C20   C     C_1   0.119949 0.821836 0.176609 0.094067
C21   C     C_1   0.129196 0.771607 0.228482 0.033324
C22   C     C_1   0.137039 0.729284 0.272261 0.057518
C23   C     C_1   0.146097 0.678991 0.324086 0.133840
C24   C     C_1   0.153143 0.636248 0.367514 -0.274648
C25   C     C_1   0.642103 0.363239 0.631959 -0.204587
C26   C     C_1   0.637983 0.320283 0.675212 0.132934
C27   C     C_1   0.634468 0.269570 0.726689 0.061063
C28   C     C_1   0.631745 0.226864 0.770180 0.047024
C29   C     C_1   0.628056 0.176361 0.821837 0.138488
C30   C     C_1   0.623587 0.133995 0.865605 -0.105336
H4    H     H_    0.598476 0.131421 0.451301 0.122436
C31   C     C_R   0.702802 0.408889 0.242627 -0.309041
C32   C     C_R   0.702609 0.426827 0.174758 0.365473
C33   C     C_R   0.636540 0.367872 0.112084 -0.241995
C34   C     C_R   0.580124 0.290699 0.115873 0.239205
C35   C     C_R   0.616726 0.267590 0.181756 -0.014591
C36   C     C_R   0.655986 0.330442 0.247441 0.062862
C37   C     C_R   0.615494 0.185285 0.184291 -0.245824
C38   C     C_R   0.617653 0.168223 0.254878 0.063040
C39   C     C_R   0.624207 0.234523 0.320846 0.105554
C40   C     C_R   0.644083 0.314895 0.316863 -0.226425
C41   C     C_R   0.608458 0.088047 0.263824 0.005420
C42   C     C_R   0.601799 0.076569 0.334446 -0.147288
C43   C     C_R   0.604209 0.141534 0.397145 -0.127098
C44   C     C_R   0.615747 0.219437 0.390778 -0.150093
H5    H     H_    0.742494 0.456628 0.291606 0.168047
H6    H     H_    0.613914 0.384081 0.061165 0.224654
H7    H     H_    0.594180 0.016225 0.341243 0.122769
H8    H     H_    0.619212 0.267842 0.441731 0.076057
O11   O     O_R   0.775690 0.057750 0.940570 -0.539242
O12   O     O_R   0.441200 0.093570 0.087490 -0.558207
O13   O     O_R   0.265840 0.942320 0.059480 -0.591455
C45   C     C_R   0.610503 0.118489 0.113871 0.940372
O14   O     O_R   0.446270 0.067110 0.942790 -0.547574
O15   O     O_R   0.270950 0.915660 0.913750 -0.579700
C46   C     C_R   0.614933 0.083179 0.918662 1.030384
O16   O     O_R   0.770580 0.084400 0.086300 -0.605867
O17   O     O_3   0.602640 0.950400 0.990690 -0.235122
V3    V     V_3+5 0.329740 0.009200 0.001730 1.297444
O18   O     O_R   0.940900 0.906360 0.912450 -0.519320
C47   C     C_R   0.106218 0.880978 0.886182 0.968773
O19   O     O_R   0.935830 0.932820 0.057160 -0.552462
C48   C     C_R   0.104182 0.916173 0.080814 0.952512
V4    V     V_3+5 0.829130 0.990680 0.998180 1.315939
O20   O     O_3   0.106100 0.049590 0.009310 -0.230918
N1    N     N_R   0.755416 0.506467 0.170443 0.252769
O21   O     O_R   0.762655 0.522152 0.106804 -0.334772
O22   O     O_R   0.798285 0.563924 0.230002 -0.412622
N2    N     N_R   0.446958 0.246087 0.060294 0.226101
O23   O     O_R   0.463067 0.250683 0.992863 -0.419286
O24   O     O_R   0.278973 0.226986 0.081222 -0.362183
C49   C     C_1   0.605417 0.014274 0.204179 0.003123
N3    N     N_1   0.603081 0.954161 0.157526 -0.024121
N4    N     N_R   0.252284 0.529818 0.709399 0.240885
O25   O     O_R   0.167351 0.468825 0.662283 -0.356967
O26   O     O_R   0.438800 0.532352 0.715993 -0.397687
N5    N     N_R   0.108759 0.493521 0.837718 0.268427
O27   O     O_R   0.140181 0.487133 0.904044 -0.322199
O28   O     O_R   0.075815 0.428141 0.784308 -0.333516
N6    N     N_R   0.851206 0.760806 0.923848 0.238110
O29   O     O_R   0.848726 0.763337 0.993523 -0.402247
O30   O     O_R   0.698226 0.782362 0.894510 -0.352523
N7    N     N_R   0.009404 0.971313 0.790270 0.209847
O31   O     O_R   0.824911 0.958114 0.792142 -0.430615
O32   O     O_R   0.078175 0.044334 0.817498 -0.416326
C50   C     C_1   0.400767 0.743350 0.569543 0.053033
N8    N     N_1   0.506415 0.707109 0.526204 -0.037560

loop_
_geom_bond_atom_site_label_1
_geom_bond_atom_site_label_2
_geom_bond_distance
_ccdc_geom_bond_type
O12   C45   1.292698 A    
C39   C40   1.414581 A    
O18   C47   1.289452 A    
C50   N8    1.156260 T    
O11   V4    1.834905 S    
H4    C43   1.082787 S    
C30   C46   1.503561 S    
O17   V3    2.151315 S    
N6    O29   1.301076 A    
C1    O6    1.314161 A    
N1    O21   1.301702 A    
C34   N2    1.433767 S    
O19   C48   1.313856 A    
C12   C15   1.428850 A    
C13   C14   1.435451 A    
C22   C23   1.478193 S    
C18   C50   1.438229 S    
C8    C9    1.425508 A    
C15   C16   1.389895 A    
N2    O24   1.301516 A    
C5    C6    1.409414 A    
O16   V4    2.017504 S    
O5    C3    1.311508 A    
C17   C18   1.394963 A    
V2    O10   2.142782 S    
O12   V3    1.989294 S    
C16   H3    1.083362 S    
C32   N1    1.440961 S    
C19   C20   1.246446 T    
C26   C27   1.476811 S    
O14   C46   1.313531 A    
C37   C45   1.494355 S    
C6    N5    1.440375 S    
O8    V2    1.848045 S    
C1    C25   1.502598 S    
O15   V3    1.997843 S    
O1    V2    2.013675 S    
C10   C14   1.429077 A    
C4    C14   1.501136 S    
N4    O26   1.300423 A    
O7    V1    2.151399 S    
C43   C44   1.384055 A    
V3    O20   1.705670 S    
O9    C4    1.291353 A    
H1    C17   1.085078 S    
O13   C48   1.310933 A    
C2    C40   1.486997 S    
N1    O22   1.301417 A    
O19   V4    1.848080 S    
C35   C36   1.420048 A    
C11   C12   1.421477 A    
O4    C2    1.293186 A    
C11   C47   1.504104 S    
C8    N6    1.431577 S    
C42   C43   1.382523 A    
O11   C46   1.312749 A    
C41   C49   1.443375 S    
C35   C37   1.434672 A    
C20   C21   1.478150 S    
O2    C1    1.311975 A    
C28   C29   1.476805 S    
C31   H5    1.081457 S    
C16   C17   1.377620 A    
C31   C32   1.396854 A    
C45   O16   1.309676 A    
N5    O28   1.300398 A    
C34   C35   1.427988 A    
O17   V4    1.698774 S    
O14   V3    1.869051 S    
O13   V3    1.845103 S    
N2    O23   1.300039 A    
O3    C4    1.314605 A    
C32   C33   1.394317 A    
N7    O31   1.301159 A    
O6    V2    1.834441 S    
N7    O32   1.301614 A    
O9    V2    2.018707 S    
O15   C47   1.316310 A    
C9    C11   1.428487 A    
C27   C28   1.245801 T    
O2    V1    1.868973 S    
C29   C30   1.245743 T    
C7    H2    1.083583 S    
C15   N7    1.429324 S    
C42   H7    1.084852 S    
C38   C39   1.434674 A    
C25   C26   1.245617 T    
C33   H6    1.082627 S    
O1    C2    1.301001 A    
C5    N4    1.429694 S    
O5    V1    1.845273 S    
O8    C3    1.313398 A    
N6    O30   1.301797 A    
C37   C38   1.439891 A    
C31   C36   1.414695 A    
C44   H8    1.081908 S    
C6    C7    1.387625 A    
C12   C13   1.431300 A    
O4    V1    1.989366 S    
O3    V1    1.997840 S    
V1    O10   1.705742 S    
C19   C48   1.503965 S    
C41   C42   1.399529 A    
C23   C24   1.246510 T    
C3    C24   1.503859 S    
C5    C10   1.434370 A    
N5    O27   1.301632 A    
O7    V2    1.699958 S    
V4    O20   2.142743 S    
C13   C18   1.434490 A    
C7    C8    1.392664 A    
C49   N3    1.157030 T    
C21   C22   1.246608 T    
C33   C34   1.403091 A    
C9    C10   1.428306 A    
N4    O25   1.301039 A    
C39   C44   1.413718 A    
O18   V4    2.018613 S    
C36   C40   1.409133 A    
C38   C41   1.440570 A    
