data_mof_unit_13752.cif
_audit_creation_date              2013-03-05T15:53:06-0500
_audit_creation_method            fapswitch 2.2
_symmetry_space_group_name_H-M    P1
_symmetry_Int_Tables_number       1
_space_group_crystal_system       triclinic
_cell_length_a                    9.890734
_cell_length_b                    10.725922
_cell_length_c                    15.399881
_cell_angle_alpha                 91.405806
_cell_angle_beta                  68.163626
_cell_angle_gamma                 89.218519
_cell_volume                      1515.59780598

loop_
_atom_site_label
_atom_site_type_symbol
_atom_site_description
_atom_site_fract_x
_atom_site_fract_y
_atom_site_fract_z
_atom_type_partial_charge
O1    O     O_R   0.385310 0.683220 0.500000 -0.652723
O2    O     O_R   0.614640 0.683250 0.500010 -0.635969
C1    C     C_R   0.501105 0.740213 0.494603 0.860974
O3    O     O_R   0.319840 0.499980 0.632240 -0.647732
O4    O     O_R   0.549160 0.500000 0.632250 -0.627811
C2    C     C_R   0.409209 0.498882 0.676133 0.835909
Zn1   Zn    Zn3+2 0.346880 0.499980 0.499990 0.960733
Zn2   Zn    Zn3+2 0.653120 0.500020 0.500010 0.936825
O5    O     O_R   0.385360 0.316750 0.499990 -0.605202
O6    O     O_R   0.614690 0.316780 0.500000 -0.621807
O7    O     O_R   0.450840 0.500000 0.367750 -0.546092
O8    O     O_R   0.680160 0.500020 0.367760 -0.615422
C3    C     C_R   0.494829 0.261181 0.509544 0.908397
C4    C     C_R   0.591337 0.494126 0.323579 0.927842
C5    C     C_R   0.357855 0.471705 0.775262 -0.053568
C6    C     C_R   0.651409 0.476931 0.220976 -0.177183
C7    C     C_R   0.219058 0.338034 0.899655 -0.200589
C8    C     C_R   0.236262 0.397858 0.816842 -0.220110
C9    C     C_R   0.454685 0.493069 0.820153 -0.245510
C10   C     C_R   0.447745 0.424861 0.897580 0.094537
C11   C     C_R   0.326335 0.348060 0.938761 0.163723
C12   C     C_R   0.557965 0.431995 0.935387 0.062975
C13   C     C_R   0.531577 0.381435 0.023861 0.070961
C14   C     C_R   0.420021 0.293584 0.057043 -0.127836
C15   C     C_R   0.317356 0.278695 0.015934 -0.239671
C16   C     C_R   0.694632 0.485104 0.887179 -0.225202
C17   C     C_R   0.793346 0.502746 0.930746 -0.211920
C18   C     C_R   0.752680 0.479371 0.025664 0.131146
C19   C     C_R   0.617992 0.421947 0.074928 -0.030365
C20   C     C_R   0.841823 0.519546 0.072650 -0.196351
C21   C     C_R   0.791209 0.518886 0.169678 -0.237853
C22   C     C_R   0.567843 0.421449 0.174073 0.272967
H1    H     H_    0.230358 0.213500 0.045022 0.154809
H2    H     H_    0.858382 0.557884 0.204837 0.186567
H3    H     H_    0.897200 0.543963 0.891934 0.149698
H4    H     H_    0.126290 0.278941 0.930323 0.145217
H5    H     H_    0.160456 0.379916 0.782466 0.152919
H6    H     H_    0.540225 0.558604 0.789898 0.143431
H7    H     H_    0.412606 0.233000 0.113368 0.197958
H8    H     H_    0.729436 0.510501 0.814846 0.160976
H9    H     H_    0.946954 0.559217 0.034750 0.157297
H10   H     H_    0.722470 0.885891 0.480639 0.173365
C23   C     C_R   0.246104 0.893290 0.485866 -0.147426
H11   H     H_    0.254099 0.808581 0.444844 0.177427
C24   C     C_R   0.111801 0.957000 0.517351 -0.130698
H12   H     H_    0.020074 0.917160 0.505256 0.145886
C25   C     C_R   0.094981 0.070180 0.566407 -0.157096
H13   H     H_    0.989409 0.117316 0.594678 0.136969
C26   C     C_R   0.216020 0.125302 0.575348 -0.154312
H14   H     H_    0.199175 0.213652 0.613786 0.147962
C27   C     C_R   0.355820 0.066650 0.535268 0.111678
C28   C     C_R   0.366367 0.942376 0.503663 0.097092
C29   C     C_R   0.497175 0.874293 0.491530 -0.121456
C30   C     C_R   0.621127 0.935637 0.491313 -0.215804
H15   H     H_    0.717909 0.108702 0.495266 0.169350
C31   C     C_R   0.617433 0.062576 0.502999 -0.212087
C32   C     C_R   0.486835 0.128898 0.521970 -0.126106
H16   H     H_    0.934247 0.352709 0.400347 0.158153
C33   C     C_R   0.788635 0.667118 0.621528 -0.179575
H17   H     H_    0.678993 0.675001 0.626023 0.204916
C34   C     C_R   0.823382 0.746123 0.682774 -0.227999
H18   H     H_    0.741376 0.809707 0.729894 0.156067
C35   C     C_R   0.962485 0.743024 0.684095 -0.184555
H19   H     H_    0.989091 0.804287 0.732064 0.154256
C36   C     C_R   0.068143 0.661931 0.623373 -0.166907
H20   H     H_    0.172694 0.664622 0.628170 0.206875
C37   C     C_R   0.037064 0.581370 0.559964 0.131039
C38   C     C_R   0.892539 0.582390 0.559543 0.176635
N1    N     N_R   0.856800 0.501200 0.500850 -0.123378
C39   C     C_R   0.961287 0.418965 0.445120 -0.124366
H21   H     H_    0.182889 0.349823 0.403315 0.225114
C40   C     C_R   0.103922 0.418309 0.445896 -0.034107
N2    N     N_R   0.142390 0.501280 0.500880 -0.136539
N3    N     N_R   0.427125 0.375919 0.228304 0.178884
O9    O     O_R   0.310155 0.437919 0.233495 -0.419622
O10   O     O_R   0.416493 0.276378 0.276892 -0.446582

loop_
_geom_bond_atom_site_label_1
_geom_bond_atom_site_label_2
_geom_bond_distance
_ccdc_geom_bond_type
C5    C8    1.400628 A    
H15   C31   1.083892 S    
C35   C36   1.389750 A    
C9    C10   1.394620 A    
Zn1   N2    2.017353 S    
C29   C30   1.398214 A    
C6    C21   1.400115 A    
Zn1   O7    1.909662 S    
C16   C17   1.387559 A    
N3    O10   1.301770 A    
C13   C19   1.425204 A    
C18   C19   1.422339 A    
C8    H5    1.083364 S    
C19   C22   1.419269 A    
C22   N3    1.430707 S    
C20   C21   1.388342 A    
O7    C4    1.300010 A    
C23   C28   1.421171 A    
C3    C32   1.435679 S    
C14   H7    1.077805 S    
C31   C32   1.394239 A    
C34   C35   1.383492 A    
O5    C3    1.286238 A    
C2    C5    1.456849 S    
C36   C37   1.408482 A    
C38   N1    1.381215 A    
C26   C27   1.418090 A    
C13   C14   1.413858 A    
C20   H9    1.084301 S    
C27   C32   1.414145 A    
C7    H4    1.083907 S    
C33   H17   1.062692 S    
N1    C39   1.364100 A    
O3    Zn1   1.953000 S    
C24   C25   1.388557 A    
C30   C31   1.367196 A    
C33   C34   1.391273 A    
N3    O9    1.301802 A    
C27   C28   1.396832 A    
C14   C15   1.391066 A    
O3    C2    1.297294 A    
H16   C39   1.081808 S    
C17   H3    1.084637 S    
C24   H12   1.082950 S    
C7    C11   1.405478 A    
C37   C38   1.431779 A    
O1    C1    1.281830 A    
C5    C9    1.392267 A    
C23   H11   1.078696 S    
C9    H6    1.079832 S    
C33   C38   1.412589 A    
C25   H13   1.082631 S    
Zn2   O8    1.952997 S    
C7    C8    1.395988 A    
Zn2   N1    2.019602 S    
C21   H2    1.083339 S    
C23   C24   1.395141 A    
C37   N2    1.372297 A    
C10   C12   1.416171 A    
C36   H20   1.064496 S    
C4    C6    1.472407 S    
C6    C22   1.412609 A    
C28   C29   1.424704 A    
Zn1   O5    1.996720 S    
C11   C15   1.393037 A    
O1    Zn1   2.006927 S    
O2    Zn2   1.996721 S    
O8    C4    1.297228 A    
C40   N2    1.365900 A    
O6    C3    1.294849 A    
O4    Zn2   1.909662 S    
C25   C26   1.392715 A    
C18   C20   1.398670 A    
O2    C1    1.301752 A    
H21   C40   1.076717 S    
H10   C30   1.083968 S    
C1    C29   1.440546 S    
C16   H8    1.079679 S    
O4    C2    1.295319 A    
C34   H18   1.082754 S    
C35   H19   1.082691 S    
C10   C11   1.417348 A    
Zn2   O6    2.006926 S    
C26   H14   1.082109 S    
C12   C16   1.413528 A    
C17   C18   1.394515 A    
C12   C13   1.412146 A    
C39   C40   1.415175 A    
C15   H1    1.084023 S    
