data_mof_unit_11137.cif
_audit_creation_date              2012-12-11T15:22:45-0500
_audit_creation_method            fapswitch 2.2
_symmetry_space_group_name_H-M    P1
_symmetry_Int_Tables_number       1
_space_group_crystal_system       triclinic
_cell_length_a                    22.418456
_cell_length_b                    12.972077
_cell_length_c                    27.001231
_cell_angle_alpha                 89.755767
_cell_angle_beta                  90.827826
_cell_angle_gamma                 89.720367
_cell_volume                      7851.34748082

loop_
_atom_site_label
_atom_site_type_symbol
_atom_type_description
_atom_site_fract_x
_atom_site_fract_y
_atom_site_fract_z
_atom_type_partial_charge
C1    C     C_R   0.704905 0.306026 0.173025 0.559900
C2    C     C_R   0.483822 0.257138 0.895367 -0.135548
C3    C     C_R   0.971400 0.582065 0.547980 -0.138793
C4    C     C_R   0.538723 0.077102 0.402130 -0.171825
C5    C     C_R   0.460956 0.077442 0.597971 -0.171750
C6    C     C_R   0.039025 0.577171 0.402195 -0.171807
C7    C     C_R   0.961250 0.577397 0.598031 -0.171776
C8    C     C_R   0.741948 0.952308 0.370811 0.026469
C9    C     C_R   0.258362 0.953245 0.629095 0.026610
C10   C     C_R   0.241987 0.452201 0.370779 0.026461
C11   C     C_R   0.758359 0.453233 0.629099 0.026610
C12   C     C_R   0.692765 0.912028 0.395769 -0.129409
C13   C     C_R   0.024615 0.757502 0.101141 -0.137437
C14   C     C_R   0.307614 0.912526 0.604225 -0.129729
C15   C     C_R   0.192826 0.411846 0.395737 -0.129437
C16   C     C_R   0.807612 0.412531 0.604223 -0.129718
C17   C     C_R   0.696186 0.894943 0.446289 -0.123468
C18   C     C_R   0.304125 0.895135 0.553760 -0.123289
C19   C     C_R   0.196277 0.394686 0.446252 -0.123464
C20   C     C_R   0.804109 0.395101 0.553763 -0.123284
C21   C     C_R   0.749526 0.914130 0.472265 0.038994
C22   C     C_R   0.250700 0.914711 0.527715 0.038817
C23   C     C_R   0.249627 0.413855 0.472217 0.039019
C24   C     C_R   0.983822 0.757138 0.895367 -0.135546
C25   C     C_R   0.750674 0.414642 0.527726 0.038813
C26   C     C_R   0.800652 0.943413 0.446365 -0.119372
C27   C     C_R   0.199617 0.944957 0.553549 -0.119385
C28   C     C_R   0.300739 0.443166 0.446304 -0.119341
C29   C     C_R   0.699594 0.444882 0.553565 -0.119394
C30   C     C_R   0.796773 0.963258 0.395827 -0.122572
C31   C     C_R   0.203534 0.964947 0.604009 -0.123115
C32   C     C_R   0.296827 0.463103 0.395775 -0.122568
C33   C     C_R   0.703521 0.464896 0.604023 -0.123145
C34   C     C_R   0.784881 0.976221 0.554724 -0.122556
C35   C     C_R   0.514812 0.258842 0.049745 0.016075
C36   C     C_R   0.214947 0.976291 0.444863 -0.122257
C37   C     C_R   0.285028 0.475958 0.554664 -0.122571
C38   C     C_R   0.714924 0.476234 0.444877 -0.122273
C39   C     C_R   0.721164 0.346760 0.321933 0.552393
C40   C     C_R   0.278817 0.346940 0.678096 0.540692
C41   C     C_R   0.221165 0.846764 0.321931 0.552404
C42   C     C_R   0.778810 0.846952 0.678103 0.540690
C43   C     C_R   0.790136 0.962957 0.605696 -0.134165
C44   C     C_R   0.209595 0.962736 0.393959 -0.133493
C45   C     C_R   0.290244 0.462784 0.605644 -0.134021
C46   C     C_R   0.497135 0.258685 0.946234 0.011734
C47   C     C_R   0.709587 0.462704 0.393970 -0.133496
C48   C     C_R   0.722652 0.817400 0.600791 -0.124342
C49   C     C_R   0.277187 0.816235 0.399561 -0.124929
C50   C     C_R   0.222677 0.317342 0.600777 -0.124348
C51   C     C_R   0.777161 0.316178 0.399570 -0.124920
C52   C     C_R   0.718694 0.828897 0.549959 -0.122483
C53   C     C_R   0.281323 0.828146 0.450367 -0.122065
C54   C     C_R   0.218757 0.328744 0.549938 -0.122462
C55   C     C_R   0.781286 0.328069 0.450378 -0.122066
C56   C     C_R   0.751038 0.906528 0.526363 0.038025
C57   C     C_R   0.014813 0.758842 0.049744 0.016076
C58   C     C_R   0.249004 0.906478 0.473603 0.037815
C59   C     C_R   0.251153 0.406282 0.526319 0.038042
C60   C     C_R   0.748970 0.406403 0.473615 0.037802
C61   C     C_R   0.760719 0.881045 0.628675 0.027091
C62   C     C_R   0.239110 0.880369 0.371341 0.026065
C63   C     C_R   0.260759 0.380978 0.628649 0.027133
C64   C     C_R   0.739099 0.380339 0.371349 0.026068
C65   C     C_R   0.554689 0.158570 0.321701 0.573286
C66   C     C_R   0.445229 0.158584 0.678240 0.569614
C67   C     C_R   0.054705 0.658569 0.321709 0.573348
C68   C     C_R   0.997135 0.758685 0.946234 0.011733
C69   C     C_R   0.945256 0.658587 0.678253 0.569517
C70   C     C_R   0.732075 0.001282 0.322709 0.547140
C71   C     C_R   0.268037 0.001495 0.677225 0.544807
C72   C     C_R   0.232081 0.501264 0.322701 0.547133
C73   C     C_R   0.768037 0.501495 0.677225 0.544805
C74   C     C_R   0.520531 0.070213 0.100975 -0.131364
C75   C     C_R   0.488969 0.069850 0.896136 -0.132398
C76   C     C_R   0.020532 0.570213 0.100975 -0.131362
C77   C     C_R   0.988970 0.569851 0.896135 -0.132399
C78   C     C_R   0.513216 0.070155 0.049872 0.010932
C79   C     C_R   0.510399 0.164641 0.023988 0.065632
C80   C     C_R   0.499979 0.069980 0.946858 0.012430
C81   C     C_R   0.013217 0.570155 0.049871 0.010933
C82   C     C_R   0.999980 0.569981 0.946858 0.012430
C83   C     C_R   0.504618 0.976592 0.972867 -0.137989
C84   C     C_R   0.510653 0.976675 0.024181 -0.141210
C85   C     C_R   0.004619 0.476592 0.972867 -0.137989
C86   C     C_R   0.010655 0.476675 0.024181 -0.141208
C87   C     C_3   0.540634 0.425895 0.379729 0.022492
C88   C     C_3   0.502926 0.518515 0.395424 -0.272777
C89   C     C_3   0.542180 0.606644 0.413857 -0.494147
C90   C     C_R   0.503014 0.164562 0.972292 0.064488
C91   C     C_3   0.458683 0.426295 0.619201 0.022243
C92   C     C_3   0.496369 0.518436 0.603310 -0.273000
C93   C     C_3   0.457108 0.607333 0.584632 -0.494731
C94   C     C_3   0.040568 0.925871 0.379655 0.022530
C95   C     C_3   0.002857 0.018453 0.395394 -0.272795
C96   C     C_3   0.042120 0.106738 0.413633 -0.494127
C97   C     C_3   0.958355 0.925993 0.619324 0.022294
C98   C     C_3   0.995658 0.018448 0.603230 -0.273160
C99   C     C_3   0.955999 0.107032 0.584796 -0.494684
C100  C     C_R   0.010400 0.664641 0.023988 0.065632
C101  C     C_R   0.279221 0.345300 0.821634 0.543113
C102  C     C_R   0.003014 0.664562 0.972291 0.064488
C103  C     C_R   0.511069 0.352197 0.023380 -0.140779
C104  C     C_R   0.501660 0.352132 0.972024 -0.143454
C105  C     C_R   0.011069 0.852197 0.023380 -0.140779
C106  C     C_R   0.001660 0.852132 0.972024 -0.143454
C107  C     C_R   0.737724 0.962109 0.128715 0.023381
C108  C     C_R   0.256673 0.943190 0.866512 0.021635
C109  C     C_R   0.237724 0.462108 0.128715 0.023382
C110  C     C_R   0.756673 0.443190 0.866512 0.021636
C111  C     C_R   0.792538 0.969307 0.104590 -0.133705
C112  C     C_R   0.204905 0.806026 0.173025 0.559909
C113  C     C_R   0.198130 0.931618 0.883306 -0.128795
C114  C     C_R   0.292538 0.469311 0.104590 -0.133706
C115  C     C_R   0.698129 0.431618 0.883306 -0.128796
C116  C     C_R   0.795464 0.953270 0.053665 -0.121317
C117  C     C_R   0.187696 0.892292 0.930610 -0.119514
C118  C     C_R   0.295463 0.453274 0.053665 -0.121317
C119  C     C_R   0.687696 0.392293 0.930610 -0.119514
C120  C     C_R   0.743490 0.931072 0.026014 0.036718
C121  C     C_R   0.235686 0.865911 0.962472 0.034400
C122  C     C_R   0.243490 0.431071 0.026014 0.036719
C123  C     C_R   0.779221 0.845300 0.821634 0.543129
C124  C     C_R   0.735686 0.365911 0.962472 0.034400
C125  C     C_R   0.689250 0.919344 0.050588 -0.119051
C126  C     C_R   0.294082 0.871673 0.944380 -0.119748
C127  C     C_R   0.189251 0.419337 0.050588 -0.119050
C128  C     C_R   0.794082 0.371674 0.944380 -0.119747
C129  C     C_R   0.554280 0.157420 0.177100 0.542886
C130  C     C_R   0.446908 0.157042 0.822191 0.550248
C131  C     C_R   0.054281 0.657420 0.177100 0.542907
C132  C     C_R   0.946909 0.657042 0.822191 0.550253
C133  C     C_R   0.686500 0.933711 0.101478 -0.124061
C134  C     C_R   0.477079 0.162490 0.870726 -0.004273
C135  C     C_R   0.304429 0.909291 0.896763 -0.127623
C136  C     C_R   0.186501 0.433706 0.101478 -0.124061
C137  C     C_R   0.804429 0.409291 0.896763 -0.127622
C138  C     C_R   0.712364 0.843012 0.947870 -0.118002
C139  C     C_R   0.262012 0.773917 0.042401 -0.114633
C140  C     C_R   0.212365 0.343009 0.947870 -0.118002
C141  C     C_R   0.762012 0.273917 0.042401 -0.114633
C142  C     C_R   0.719231 0.825124 0.897518 -0.126136
C143  C     C_R   0.255881 0.762260 0.093626 -0.127449
C144  C     C_R   0.219231 0.325122 0.897518 -0.126136
C145  C     C_R   0.528970 0.163019 0.126706 -0.002469
C146  C     C_R   0.755881 0.262260 0.093626 -0.127449
C147  C     C_R   0.790916 0.964073 0.893326 -0.122623
C148  C     C_R   0.174999 0.886564 0.092071 -0.120445
C149  C     C_R   0.290915 0.464074 0.893326 -0.122624
C150  C     C_R   0.674999 0.386564 0.092071 -0.120445
C151  C     C_R   0.783414 0.982904 0.943622 -0.115082
C152  C     C_R   0.181477 0.898951 0.041190 -0.112864
C153  C     C_R   0.283412 0.482905 0.943622 -0.115081
C154  C     C_R   0.681477 0.398951 0.041190 -0.112864
C155  C     C_R   0.745904 0.919758 0.971732 0.038148
C156  C     C_R   0.977079 0.662490 0.870726 -0.004273
C157  C     C_R   0.225468 0.843775 0.015718 0.038058
C158  C     C_R   0.245904 0.419757 0.971732 0.038148
C159  C     C_R   0.725468 0.343775 0.015718 0.038058
C160  C     C_R   0.760473 0.882585 0.870306 0.023569
C161  C     C_R   0.213023 0.819990 0.119132 0.019513
C162  C     C_R   0.260473 0.382584 0.870306 0.023570
C163  C     C_R   0.713023 0.319990 0.119132 0.019511
C164  C     C_R   0.531080 0.164686 0.371954 0.041864
C165  C     C_R   0.468560 0.164819 0.627872 0.042415
C166  C     C_R   0.031203 0.664681 0.371998 0.041899
C167  C     C_R   0.028970 0.663019 0.126706 -0.002469
C168  C     C_R   0.968705 0.664825 0.627921 0.042259
C169  C     C_R   0.511055 0.257894 0.392949 0.263678
C170  C     C_R   0.488342 0.257862 0.606534 0.263396
C171  C     C_R   0.011128 0.757851 0.392995 0.263672
C172  C     C_R   0.988481 0.757881 0.606589 0.263342
C173  C     C_R   0.496592 0.259574 0.443471 -0.105015
C174  C     C_R   0.502712 0.259499 0.555974 -0.105437
C175  C     C_R   0.996763 0.759548 0.443538 -0.105008
C176  C     C_R   0.002917 0.759533 0.556046 -0.105246
C177  C     C_R   0.730867 0.003038 0.178965 0.534185
C178  C     C_R   0.524614 0.257502 0.101141 -0.137436
C179  C     C_R   0.268507 0.000409 0.820364 0.543466
C180  C     C_R   0.230867 0.503038 0.178965 0.534178
C181  C     C_R   0.768507 0.500409 0.820364 0.543464
C182  C     C_R   0.506527 0.172188 0.473353 -0.000903
C183  C     C_R   0.492906 0.172270 0.526405 -0.000928
C184  C     C_R   0.006844 0.672222 0.473430 -0.000948
C185  C     C_R   0.993228 0.672263 0.526483 -0.000962
C186  C     C_R   0.528561 0.081783 0.452176 -0.138627
C187  C     C_R   0.471007 0.082131 0.547907 -0.138780
C188  C     C_R   0.028961 0.581879 0.452255 -0.138645
Cr1   Cr    Cr6+3 0.756570 0.170940 0.251190 1.014228
Cr2   Cr    Cr6+3 0.374010 0.036240 0.749520 1.008574
Cr3   Cr    Cr6+3 0.125990 0.536240 0.250480 1.004463
Cr4   Cr    Cr6+3 0.874010 0.536240 0.749520 1.008580
Cr5   Cr    Cr6+3 0.243430 0.170940 0.748810 1.012679
Cr6   Cr    Cr6+3 0.256570 0.670940 0.251190 1.014225
Cr7   Cr    Cr6+3 0.743430 0.670940 0.748810 1.012665
Cr8   Cr    Cr6+3 0.623740 0.299110 0.249580 1.023734
Cr9   Cr    Cr6+3 0.376260 0.299110 0.750420 1.027993
Cr10  Cr    Cr6+3 0.123740 0.799110 0.249580 1.023616
Cr11  Cr    Cr6+3 0.876260 0.799110 0.750420 1.027801
Cr12  Cr    Cr6+3 0.625990 0.036240 0.250480 1.004462
H1    H     H_    0.484675 0.996475 0.877347 0.128416
H2    H     H_    0.332132 0.853121 0.967961 0.104113
H3    H     H_    0.430955 0.450262 0.650941 0.173448
H4    H     H_    0.426813 0.405261 0.588680 0.116672
H5    H     H_    0.523819 0.545110 0.635341 0.171701
H6    H     H_    0.527034 0.495209 0.573373 0.151856
H7    H     H_    0.430502 0.583044 0.551697 0.137700
H8    H     H_    0.485610 0.673289 0.573889 0.144210
H9    H     H_    0.426416 0.633002 0.614124 0.144627
H10   H     H_    0.068112 0.949607 0.347749 0.174647
H11   H     H_    0.072614 0.904268 0.410135 0.116201
H12   H     H_    0.975196 0.045615 0.363380 0.172952
H13   H     H_    0.148386 0.403165 0.030270 0.107759
H14   H     H_    0.972390 0.995542 0.425525 0.151433
H15   H     H_    0.068969 0.081938 0.446525 0.137475
H16   H     H_    0.013602 0.173016 0.424301 0.144717
H17   H     H_    0.072586 0.132128 0.383924 0.145782
H18   H     H_    0.930740 0.949778 0.651160 0.173926
H19   H     H_    0.926387 0.904601 0.588932 0.116888
H20   H     H_    0.023303 0.045313 0.635108 0.171788
H21   H     H_    0.026125 0.995505 0.573107 0.151699
H22   H     H_    0.929168 0.082535 0.552024 0.137670
H23   H     H_    0.984225 0.173218 0.573882 0.144172
H24   H     H_    0.832132 0.353121 0.967961 0.104113
H25   H     H_    0.925507 0.132432 0.614483 0.144646
H26   H     H_    0.643328 0.929076 0.118829 0.130993
H27   H     H_    0.350094 0.917835 0.884869 0.127036
H28   H     H_    0.143329 0.429067 0.118830 0.130990
H29   H     H_    0.850094 0.417835 0.884869 0.127036
H30   H     H_    0.460796 0.014629 0.525965 0.113435
H31   H     H_    0.538832 0.014091 0.474364 0.113193
H32   H     H_    0.961293 0.514513 0.526041 0.113416
H33   H     H_    0.523820 0.996790 0.120200 0.129076
H34   H     H_    0.039346 0.514248 0.474453 0.113240
H35   H     H_    0.443841 0.005758 0.612592 0.135440
H36   H     H_    0.555994 0.005291 0.387744 0.135155
H37   H     H_    0.944167 0.505683 0.612642 0.135462
H38   H     H_    0.056352 0.505407 0.387806 0.135157
H39   H     H_    0.477951 0.328861 0.459273 0.098643
H40   H     H_    0.521216 0.328603 0.539910 0.098693
H41   H     H_    0.978067 0.828787 0.459340 0.098686
H42   H     H_    0.021367 0.828684 0.539988 0.098748
H43   H     H_    0.650054 0.901897 0.377232 0.122866
H44   H     H_    0.984676 0.496476 0.877346 0.128414
H45   H     H_    0.350353 0.901947 0.622794 0.121930
H46   H     H_    0.150110 0.401719 0.377211 0.122789
H47   H     H_    0.850362 0.401999 0.622782 0.122006
H48   H     H_    0.808602 0.038996 0.537405 0.099063
H49   H     H_    0.191179 0.039519 0.461841 0.099370
H50   H     H_    0.308800 0.538660 0.537332 0.099038
H51   H     H_    0.691159 0.539461 0.461857 0.099413
H52   H     H_    0.819466 0.013151 0.626666 0.113142
H53   H     H_    0.180169 0.013222 0.372755 0.114746
H54   H     H_    0.319598 0.512962 0.626600 0.113085
H55   H     H_    0.023821 0.496790 0.120200 0.129076
H56   H     H_    0.680175 0.513213 0.372765 0.114690
H57   H     H_    0.502192 0.903530 0.953638 0.100425
H58   H     H_    0.513585 0.903675 0.043762 0.099737
H59   H     H_    0.002194 0.403530 0.953637 0.100425
H60   H     H_    0.013587 0.403675 0.043761 0.099736
H61   H     H_    0.656004 0.872584 0.465246 0.096520
H62   H     H_    0.344282 0.872059 0.534868 0.096722
H63   H     H_    0.156102 0.372304 0.465213 0.096459
H64   H     H_    0.844263 0.372033 0.534864 0.096784
H65   H     H_    0.692680 0.773546 0.529048 0.099238
H66   H     H_    0.822643 0.010008 0.873052 0.124324
H67   H     H_    0.307493 0.772672 0.471570 0.099071
H68   H     H_    0.192721 0.273398 0.529043 0.099211
H69   H     H_    0.807448 0.272584 0.471581 0.099075
H70   H     H_    0.699755 0.752933 0.617497 0.135532
H71   H     H_    0.300056 0.751324 0.383139 0.134795
H72   H     H_    0.199732 0.252948 0.617502 0.135516
H73   H     H_    0.800026 0.251267 0.383147 0.134803
H74   H     H_    0.842932 0.954789 0.465436 0.095208
H75   H     H_    0.157281 0.956772 0.534478 0.095233
H76   H     H_    0.343032 0.454517 0.465360 0.095167
H77   H     H_    0.140467 0.930423 0.110236 0.126518
H78   H     H_    0.657253 0.456676 0.534499 0.095155
H79   H     H_    0.835543 0.992839 0.377061 0.130664
H80   H     H_    0.164726 0.995004 0.622666 0.129621
H81   H     H_    0.335585 0.492722 0.377005 0.130696
H82   H     H_    0.664714 0.494944 0.622684 0.129511
H83   H     H_    0.475218 0.328942 0.875792 0.123974
H84   H     H_    0.531464 0.329338 0.120736 0.118304
H85   H     H_    0.975217 0.828942 0.875792 0.123978
H86   H     H_    0.031464 0.829339 0.120736 0.118301
H87   H     H_    0.497512 0.425062 0.952541 0.101275
H88   H     H_    0.322641 0.510010 0.873052 0.124325
H89   H     H_    0.514811 0.425163 0.042528 0.099228
H90   H     H_    0.997511 0.925062 0.952541 0.101275
H91   H     H_    0.014810 0.925163 0.042528 0.099227
H92   H     H_    0.832599 0.991408 0.124692 0.124940
H93   H     H_    0.160489 0.956005 0.860465 0.123898
H94   H     H_    0.332598 0.491416 0.124691 0.124942
H95   H     H_    0.660489 0.456005 0.860465 0.123892
H96   H     H_    0.683255 0.792876 0.968550 0.102310
H97   H     H_    0.295507 0.728585 0.023752 0.098388
H98   H     H_    0.183257 0.292872 0.968551 0.102309
H99   H     H_    0.640468 0.430424 0.110236 0.126520
H100  H     H_    0.795507 0.228585 0.023752 0.098389
H101  H     H_    0.695388 0.761342 0.880848 0.132952
H102  H     H_    0.284588 0.708003 0.113229 0.134435
H103  H     H_    0.195389 0.261339 0.880848 0.132953
H104  H     H_    0.784588 0.208003 0.113229 0.134435
H105  H     H_    0.838229 0.959927 0.035817 0.106639
H106  H     H_    0.142069 0.886064 0.942872 0.112194
H107  H     H_    0.338228 0.459935 0.035816 0.106638
H108  H     H_    0.642069 0.386064 0.942872 0.112193
H109  H     H_    0.808334 0.044821 0.960821 0.097771
H110  H     H_    0.648385 0.903175 0.030268 0.107761
H111  H     H_    0.153021 0.954418 0.022152 0.101105
H112  H     H_    0.308332 0.544823 0.960820 0.097771
H113  H     H_    0.653021 0.454418 0.022152 0.101106
H114  H     H_    0.568283 0.449647 0.347888 0.174638
H115  H     H_    0.572585 0.404188 0.410261 0.116186
H116  H     H_    0.475430 0.545853 0.363347 0.172882
H117  H     H_    0.472301 0.495578 0.425440 0.151470
H118  H     H_    0.568842 0.581680 0.446823 0.137514
H119  H     H_    0.513667 0.672970 0.424471 0.144690
H120  H     H_    0.572820 0.632037 0.384273 0.145735
O1    O     O_R   0.769900 0.064540 0.196060 -0.530149
O2    O     O_R   0.433710 0.069580 0.694600 -0.537946
O3    O     O_R   0.066290 0.569580 0.305400 -0.533898
O4    O     O_R   0.933710 0.569580 0.694600 -0.537904
O5    O     O_R   0.680760 0.993330 0.302620 -0.505564
O6    O     O_R   0.319240 0.993330 0.697380 -0.508876
O7    O     O_R   0.180760 0.493330 0.302620 -0.505580
O8    O     O_R   0.819240 0.493330 0.697380 -0.508852
O9    O     O_3   0.668770 0.168760 0.250420 -0.265314
O10   O     O_3   0.331230 0.168760 0.749580 -0.242433
O11   O     O_3   0.168770 0.668760 0.250420 -0.265303
O12   O     O_R   0.230100 0.064540 0.803940 -0.519991
O13   O     O_3   0.831230 0.668760 0.749580 -0.242379
O14   O     O_R   0.750800 0.274080 0.199250 -0.496888
O15   O     O_R   0.249200 0.274080 0.800750 -0.504262
O16   O     O_R   0.250800 0.774080 0.199250 -0.496887
O17   O     O_R   0.749200 0.774080 0.800750 -0.504257
O18   O     O_R   0.669990 0.371670 0.194150 -0.519709
O19   O     O_R   0.330010 0.371670 0.805850 -0.521015
O20   O     O_R   0.169990 0.871670 0.194150 -0.519718
O21   O     O_R   0.830010 0.871670 0.805850 -0.521008
O22   O     O_R   0.574600 0.238480 0.197800 -0.517242
O23   O     O_R   0.269900 0.564540 0.196060 -0.530152
O24   O     O_R   0.425400 0.238480 0.802200 -0.498732
O25   O     O_R   0.074600 0.738480 0.197800 -0.517241
O26   O     O_R   0.925400 0.738480 0.802200 -0.498721
O27   O     O_R   0.566130 0.068680 0.194240 -0.523460
O28   O     O_R   0.433870 0.068680 0.805760 -0.524520
O29   O     O_R   0.066130 0.568680 0.194240 -0.523448
O30   O     O_R   0.933870 0.568680 0.805760 -0.524523
O31   O     O_R   0.680610 0.992490 0.199570 -0.506259
O32   O     O_R   0.319390 0.992490 0.800430 -0.502928
O33   O     O_R   0.180610 0.492490 0.199570 -0.506265
O34   O     O_R   0.730100 0.564540 0.803940 -0.520000
O35   O     O_R   0.819390 0.492490 0.800430 -0.502928
O36   O     O_R   0.770060 0.065440 0.307230 -0.521053
O37   O     O_R   0.229940 0.065440 0.692770 -0.523378
O38   O     O_R   0.270060 0.565440 0.307230 -0.521049
O39   O     O_R   0.729940 0.565440 0.692770 -0.523402
O40   O     O_R   0.750960 0.274920 0.302300 -0.499241
O41   O     O_R   0.249040 0.274920 0.697700 -0.505691
O42   O     O_R   0.250960 0.774920 0.302300 -0.499231
O43   O     O_R   0.749040 0.774920 0.697700 -0.505652
O44   O     O_R   0.670160 0.372580 0.305320 -0.527972
O45   O     O_R   0.574760 0.239320 0.300850 -0.462159
O46   O     O_R   0.329840 0.372580 0.694680 -0.532077
O47   O     O_R   0.170160 0.872580 0.305320 -0.528019
O48   O     O_R   0.829840 0.872580 0.694680 -0.532372
O49   O     O_3   0.502909 0.344839 0.363539 -0.562965
O50   O     O_3   0.496431 0.344575 0.635661 -0.564000
O51   O     O_3   0.002838 0.844735 0.363573 -0.563026
O52   O     O_3   0.996438 0.844660 0.635687 -0.564129
O53   O     O_R   0.425240 0.239320 0.699150 -0.463010
O54   O     O_R   0.074760 0.739320 0.300850 -0.462288
O55   O     O_R   0.925240 0.739320 0.699150 -0.463211
O56   O     O_R   0.566290 0.069580 0.305400 -0.533936

loop_
_geom_bond_atom_site_label_1
_geom_bond_atom_site_label_2
_ccdc_geom_bond_type
C7    C168  A    
C34   C56   A    
C98   H20   S    
C77   H44   S    
Cr11  O55   S    
C21   C26   A    
C128  H24   S    
C116  H105  S    
C126  H2    S    
C150  C163  A    
C6    H38   S    
Cr7   O43   S    
C2    C134  A    
C177  O1    A    
C95   H12   S    
C13   C167  A    
C18   H62   S    
Cr4   O8    S    
C77   C156  A    
C98   H21   S    
Cr1   O1    S    
C148  H77   S    
C172  O52   S    
C4    C186  A    
C76   H55   S    
C149  C153  A    
C182  C183  S    
C79   C90   A    
Cr8   O44   S    
C141  H100  S    
C7    H37   S    
C178  H84   S    
C25   C60   S    
C151  C155  A    
Cr4   O13   S    
C129  C145  S    
C81   C86   A    
C91   O50   S    
C35   C178  A    
C136  H28   S    
C99   H22   S    
C101  O19   A    
C130  C134  S    
C72   O38   A    
C80   C83   A    
C70   O5    A    
C123  O21   A    
C25   C29   A    
C153  C158  A    
C27   C31   A    
C9    C71   S    
C28   C32   A    
C127  C136  A    
C41   O47   A    
C47   C64   A    
C120  C125  A    
C120  C155  S    
C17   C21   A    
C108  C113  A    
C19   C23   A    
C89   H118  S    
C112  C161  S    
C16   C20   A    
C122  C158  S    
C129  O27   A    
C46   C90   A    
C49   H71   S    
C173  C182  A    
C142  H101  S    
C22   C27   A    
C36   C44   A    
Cr2   O2    S    
C37   C45   A    
C32   H81   S    
C43   C61   A    
C27   H75   S    
C170  C174  A    
C152  C157  A    
C87   H115  S    
C49   C62   A    
C51   C64   A    
C66   O53   A    
C22   C58   S    
C53   C58   A    
C82   C85   A    
Cr9   O46   S    
C35   C103  A    
C96   H16   S    
C44   C62   A    
Cr11  O48   S    
Cr12  O56   S    
C71   O37   A    
C69   C168  S    
C47   H56   S    
C131  O29   A    
C20   H64   S    
C77   C82   A    
C49   C53   A    
C70   O36   A    
C51   C55   A    
Cr10  O25   S    
C41   O42   A    
Cr11  O13   S    
C117  H106  S    
C139  C157  A    
C71   O6    A    
C98   C99   S    
C20   C25   A    
C97   H18   S    
C149  C162  A    
C143  C161  A    
C96   H17   S    
C169  O49   S    
C29   C33   A    
C181  O34   A    
C74   C145  A    
C97   C98   S    
C5    H35   S    
C75   C134  A    
Cr4   O30   S    
Cr3   O33   S    
C85   C86   A    
C72   O7    A    
C23   C59   S    
C65   O45   A    
Cr11  O26   S    
C135  H27   S    
Cr10  O54   S    
C89   H120  S    
C154  H113  S    
C103  H89   S    
C13   C57   A    
C184  C185  S    
C118  C122  A    
Cr10  O11   S    
C92   H5    S    
C140  C158  A    
Cr12  O5    S    
C139  C143  A    
C141  C159  A    
C110  C181  S    
Cr5   O15   S    
Cr2   O32   S    
C91   H4    S    
Cr7   O13   S    
Cr5   O37   S    
C52   H65   S    
C48   H70   S    
C107  C177  S    
C50   C63   A    
C4    H36   S    
C147  C160  A    
Cr4   O4    S    
C100  C102  A    
C54   C59   A    
C69   O4    A    
C113  H93   S    
C99   H23   S    
C115  H95   S    
Cr1   O36   S    
C11   C33   A    
C108  C135  A    
C91   C92   S    
C127  H13   S    
Cr7   O34   S    
C53   H67   S    
C170  O50   S    
Cr4   O35   S    
C116  C120  A    
C108  C179  S    
C12   C17   A    
C147  C151  A    
C105  H91   S    
C83   C84   A    
C15   H46   S    
C48   C52   A    
C8    C12   A    
C118  H107  S    
C82   C102  A    
C23   C28   A    
C85   H59   S    
C31   H80   S    
C86   H60   S    
C37   C59   A    
C109  C114  A    
C113  C117  A    
C123  O17   A    
C144  H103  S    
Cr5   O41   S    
C26   C30   A    
C115  C119  A    
C38   C60   A    
C179  O12   A    
C67   C166  S    
C176  H42   S    
C33   H82   S    
C66   C165  S    
Cr1   O9    S    
C18   C22   A    
C107  C111  A    
Cr5   O10   S    
C148  C152  A    
C173  H39   S    
C94   H10   S    
C67   O3    A    
C8    C70   S    
C150  H99   S    
C154  C159  A    
C177  O31   A    
C93   H9    S    
C109  C180  S    
C35   C79   A    
C132  C156  S    
Cr7   O17   S    
C24   C156  A    
C129  O22   A    
C95   H14   S    
C169  C173  A    
C1    O18   A    
C93   H8    S    
C69   O55   A    
C172  C176  A    
C132  O26   A    
C146  H104  S    
C138  C155  A    
C87   C88   S    
C6    C166  A    
Cr6   O16   S    
Cr3   O29   S    
C131  O25   A    
Cr8   O18   S    
C75   H1    S    
C176  C185  A    
C15   C19   A    
C39   C64   S    
C50   C54   A    
C40   C63   S    
C101  C162  S    
C66   O2    A    
C68   C102  A    
C3    C7    A    
C106  H90   S    
C44   H53   S    
Cr10  O47   S    
C37   H50   S    
C182  C186  A    
Cr2   O10   S    
C143  H102  S    
C145  C178  A    
C94   O51   S    
C111  C116  A    
C45   H54   S    
C124  C128  A    
C14   H45   S    
C55   C60   A    
Cr5   O12   S    
C41   C62   S    
C147  H66   S    
C112  O20   A    
C67   O54   A    
C51   H73   S    
C180  O33   A    
C133  H26   S    
C137  H29   S    
C138  C142  A    
C186  H31   S    
C101  O15   A    
C29   H78   S    
Cr11  O21   S    
Cr12  O31   S    
C46   C104  A    
C54   H68   S    
C111  H92   S    
C121  C126  A    
C40   O41   A    
C97   O52   S    
Cr2   O28   S    
C3    H32   S    
C9    C14   A    
C130  O24   A    
C174  H40   S    
C11   C16   A    
C36   H49   S    
C74   H33   S    
C99   H25   S    
Cr3   O11   S    
C141  C146  A    
C126  C135  A    
C114  H94   S    
C11   C73   S    
C149  H88   S    
Cr3   O3    S    
Cr6   O11   S    
C188  H34   S    
C112  O16   A    
C42   O43   A    
C16   H47   S    
C84   H58   S    
C165  C170  A    
C42   O48   A    
C110  C137  A    
C140  C144  A    
C174  C183  A    
C21   C56   S    
Cr9   O19   S    
C81   C100  A    
C105  C106  A    
C36   C58   A    
Cr1   O14   S    
Cr8   O45   S    
C8    C30   A    
C89   H119  S    
C107  C133  A    
C130  O28   A    
C131  C167  S    
C132  O30   A    
C92   C93   S    
C83   H57   S    
C17   H61   S    
C94   C95   S    
C92   H6    S    
C24   C68   A    
C19   H63   S    
C13   H86   S    
C168  C172  A    
C1    C163  S    
C74   C78   A    
C103  C104  A    
C3    C185  A    
C40   O46   A    
C125  H110  S    
C110  C115  A    
C180  O23   A    
C91   H3    S    
C175  C184  A    
C151  H109  S    
C57   C105  A    
C14   C18   A    
C95   C96   S    
C88   H116  S    
C119  C124  A    
C2    C46   A    
C30   H79   S    
C96   H15   S    
C148  C161  A    
Cr9   O53   S    
C139  H97   S    
C183  C187  A    
C10   C15   A    
C28   H76   S    
C123  C160  S    
C124  C159  S    
C122  C127  A    
C76   C167  A    
C117  C121  A    
C187  H30   S    
C43   H52   S    
C97   H19   S    
C5    C165  A    
Cr8   O22   S    
C75   C80   A    
Cr6   O38   S    
C153  H112  S    
C88   C89   S    
C94   H11   S    
C121  C157  S    
C181  O35   A    
C152  H111  S    
C164  C169  A    
C68   C106  A    
C65   O56   A    
C87   O49   S    
C119  H108  S    
C73   O39   A    
Cr2   O6    S    
C138  H96   S    
C26   H74   S    
C78   C79   A    
C140  H98   S    
C171  O51   S    
C57   C100  A    
C171  C175  A    
C45   C63   A    
C184  C188  A    
C128  C137  A    
C10   C32   A    
Cr10  O20   S    
C38   H51   S    
C179  O32   A    
C12   H43   S    
C4    C164  A    
C39   O40   A    
C42   C61   S    
C38   C47   A    
C114  C118  A    
Cr6   O42   S    
C55   H69   S    
C6    C188  A    
C50   H72   S    
C87   H114  S    
C34   H48   S    
C88   H117  S    
C93   H7    S    
Cr1   O40   S    
C125  C133  A    
Cr6   O23   S    
C175  H41   S    
Cr12  O27   S    
C24   H85   S    
C144  C162  A    
Cr8   O9    S    
C142  C160  A    
C76   C81   A    
C2    H83   S    
C146  C163  A    
Cr9   O10   S    
C1    O14   A    
C48   C61   A    
Cr9   O24   S    
C65   C164  S    
Cr3   O7    S    
C80   C90   A    
C39   O44   A    
C9    C31   A    
C104  H87   S    
Cr7   O39   S    
C73   O8    A    
C78   C84   A    
C166  C171  A    
C150  C154  A    
C5    C187  A    
C34   C43   A    
C52   C56   A    
C10   C72   S    
Cr12  O9    S    
C109  C136  A    
