data_mof_unit_16914.cif
_audit_creation_date              2013-03-05T16:17:53-0500
_audit_creation_method            fapswitch 2.2
_symmetry_space_group_name_H-M    P1
_symmetry_Int_Tables_number       1
_space_group_crystal_system       triclinic
_cell_length_a                    8.243758
_cell_length_b                    22.84903
_cell_length_c                    26.990877
_cell_angle_alpha                 96.242406
_cell_angle_beta                  92.735886
_cell_angle_gamma                 89.992008
_cell_volume                      5048.08171936

loop_
_atom_site_label
_atom_site_type_symbol
_atom_site_description
_atom_site_fract_x
_atom_site_fract_y
_atom_site_fract_z
_atom_type_partial_charge
P1    P     P_3+3 0.092730 0.547450 0.611370 0.494404
O1    O     O_2   0.919820 0.530450 0.618560 -0.371279
O2    O     O_3   0.151800 0.530410 0.558380 -0.393333
O3    O     O_3   0.654050 0.426350 0.586890 -0.370742
O4    O     O_2   0.826719 0.448943 0.671748 -0.415762
O5    O     O_3   0.099192 0.623668 0.627222 -0.554736
O6    O     O_3   0.596980 0.371039 0.672849 -0.589829
H1    H     H_    0.764666 0.335037 0.622119 0.192745
C1    C     C_3   0.679993 0.270178 0.665973 0.141838
H2    H     H_    0.767226 0.282584 0.698275 0.102349
P2    P     P_3+3 0.606840 0.368620 0.459370 0.462967
P3    P     P_3+3 0.067954 0.320984 0.563067 0.457948
O7    O     O_2   0.782760 0.360070 0.473730 -0.424090
O8    O     O_3   0.056430 0.397060 0.562000 -0.373531
O9    O     O_2   0.914852 0.293109 0.534440 -0.381194
O10   O     O_3   0.579154 0.359805 0.393714 -0.626684
O11   O     O_3   0.050342 0.307108 0.625017 -0.508755
C2    C     C_3   0.190651 0.328765 0.652607 0.424745
H3    H     H_    0.222110 0.374103 0.644813 0.085437
H4    H     H_    0.294007 0.298811 0.643947 0.063737
C3    C     C_3   0.161665 0.331020 0.707969 -0.951208
H5    H     H_    0.059080 0.361025 0.717584 0.264678
H6    H     H_    0.132451 0.286304 0.717615 0.249566
C4    C     C_3   0.169520 0.349780 0.415365 0.367769
H7    H     H_    0.278621 0.373807 0.431688 0.131468
H8    H     H_    0.077664 0.349296 0.444038 0.100151
C5    C     C_3   0.215732 0.286715 0.397313 -0.969400
H9    H     H_    0.328261 0.286440 0.376367 0.272590
H10   H     H_    0.235299 0.260562 0.429242 0.235565
H11   H     H_    0.117976 0.265270 0.372081 0.260711
Ba1   Ba    Ba6+2 0.848110 0.472730 0.522970 1.564439
C6    C     C_3   0.025545 0.652384 0.589200 0.397912
H12   H     H_    0.908829 0.631194 0.575857 0.109032
H13   H     H_    0.108015 0.651859 0.557890 0.099192
C7    C     C_3   0.994092 0.715750 0.610286 -0.904928
H14   H     H_    0.922313 0.716335 0.644136 0.284638
H15   H     H_    0.924623 0.739644 0.582811 0.228405
H16   H     H_    0.111276 0.739000 0.620418 0.249857
C8    C     C_3   0.720820 0.345202 0.367607 0.936558
H17   H     H_    0.831288 0.356639 0.390844 0.056205
C9    C     C_3   0.724248 0.278794 0.349137 -0.792095
H18   H     H_    0.796663 0.271933 0.315302 0.212762
H19   H     H_    0.599031 0.262369 0.338769 0.218084
P4    P     P_3+3 0.096970 0.452510 0.388620 0.507327
O12   O     O_2   0.269870 0.469530 0.381410 -0.349120
O13   O     O_3   0.037890 0.469550 0.441610 -0.383537
O14   O     O_3   0.535640 0.573600 0.413100 -0.370982
O15   O     O_3   0.105322 0.376050 0.374533 -0.570927
P5    P     P_3+3 0.125318 0.679790 0.441063 0.440775
O16   O     O_3   0.647280 0.568810 0.525990 -0.376661
O17   O     O_3   0.133260 0.602900 0.438000 -0.398314
O18   O     O_2   0.300102 0.703432 0.453966 -0.405304
O19   O     O_3   0.077550 0.698836 0.380918 -0.557271
Ba2   Ba    Ba6+2 0.341700 0.527220 0.477020 1.574245
P6    P     P_3+3 0.649189 0.438198 0.651853 0.457522
C10   C     C_3   0.649715 0.324521 0.638950 0.320651
H20   H     H_    0.555196 0.314416 0.608534 0.042477
H21   H     H_    0.562996 0.255701 0.679787 0.094005
O20   O     O_3   0.542410 0.431140 0.474010 -0.340944
C11   C     C_3   0.544352 0.623050 0.630007 0.404501
H22   H     H_    0.422403 0.608629 0.614010 0.113599
H23   H     H_    0.627521 0.584867 0.629573 0.091909
C12   C     C_3   0.525314 0.649516 0.683618 -0.934136
H24   H     H_    0.455583 0.691165 0.684147 0.279285
H25   H     H_    0.458046 0.618812 0.704310 0.221780
H26   H     H_    0.646615 0.658773 0.702553 0.260790
P7    P     P_3+3 0.593903 0.642952 0.539793 0.450049
O21   O     O_2   0.406930 0.639920 0.526240 -0.368958
O22   O     O_3   0.611618 0.665843 0.603761 -0.560090
H27   H     H_    0.272464 0.347681 0.730063 0.258074
C13   C     C_3   0.141982 0.656047 0.346160 0.510656
H28   H     H_    0.273580 0.651463 0.354385 0.174856
H29   H     H_    0.079490 0.613071 0.346708 0.062481
C14   C     C_3   0.117713 0.674674 0.293970 -0.972806
H30   H     H_    0.172802 0.641506 0.266669 0.258233
H31   H     H_    0.986170 0.677772 0.283892 0.247022
H32   H     H_    0.176590 0.718059 0.292173 0.273915
P8    P     P_3+3 0.541541 0.566221 0.347882 0.465287
C15   C     C_3   0.664726 0.670109 0.359459 0.330248
H33   H     H_    0.784063 0.647502 0.360278 0.065570
O23   O     O_2   0.373100 0.543211 0.326483 -0.363524
O24   O     O_3   0.549979 0.636676 0.328433 -0.543700
H34   H     H_    0.620392 0.678637 0.397742 0.125649
H35   H     H_    0.786893 0.753969 0.361562 0.279678
C16   C     C_3   0.687394 0.729076 0.339547 -0.812049
H36   H     H_    0.573585 0.754986 0.342531 0.256999
H37   H     H_    0.719321 0.722324 0.299845 0.242473
C17   C     C_R   0.104469 0.496418 0.187133 0.563099
O25   O     O_2   0.213883 0.495192 0.219047 -0.531961
N1    N     N_R   0.945170 0.506830 0.201095 -0.165690
C18   C     C_R   0.827854 0.514891 0.163320 0.531278
C19   C     C_2   0.763881 0.533251 0.272180 -0.232849
C20   C     C_3   0.706766 0.518374 0.321943 0.251984
C21   C     C_1   0.976170 0.486042 0.340804 0.310758
C22   C     C_2   0.006200 0.477452 0.292226 -0.152282
C23   C     C_2   0.901505 0.506936 0.254064 0.076464
C24   C     C_R   0.028082 0.503560 0.099350 -0.127795
C25   C     C_R   0.143661 0.488710 0.135920 -0.255937
C26   C     C_R   0.295565 0.466719 0.120246 0.733669
C27   C     C_R   0.870676 0.518611 0.113625 -0.012532
C28   C     C_2   0.851221 0.516671 0.357516 -0.392985
H38   H     H_    0.091301 0.443343 0.279885 0.166553
C29   C     C_2   0.353033 0.488562 0.639450 -0.416380
C30   C     C_R   0.254100 0.474668 0.980956 0.086400
C31   C     C_R   0.004570 0.529411 0.963671 0.021655
C32   C     C_R   0.149750 0.502097 0.947115 0.083188
C33   C     C_R   0.387346 0.442295 0.961401 -0.221586
C34   C     C_R   0.417675 0.438118 0.910612 -0.089633
C35   C     C_R   0.321713 0.468531 0.877562 -0.052826
C36   C     C_R   0.190484 0.502018 0.896195 -0.071337
C37   C     C_R   0.099335 0.535203 0.863920 -0.078709
C38   C     C_R   0.148450 0.538103 0.814641 0.543646
N2    N     N_R   0.273366 0.502854 0.795499 -0.153360
C39   C     C_R   0.353199 0.465730 0.826183 0.595926
C40   C     C_2   0.472275 0.504107 0.728100 -0.119501
C41   C     C_3   0.505749 0.498069 0.672304 0.062038
C42   C     C_1   0.215325 0.508810 0.656111 0.310947
C43   C     C_2   0.180816 0.502999 0.702793 -0.248106
C44   C     C_2   0.314658 0.503026 0.742933 0.137911
O26   O     O_2   0.451628 0.430110 0.808842 -0.600727
C45   C     C_R   0.220287 0.479911 0.032771 -0.019354
C46   C     C_R   0.068697 0.502649 0.048309 0.093527
C47   C     C_R   0.956670 0.524336 0.013147 0.064094
C48   C     C_R   0.332396 0.462994 0.069717 -0.404180
H39   H     H_    0.519576 0.411843 0.897473 0.164927
H40   H     H_    0.466819 0.417678 0.984264 0.132310
H41   H     H_    0.452493 0.447848 0.060719 0.161238
O27   O     O_2   0.684396 0.517624 0.172217 -0.553323
C49   C     C_R   0.756486 0.535243 0.077483 -0.098413
H42   H     H_    0.689039 0.562062 0.251623 0.219086
H43   H     H_    0.633363 0.546443 0.087124 0.170073
C50   C     C_R   0.913440 0.561566 0.930201 -0.190411
C51   C     C_R   0.962191 0.565514 0.881826 -0.040776
O28   O     O_2   0.080554 0.572594 0.789054 -0.593469
C52   C     C_R   0.799369 0.539353 0.028627 -0.219673
H44   H     H_    0.807082 0.586273 0.941232 0.138894
H45   H     H_    0.889820 0.591770 0.858081 0.189321
H46   H     H_    0.055896 0.500665 0.712666 0.196390
H47   H     H_    0.704677 0.552193 0.003041 0.138096
H48   H     H_    0.866528 0.549371 0.389729 0.127063
H49   H     H_    0.357720 0.466747 0.601710 0.167754
H50   H     H_    0.603262 0.052963 0.377919 0.184011
H51   H     H_    0.691390 0.951224 0.373392 0.173170
C53   C     C_R   0.359700 0.334208 0.518386 -0.485591
C54   C     C_R   0.646413 0.944925 0.542101 -0.050099
C55   C     C_R   0.694048 0.885260 0.538636 0.514354
O29   O     O_2   0.703030 0.859771 0.576210 -0.581783
N3    N     N_R   0.731541 0.855547 0.493126 -0.168343
C56   C     C_R   0.723913 0.884224 0.450433 0.534652
O30   O     O_2   0.758148 0.857786 0.410544 -0.595646
C57   C     C_R   0.674919 0.943715 0.452506 -0.057312
C58   C     C_R   0.635971 0.974142 0.498670 -0.015007
C59   C     C_R   0.608395 0.976006 0.587968 -0.114334
C60   C     C_R   0.560334 0.034872 0.590691 -0.151719
C61   C     C_R   0.547942 0.064492 0.547594 -0.056604
C62   C     C_R   0.585875 0.033982 0.501397 -0.018775
C63   C     C_R   0.662547 0.973362 0.409427 -0.124409
C64   C     C_R   0.611640 0.031930 0.412029 -0.080398
C65   C     C_R   0.572765 0.062921 0.457864 -0.061081
C66   C     C_R   0.520545 0.122087 0.461101 0.539729
N4    N     N_R   0.487594 0.152453 0.506845 -0.169486
C67   C     C_R   0.499087 0.123960 0.549721 0.550542
C68   C     C_2   0.926959 0.774996 0.480060 -0.175234
C69   C     C_3   0.974287 0.711413 0.485475 0.183168
C70   C     C_1   0.695064 0.693613 0.503660 0.276305
C71   C     C_2   0.651204 0.749148 0.502023 -0.187931
C72   C     C_2   0.774121 0.793541 0.490372 0.134315
C73   C     C_R   0.297207 0.233718 0.532075 -0.229473
C74   C     C_R   0.256476 0.293497 0.535895 0.169449
C75   C     C_R   0.496438 0.315503 0.492869 0.267489
C76   C     C_R   0.540048 0.255751 0.489979 -0.191453
C77   C     C_R   0.441877 0.214266 0.509937 0.166569
O31   O     O_2   0.502139 0.146339 0.423057 -0.560021
O32   O     O_2   0.467664 0.150502 0.589867 -0.589888
C78   C     C_2   0.825215 0.672539 0.481919 -0.492086
H52   H     H_    0.532454 0.057118 0.626776 0.157251
H53   H     H_    0.216606 0.202531 0.545976 0.167544
H54   H     H_    0.615609 0.954862 0.622027 0.168124
H55   H     H_    0.529604 0.763219 0.511294 0.163723
H56   H     H_    0.019561 0.806528 0.473220 0.149850
H57   H     H_    0.649625 0.241268 0.472310 0.154682
H58   H     H_    0.327702 0.380330 0.521721 0.167825
H59   H     H_    0.828256 0.627242 0.464931 0.165549
O33   O     O_3   0.731089 0.379026 0.326685 -0.667913
C79   C     C_3   0.583265 0.379595 0.297887 -0.151810
H60   H     H_    0.489027 0.405174 0.318825 0.197356
H61   H     H_    0.538438 0.334539 0.284546 0.119558
H62   H     H_    0.604918 0.402197 0.264467 0.165508
O34   O     O_3   0.743853 0.225265 0.632419 -0.559298
C80   C     C_3   0.793000 0.177613 0.658543 -0.034308
H63   H     H_    0.690660 0.160311 0.678232 0.112139
H64   H     H_    0.897108 0.190353 0.685288 0.102289
H65   H     H_    0.834108 0.141448 0.631271 0.150139
C81   C     C_2   0.799539 0.242332 0.386969 0.593996
H66   H     H_    0.862382 0.262739 0.420639 0.018407
O35   O     O_2   0.796650 0.188734 0.379028 -0.526004
O36   O     O_3   0.410059 0.448232 0.154193 -0.535745
C82   C     C_3   0.398422 0.386507 0.152908 -0.179366
H67   H     H_    0.276492 0.372914 0.163730 0.117804
H68   H     H_    0.489640 0.371600 0.180260 0.158301
H69   H     H_    0.425933 0.364050 0.115587 0.110076
C83   C     C_2   0.612622 0.521821 0.763195 0.600831
H70   H     H_    0.735286 0.513172 0.751699 0.048317
O37   O     O_2   0.593888 0.549113 0.803963 -0.606325

loop_
_geom_bond_atom_site_label_1
_geom_bond_atom_site_label_2
_geom_bond_distance
_ccdc_geom_bond_type
C81   O35   1.220121 D    
C76   C77   1.412968 A    
C12   H25   1.107481 S    
C51   H45   1.083314 S    
C70   C71   1.324146 D    
C5    H10   1.106559 S    
C2    C3    1.519852 S    
C66   O31   1.222014 D    
C19   H42   1.080973 S    
C68   C69   1.524738 S    
C4    C5    1.524411 S    
O6    P6    1.753212 S    
O8    Ba1   2.696477 S    
H1    C10   1.107706 S    
C30   C32   1.420000 A    
N4    C67   1.387587 Am   
N1    C18   1.398374 Am   
C8    C9    1.545490 S    
C16   H36   1.110810 S    
C34   C35   1.404182 A    
C52   H47   1.079277 S    
C80   H63   1.113127 S    
C14   H31   1.109485 S    
C11   C12   1.521686 S    
C57   C63   1.407545 A    
C5    H9    1.108831 S    
C7    H15   1.106072 S    
C4    H8    1.109162 S    
C55   O29   1.222474 D    
C56   C57   1.414017 A    
C65   C66   1.413610 A    
C32   C36   1.430088 A    
O2    Ba2   2.751678 S    
C1    O34   1.411990 S    
C79   H61   1.110346 S    
Ba2   O21   2.805951 S    
P6    C41   1.863317 S    
P8    C20   1.861389 S    
C73   H53   1.082647 S    
C40   C83   1.487230 S    
C53   C75   1.391988 A    
C19   C23   1.369911 D    
C10   H20   1.110041 S    
C31   C47   1.427125 A    
C69   C78   1.509613 S    
C11   H23   1.108929 S    
C2    H3    1.112354 S    
C9    H18   1.111679 S    
Ba1   O20   2.899997 S    
C43   C44   1.508934 S    
P5    C69   1.860927 S    
C80   H65   1.109481 S    
C49   C52   1.394324 A    
N4    C77   1.456379 S    
C63   C64   1.397901 A    
C58   C62   1.423468 A    
C21   C28   1.315206 D    
C50   C51   1.396495 A    
P5    O17   1.751159 S    
Ba1   O13   2.751092 S    
P3    O11   1.748116 S    
C57   C58   1.410235 A    
H51   C63   1.083234 S    
C82   H67   1.113543 S    
C18   C27   1.414548 A    
C1    H2    1.115391 S    
C35   C36   1.405983 A    
C8    O33   1.420920 S    
C22   H38   1.084540 S    
C24   C25   1.407204 A    
C54   C59   1.407478 A    
P7    C70   1.819330 S    
C81   H66   1.083827 S    
C12   H26   1.110697 S    
P2    Ba1   3.368808 S    
N2    C44   1.475212 S    
C3    H5    1.111152 S    
C5    H11   1.108366 S    
C9    H19   1.111044 S    
C24   C46   1.431164 A    
C26   O36   1.382142 S    
C29   C42   1.307046 D    
O6    C10   1.407913 S    
H50   C64   1.083274 S    
P2    O20   1.541427 S    
C29   H49   1.086701 S    
C38   N2    1.391449 Am   
C28   H48   1.085536 S    
P4    O13   1.542642 S    
C54   C55   1.413197 A    
C31   C50   1.414116 A    
C55   N3    1.385672 Am   
Ba2   O20   2.745330 S    
C16   H37   1.110112 S    
C61   C67   1.413127 A    
C53   H58   1.081602 S    
C46   C47   1.420421 A    
C18   O27   1.218197 D    
P7    O21   1.566874 D    
C4    O15   1.393953 S    
C6    C7    1.523864 S    
C7    H16   1.110663 S    
H35   C16   1.108828 S    
C83   H70   1.083718 S    
C20   C28   1.496825 S    
C8    H17   1.095851 S    
C13   H29   1.110811 S    
C27   C49   1.405366 A    
C37   C51   1.403787 A    
C79   H62   1.108564 S    
C30   C45   1.431354 A    
C53   C74   1.395326 A    
C14   H32   1.110606 S    
C36   C37   1.406913 A    
C47   C52   1.412193 A    
C11   H22   1.110568 S    
P1    O2    1.542617 S    
C7    H14   1.110869 S    
C6    H13   1.108681 S    
P1    Ba1   3.366030 S    
C68   C72   1.360953 D    
O4    P6    1.544962 D    
C9    C81   1.498802 S    
C15   O24   1.401816 S    
P2    O10   1.765458 S    
P8    O24   1.749084 S    
O36   C82   1.410162 S    
P3    O9    1.547824 D    
C50   H44   1.079041 S    
P5    O18   1.549391 D    
O13   Ba2   2.901898 S    
C82   H69   1.113018 S    
O11   C2    1.405379 S    
C45   C46   1.417728 A    
C1    C10   1.521701 S    
P1    C42   1.836917 S    
C4    H7    1.101880 S    
O2    Ba1   2.901156 S    
C60   C61   1.407611 A    
C83   O37   1.220856 D    
C35   C39   1.417602 A    
O14   Ba2   2.705013 S    
C73   C74   1.400566 A    
P3    O8    1.744123 S    
O12   Ba2   2.803971 S    
C40   C44   1.378772 D    
C3    H6    1.110677 S    
O3    P6    1.747222 S    
C64   C65   1.407800 A    
C34   H39   1.083451 S    
Ba1   O16   2.745921 S    
O19   C13   1.402172 S    
C14   H30   1.110860 S    
C61   C62   1.409478 A    
C24   C27   1.403327 A    
P4    O12   1.504597 D    
C78   H59   1.086254 S    
N2    C39   1.392529 Am   
O16   P7    1.755130 S    
O34   C80   1.409398 S    
C59   H54   1.083216 S    
C1    H21   1.113518 S    
O5    C6    1.392535 S    
C80   H64   1.112492 S    
P1    O5    1.747737 S    
C37   C38   1.417042 A    
O7    Ba1   2.805521 S    
C62   C65   1.409391 A    
C33   H40   1.078497 S    
C17   N1    1.396720 Am   
C12   H24   1.110816 S    
C13   C14   1.519498 S    
C82   H68   1.108213 S    
N1    C23   1.490617 S    
P3    C74   1.831952 S    
C67   O32   1.221833 D    
C70   C78   1.313734 D    
C31   C32   1.418380 A    
C42   C43   1.325436 D    
C60   H52   1.083285 S    
C3    H27   1.110656 S    
O17   Ba2   2.697126 S    
C66   N4    1.387551 Am   
C29   C41   1.506677 S    
C22   C23   1.524988 S    
C13   H28   1.104183 S    
O16   Ba2   2.899263 S    
P4    O15   1.749125 S    
C56   O30   1.221148 D    
C6    H12   1.104096 S    
C15   H34   1.109743 S    
P2    O7    1.501439 D    
P8    O23   1.547831 D    
C79   H60   1.111049 S    
C71   C72   1.501546 S    
C11   O22   1.397739 S    
P5    O19   1.752825 S    
P1    O1    1.504442 D    
C38   O28   1.221739 D    
C19   C20   1.516904 S    
C15   C16   1.518632 S    
C2    H4    1.110444 S    
N3    C56   1.385094 Am   
Ba1   Ba2   4.523753 S    
C21   C22   1.339393 D    
C76   H57   1.076885 S    
C17   C25   1.426806 A    
O3    Ba1   2.705631 S    
P4    C21   1.826603 S    
O10   C8    1.413883 S    
C15   H33   1.111492 S    
P4    Ba2   3.366441 S    
C49   H43   1.083549 S    
C73   C77   1.409630 A    
C54   C58   1.409869 A    
C17   O25   1.219593 D    
P2    C75   1.853731 S    
C25   C26   1.415547 A    
C75   C76   1.406665 A    
C48   H41   1.078670 S    
C68   H56   1.085566 S    
C45   C48   1.411985 A    
N3    C72   1.454457 S    
O1    Ba1   2.803595 S    
O33   C79   1.414622 S    
C71   H55   1.085002 S    
O14   P8    1.753013 S    
P7    O22   1.747988 S    
C59   C60   1.397361 A    
C43   H46   1.078729 S    
C30   C33   1.415105 A    
C39   O26   1.221935 D    
C40   C41   1.535484 S    
C26   C48   1.404892 A    
C33   C34   1.398267 A    
