data_mof_unit_17776.cif
_audit_creation_date              2012-12-10T17:25:17-0500
_audit_creation_method            fapswitch 2.2
_symmetry_space_group_name_H-M    P1
_symmetry_Int_Tables_number       1
_space_group_crystal_system       triclinic
_cell_length_a                    27.815167
_cell_length_b                    10.775108
_cell_length_c                    9.627324
_cell_angle_alpha                 89.936075
_cell_angle_beta                  89.860734
_cell_angle_gamma                 94.049526
_cell_volume                      2878.20433611

loop_
_atom_site_label
_atom_site_type_symbol
_atom_type_description
_atom_site_fract_x
_atom_site_fract_y
_atom_site_fract_z
_atom_type_partial_charge
C1    C     C_R   0.497730 0.262527 0.500093 0.885235
C2    C     C_R   0.279184 0.504341 0.627760 -0.065161
C3    C     C_R   0.253882 0.505437 0.502268 0.339412
C4    C     C_R   0.102088 0.505351 0.502830 -0.047908
C5    C     C_R   0.124849 0.399825 0.547760 -0.021264
C6    C     C_R   0.096861 0.294800 0.592762 -0.145083
C7    C     C_R   0.130615 0.611149 0.458244 -0.025737
C8    C     C_R   0.354682 0.502129 0.500783 -0.037836
C9    C     C_R   0.645435 0.502190 0.499778 -0.039905
C10   C     C_R   0.971601 0.394108 0.537363 -0.046494
C11   C     C_R   0.977553 0.614787 0.465638 0.064905
C12   C     C_R   0.407588 0.500376 0.500143 0.855342
C13   C     C_R   0.949280 0.504165 0.501242 0.068929
C14   C     C_R   0.941794 0.284973 0.564759 -0.285052
C15   C     C_R   0.891861 0.284701 0.562656 0.665970
C16   C     C_R   0.869385 0.393895 0.532096 -0.157827
C17   C     C_R   0.898091 0.503667 0.500696 -0.121624
C18   C     C_R   0.875506 0.613150 0.468699 0.006496
C19   C     C_R   0.825024 0.611399 0.468915 0.545145
C20   C     C_R   0.818824 0.396558 0.530877 0.582285
C21   C     C_R   0.720909 0.497886 0.625452 -0.093396
C22   C     C_R   0.670763 0.496954 0.625655 -0.222262
C23   C     C_R   0.498951 0.737067 0.500019 0.810837
C24   C     C_R   0.671259 0.509386 0.373918 -0.179118
C25   C     C_R   0.721431 0.510785 0.374102 -0.106922
C26   C     C_R   0.746371 0.504644 0.499769 0.342503
C27   C     C_R   0.022728 0.396110 0.543767 0.077982
C28   C     C_R   0.050936 0.505041 0.502409 0.072800
C29   C     C_R   0.028627 0.613635 0.460587 0.040035
C30   C     C_R   0.046897 0.292829 0.591301 -0.201723
C31   C     C_R   0.108337 0.716027 0.413274 -0.133764
C32   C     C_R   0.953535 0.723447 0.437117 -0.202179
C33   C     C_R   0.903614 0.722281 0.438349 -0.120926
C34   C     C_R   0.592436 0.500487 0.499922 0.827691
C35   C     C_R   0.058448 0.717432 0.414031 -0.204287
C36   C     C_R   0.414986 0.110571 0.623888 0.481198
C37   C     C_R   0.377867 0.035954 0.685780 -0.251551
C38   C     C_R   0.379416 0.907393 0.687931 0.606588
C39   C     C_R   0.418059 0.852117 0.627534 -0.281045
C40   C     C_R   0.456558 0.925242 0.565592 -0.059995
C41   C     C_R   0.455444 0.056617 0.564547 -0.020740
C42   C     C_R   0.494137 0.128089 0.499831 -0.060187
C43   C     C_R   0.531051 0.070743 0.432291 -0.225702
C44   C     C_R   0.531643 0.942953 0.432260 -0.164911
C45   C     C_R   0.175376 0.401915 0.547033 0.538571
C46   C     C_R   0.495429 0.870275 0.500271 -0.032217
C47   C     C_R   0.567140 0.671853 0.136216 0.600730
C48   C     C_R   0.598132 0.750913 0.057977 -0.222465
C49   C     C_R   0.596837 0.747982 0.916137 -0.319817
C50   C     C_R   0.564422 0.665610 0.850189 -0.144384
C51   C     C_R   0.531934 0.582038 0.923424 0.146901
C52   C     C_R   0.532459 0.583177 0.073250 0.079432
C53   C     C_R   0.469574 0.422167 0.074159 -0.060209
C54   C     C_R   0.469609 0.422197 0.926598 -0.037485
C55   C     C_R   0.181049 0.609369 0.459080 0.550101
C56   C     C_R   0.278991 0.505284 0.376041 -0.093563
C57   C     C_R   0.329070 0.503579 0.375141 -0.207476
C58   C     C_R   0.329260 0.502800 0.627185 -0.132684
Cu1   Cu    Cu3+1 0.500000 0.499990 0.640660 0.980841
Cu2   Cu    Cu3+1 0.500000 0.500010 0.359340 1.005584
H1    H     H_    0.347985 0.502037 0.725641 0.171265
H2    H     H_    0.259606 0.505789 0.278656 0.148912
H3    H     H_    0.129437 0.798053 0.376787 0.192574
H4    H     H_    0.972183 0.812353 0.415708 0.143193
H5    H     H_    0.652779 0.513927 0.275355 0.171204
H6    H     H_    0.887105 0.808085 0.415461 0.201599
H7    H     H_    0.740973 0.515887 0.276611 0.144221
H8    H     H_    0.044488 0.801188 0.374701 0.143441
H9    H     H_    0.560220 0.125655 0.381610 0.151140
H10   H     H_    0.347244 0.078282 0.730499 0.200173
H11   H     H_    0.259976 0.504788 0.725708 0.148870
H12   H     H_    0.416923 0.751755 0.628062 0.175589
H13   H     H_    0.561223 0.900788 0.381651 0.195237
H14   H     H_    0.444572 0.358200 0.129304 0.143710
H15   H     H_    0.623728 0.816205 0.108997 0.190123
H16   H     H_    0.621171 0.810318 0.856337 0.194646
H17   H     H_    0.566759 0.672421 0.740884 0.220660
H18   H     H_    0.444619 0.358191 0.871975 0.173713
H19   H     H_    0.113492 0.213061 0.629745 0.191686
H20   H     H_    0.651898 0.491730 0.724261 0.167006
H21   H     H_    0.740056 0.493410 0.722930 0.144446
H22   H     H_    0.955877 0.196412 0.585845 0.169019
H23   H     H_    0.028375 0.209059 0.630897 0.145975
H24   H     H_    0.347643 0.503218 0.276167 0.165855
N1    N     N_R   0.202322 0.505672 0.502971 -0.469542
N2    N     N_R   0.797904 0.504222 0.499766 -0.481703
N3    N     N_R   0.500460 0.501210 0.147910 -0.187224
N4    N     N_R   0.500480 0.501290 0.852040 -0.189030
O1    O     O_R   0.500000 0.319640 0.618810 -0.541872
O2    O     O_2   0.790633 0.292617 0.559737 -0.444694
O3    O     O_2   0.208643 0.710707 0.417367 -0.513833
O4    O     O_2   0.803145 0.716150 0.439409 -0.512146
O5    O     O_R   0.500000 0.319660 0.381240 -0.593387
O6    O     O_R   0.430260 0.500010 0.618770 -0.556985
O7    O     O_R   0.430270 0.500030 0.381200 -0.593915
O8    O     O_R   0.500000 0.680340 0.618760 -0.617155
O9    O     O_R   0.500000 0.680360 0.381190 -0.508877
O10   O     O_R   0.569730 0.499970 0.618800 -0.621649
O11   O     O_R   0.569740 0.499990 0.381230 -0.520996
O12   O     O_2   0.197426 0.300700 0.588803 -0.526725
F1    F     F_    0.409499 0.234339 0.618209 -0.686336
F2    F     F_    0.342765 0.835573 0.746354 -0.642531
F3    F     F_    0.574287 0.690415 0.271686 -0.681396
F4    F     F_    0.865888 0.175971 0.590502 -0.606875

loop_
_geom_bond_atom_site_label_1
_geom_bond_atom_site_label_2
_ccdc_geom_bond_type
C10   C27   A    
C21   C26   A    
C3    N1    S    
C41   C42   A    
C53   H14   S    
C25   H7    S    
C7    C55   A    
Cu2   O11   S    
C53   C54   A    
C56   C57   A    
C40   C46   A    
C28   C29   A    
C36   C37   A    
C5    C6    A    
C9    C22   A    
C15   C16   A    
C23   O8    A    
C18   C19   A    
Cu1   O1    S    
C30   H23   S    
Cu1   N4    S    
C55   O3    S    
C19   O4    S    
C8    C58   A    
C16   C17   A    
C20   N2    A    
C39   H12   S    
C12   O7    A    
Cu1   O6    S    
C15   F4    S    
C26   N2    S    
Cu2   O5    S    
C19   N2    A    
C58   H1    S    
Cu1   Cu2   S    
C43   H9    S    
C23   C46   S    
C21   C22   A    
C27   C30   A    
C48   H15   S    
C12   O6    A    
C36   C41   A    
C4    C7    A    
C4    C28   A    
Cu2   N3    S    
C44   C46   A    
C33   H6    S    
C17   C18   A    
C49   H16   S    
C47   F3    S    
C51   C52   A    
C31   H3    S    
C7    C31   A    
C24   C25   A    
C32   H4    S    
Cu2   O9    S    
C10   C14   A    
C39   C40   A    
C50   C51   A    
C25   C26   A    
C20   O2    S    
C45   O12   S    
C36   F1    S    
C55   N1    A    
C45   N1    A    
C43   C44   A    
C37   C38   A    
C8    C57   A    
C3    C56   A    
C47   C48   A    
C16   C20   A    
C34   O11   A    
C57   H24   S    
C53   N3    A    
C24   H5    S    
C48   C49   A    
C6    C30   A    
C21   H21   S    
C11   C32   A    
C9    C34   S    
C31   C35   A    
C42   C43   A    
C14   H22   S    
C2    H11   S    
C50   H17   S    
C40   C41   A    
C1    O1    A    
C23   O9    A    
C52   N3    A    
C4    C5    A    
C10   C13   A    
C51   N4    A    
C2    C58   A    
C9    C24   A    
C47   C52   A    
C29   C35   A    
C13   C17   A    
C32   C33   A    
C2    C3    A    
C22   H20   S    
C38   F2    S    
C54   N4    A    
C11   C13   A    
C6    H19   S    
C38   C39   A    
C5    C45   A    
C35   H8    S    
C34   O10   A    
C56   H2    S    
C44   H13   S    
C18   C33   A    
Cu2   O7    S    
C1    C42   S    
C11   C29   A    
C1    O5    A    
C49   C50   A    
Cu1   O8    S    
C27   C28   A    
Cu1   O10   S    
C14   C15   A    
C37   H10   S    
C8    C12   S    
C54   H18   S    
