data_mof_unit_65834.cif
_audit_creation_date              2012-12-10T16:42:42-0500
_audit_creation_method            fapswitch 2.2
_symmetry_space_group_name_H-M    P1
_symmetry_Int_Tables_number       1
_space_group_crystal_system       triclinic
_cell_length_a                    15.905384
_cell_length_b                    17.953044
_cell_length_c                    29.245688
_cell_angle_alpha                 89.942014
_cell_angle_beta                  90.298634
_cell_angle_gamma                 89.988763
_cell_volume                      8350.99004684

loop_
_atom_site_label
_atom_site_type_symbol
_atom_type_description
_atom_site_fract_x
_atom_site_fract_y
_atom_site_fract_z
_atom_type_partial_charge
C1    C     C_R   0.500137 0.389798 0.058778 0.748303
C2    C     C_R   0.500123 0.610013 0.058916 0.744246
C3    C     C_R   0.610314 0.001020 0.666691 0.130728
C4    C     C_R   0.223351 0.001175 0.731995 0.132690
C5    C     C_R   0.692129 0.001324 0.582201 0.048585
C6    C     C_R   0.061292 0.002441 0.694087 0.041910
C7    C     C_1   0.479116 0.932929 0.809906 0.001071
C8    C     C_1   0.479192 0.067612 0.809917 0.001042
C9    C     C_1   0.521070 0.000444 0.742696 -0.004633
C10   C     C_1   0.378223 0.000485 0.765475 -0.002904
C11   C     C_1   0.487010 0.876489 0.832063 -0.057933
C12   C     C_1   0.487109 0.124004 0.832039 -0.058125
C13   C     C_1   0.307317 0.000739 0.750595 -0.060180
C14   C     C_1   0.563403 0.000658 0.708606 -0.057469
C15   C     C_R   0.585153 0.096276 0.318863 -0.188334
C16   C     C_R   0.402921 0.972122 0.296360 -0.191374
C17   C     C_R   0.375658 0.104375 0.300519 -0.203851
C18   C     C_R   0.618575 0.978080 0.283876 -0.205781
C19   C     C_R   0.646015 0.084025 0.352466 0.154487
C20   C     C_R   0.341809 0.958989 0.329590 0.157752
C21   C     C_R   0.314474 0.091793 0.333638 0.158881
C22   C     C_R   0.679968 0.965341 0.317442 0.161115
C23   C     C_R   0.570898 0.182744 0.228605 -0.206174
C24   C     C_R   0.427444 0.969087 0.190928 -0.204163
C25   C     C_R   0.426451 0.164197 0.205456 -0.186786
C26   C     C_R   0.573572 0.001840 0.181162 -0.189358
C27   C     C_R   0.568214 0.255611 0.211794 0.162151
C28   C     C_R   0.430702 0.924659 0.151727 0.157239
C29   C     C_R   0.423099 0.236981 0.188496 0.147857
C30   C     C_R   0.577488 0.957610 0.141938 0.154637
C31   C     C_R   0.499742 0.610828 0.941619 0.773878
C32   C     C_R   0.499753 0.389256 0.941593 0.774326
C33   C     C_3   0.497525 0.058138 0.249555 0.016724
C34   C     C_R   0.571755 0.044957 0.283024 0.023830
C35   C     C_R   0.420193 0.044822 0.280448 0.023693
C36   C     C_R   0.694119 0.018544 0.351815 0.031930
C37   C     C_R   0.297603 0.019017 0.348591 0.031159
C38   C     C_R   0.498428 0.137343 0.228537 0.023341
C39   C     C_R   0.499698 0.006114 0.207504 0.023312
C40   C     C_R   0.493417 0.283856 0.192812 0.008821
C41   C     C_R   0.506110 0.918076 0.127233 0.013704
C42   C     C_1   0.237352 0.007285 0.384460 0.042821
C43   C     C_1   0.757779 0.007120 0.386279 0.043517
C44   C     C_1   0.186250 0.001558 0.414501 -0.111372
C45   C     C_1   0.811376 0.001548 0.415309 -0.113781
C46   C     C_1   0.488395 0.360848 0.178854 0.021067
C47   C     C_1   0.509874 0.871893 0.086916 0.051566
C48   C     C_1   0.484087 0.425467 0.167768 0.054861
C49   C     C_1   0.513000 0.833259 0.053242 0.033525
C50   C     C_R   0.123726 0.000125 0.449521 0.846951
C51   C     C_R   0.876066 0.000133 0.449493 0.848187
C52   C     C_R   0.569367 0.780543 0.873517 -0.147754
C53   C     C_R   0.417914 0.230026 0.868842 -0.150251
C54   C     C_R   0.417852 0.770345 0.868884 -0.149860
C55   C     C_R   0.569461 0.219941 0.873345 -0.147429
C56   C     C_R   0.893182 0.999980 0.569405 0.691116
C57   C     C_R   0.107225 0.999970 0.569409 0.701616
C58   C     C_R   0.572550 0.715208 0.899807 -0.179666
C59   C     C_R   0.420863 0.294963 0.895061 -0.176250
C60   C     C_R   0.420826 0.705315 0.895102 -0.176886
C61   C     C_R   0.572620 0.285184 0.899638 -0.178890
C62   C     C_R   0.634947 0.933634 0.646615 -0.157447
C63   C     C_R   0.179022 0.068417 0.727920 -0.158367
C64   C     C_R   0.186307 0.934571 0.717021 -0.160626
C65   C     C_R   0.627285 0.068581 0.644490 -0.159723
C66   C     C_R   0.675903 0.933926 0.604401 -0.169382
C67   C     C_R   0.098053 0.068912 0.708983 -0.161171
C68   C     C_R   0.105329 0.935335 0.698099 -0.174257
C69   C     C_R   0.668247 0.068602 0.602282 -0.156026
C70   C     C_3   0.465214 0.000337 0.782364 0.019785
C71   C     C_R   0.491878 0.808510 0.858281 0.136268
C72   C     C_R   0.491965 0.191943 0.858197 0.136962
C73   C     C_R   0.498120 0.677153 0.911229 -0.035077
C74   C     C_R   0.498157 0.323103 0.911150 -0.033877
Cu1   Cu    Cu3+1 0.415470 0.500000 0.000080 1.002800
Cu2   Cu    Cu3+1 0.584530 0.500000 0.000080 0.997266
Cu3   Cu    Cu3+1 0.000000 0.072960 0.508900 1.008851
Cu4   Cu    Cu3+1 0.000000 0.927040 0.508900 0.996131
H1    H     H_    0.633028 0.695261 0.911778 0.161458
H2    H     H_    0.362282 0.322578 0.903156 0.161560
H3    H     H_    0.362264 0.677623 0.903148 0.161720
H4    H     H_    0.633103 0.305146 0.911554 0.161109
H5    H     H_    0.694662 0.882026 0.588698 0.144978
H6    H     H_    0.063749 0.120727 0.705744 0.137631
H7    H     H_    0.076646 0.884050 0.686448 0.139187
H8    H     H_    0.681075 0.120603 0.584943 0.150655
H9    H     H_    0.627154 0.809538 0.865454 0.139043
H10   H     H_    0.357592 0.209092 0.857209 0.136817
H11   H     H_    0.357532 0.791266 0.857204 0.138102
H12   H     H_    0.627268 0.191023 0.865231 0.138689
H13   H     H_    0.621613 0.881050 0.663282 0.138434
H14   H     H_    0.207103 0.120288 0.739199 0.135384
H15   H     H_    0.220054 0.882298 0.719826 0.137182
H16   H     H_    0.607986 0.120972 0.659508 0.139559
H17   H     H_    0.547434 0.146342 0.320876 0.177923
H18   H     H_    0.438825 0.925368 0.283631 0.176350
H19   H     H_    0.390428 0.161584 0.292448 0.178882
H20   H     H_    0.606480 0.934232 0.259447 0.177868
H21   H     H_    0.630096 0.162404 0.241932 0.178818
H22   H     H_    0.367457 0.975237 0.207673 0.179202
H23   H     H_    0.371347 0.129162 0.202209 0.177835
H24   H     H_    0.628930 0.032770 0.191470 0.176494
O1    O     O_R   0.429360 0.416280 0.044700 -0.563077
O2    O     O_R   0.570640 0.583720 0.044700 -0.572020
O3    O     O_R   0.570640 0.416280 0.044700 -0.571511
O4    O     O_R   0.429360 0.583720 0.044700 -0.567235
O5    O     O_R   0.427420 0.583550 0.955440 -0.589408
O6    O     O_R   0.572580 0.416450 0.955440 -0.587811
O7    O     O_R   0.572580 0.583550 0.955440 -0.587675
O8    O     O_R   0.427420 0.416450 0.955440 -0.589111
O9    O     O_R   0.093410 0.059470 0.464300 -0.567107
O10   O     O_R   0.906590 0.940530 0.464300 -0.573195
O11   O     O_R   0.906590 0.059470 0.464300 -0.566784
O12   O     O_R   0.093410 0.940530 0.464300 -0.571517
O13   O     O_R   0.920740 0.061400 0.553530 -0.556728
O14   O     O_R   0.079260 0.938600 0.553530 -0.559304
O15   O     O_R   0.079260 0.061400 0.553530 -0.556173
O16   O     O_R   0.920740 0.938600 0.553530 -0.561066
I1    I     I_    0.661136 0.166542 0.403816 -0.314320
I2    I     I_    0.321588 0.847572 0.351013 -0.289240
I3    I     I_    0.252569 0.186134 0.361465 -0.288066
I4    I     I_    0.747963 0.863787 0.315073 -0.281625
I5    I     I_    0.679273 0.320643 0.216702 -0.282029
I6    I     I_    0.318822 0.869711 0.130849 -0.305202
I7    I     I_    0.309236 0.273389 0.157707 -0.302786
I8    I     I_    0.693152 0.953319 0.106231 -0.307435

loop_
_geom_bond_atom_site_label_1
_geom_bond_atom_site_label_2
_ccdc_geom_bond_type
Cu2   O2    S    
C23   H21   S    
C30   I8    S    
Cu1   O5    S    
Cu2   O3    S    
C29   I7    S    
C31   O7    A    
C60   C73   A    
C9    C14   T    
C7    C70   S    
C53   C59   A    
C47   C49   T    
C54   C60   A    
Cu3   Cu4   S    
C7    C11   T    
C4    C63   A    
C51   O11   A    
C32   O8    A    
C64   C68   A    
C17   C35   A    
Cu4   O16   S    
C64   H15   S    
C55   H12   S    
Cu3   O15   S    
C61   H4    S    
C16   C35   A    
C32   C74   S    
C11   C71   S    
C26   C39   A    
C31   C73   S    
C45   C51   S    
C28   C41   A    
C4    C13   S    
C24   C39   A    
C37   C42   S    
Cu3   O9    S    
C5    C69   A    
C66   H5    S    
C15   C19   A    
C54   C71   A    
Cu2   O7    S    
C63   H14   S    
C30   C41   A    
C23   C27   A    
C1    O1    A    
C15   C34   A    
C55   C72   A    
C16   C20   A    
C6    C68   A    
C12   C72   S    
C19   I1    S    
C67   H6    S    
Cu2   O6    S    
C24   H22   S    
Cu1   O1    S    
C68   H7    S    
C3    C65   A    
C42   C44   T    
Cu3   O11   S    
C22   I4    S    
C57   O14   A    
C46   C48   T    
C25   C29   A    
C63   C67   A    
C16   H18   S    
C62   C66   A    
C9    C70   S    
C54   H11   S    
C27   I5    S    
C2    O4    A    
C17   C21   A    
C50   O12   A    
C40   C46   S    
Cu1   Cu2   S    
C25   C38   A    
C43   C45   T    
C60   H3    S    
C51   O10   A    
C2    O2    A    
C27   C40   A    
C8    C12   T    
C62   H13   S    
C33   C34   S    
C41   C47   S    
C33   C39   S    
C18   C34   A    
C59   C74   A    
C3    C14   S    
C52   C58   A    
C58   H1    S    
C10   C70   S    
C65   H16   S    
C26   C30   A    
C20   I2    S    
C57   O15   A    
C3    C62   A    
C44   C50   S    
Cu4   O12   S    
Cu1   O8    S    
C18   C22   A    
C31   O5    A    
C52   H9    S    
Cu4   O14   S    
C24   C28   A    
C5    C66   A    
C10   C13   T    
C59   H2    S    
C28   I6    S    
C61   C74   A    
C23   C38   A    
C22   C36   A    
C4    C64   A    
C8    C70   S    
C33   C38   S    
C19   C36   A    
C52   C71   A    
C6    C67   A    
C26   H24   S    
C15   H17   S    
C20   C37   A    
C25   H23   S    
C65   C69   A    
C55   C61   A    
C29   C40   A    
C50   O9    A    
C33   C35   S    
C56   O13   A    
C53   H10   S    
C21   I3    S    
C56   O16   A    
C21   C37   A    
Cu1   O4    S    
C32   O6    A    
C36   C43   S    
Cu4   O10   S    
C18   H20   S    
Cu3   O13   S    
C53   C72   A    
C17   H19   S    
C69   H8    S    
C58   C73   A    
C1    O3    A    
