data_mof_unit_23419.cif
_audit_creation_date              2012-10-26T20:38:25-0400
_audit_creation_method            fapswitch 2.2
_symmetry_space_group_name_H-M    P1
_symmetry_Int_Tables_number       1
_space_group_crystal_system       triclinic
_cell_length_a                    15.837292
_cell_length_b                    11.125489
_cell_length_c                    9.807673
_cell_angle_alpha                 111.159902
_cell_angle_beta                  97.702352
_cell_angle_gamma                 91.547399
_cell_volume                      1591.7130612

loop_
_atom_site_label
_atom_site_type_symbol
_atom_type_description
_atom_site_fract_x
_atom_site_fract_y
_atom_site_fract_z
_atom_type_partial_charge
C1    C     C_R   0.494761 0.254917 0.440895 0.553515
C2    C     C_3   0.019412 0.504466 0.371859 -0.120481
C3    C     C_3   0.026418 0.390990 0.516443 -0.115499
C4    C     C_3   0.973575 0.608894 0.483512 -0.115483
C5    C     C_1   0.250523 0.499458 0.504358 -0.037257
C6    C     C_1   0.749474 0.500489 0.495626 -0.037115
C7    C     C_3   0.038400 0.602653 0.612757 0.026958
C8    C     C_3   0.961592 0.397230 0.387196 0.026957
C9    C     C_3   0.083143 0.499314 0.502420 0.036497
C10   C     C_3   0.916849 0.500569 0.497533 0.036491
C11   C     C_1   0.174953 0.498912 0.504275 -0.066118
C12   C     C_R   0.505187 0.745094 0.559104 0.553370
C13   C     C_1   0.825042 0.500998 0.495693 -0.066070
C14   C     C_2   0.483143 0.117702 0.409950 -0.136540
C15   C     C_2   0.516624 0.882352 0.590037 -0.136642
C16   C     C_R   0.915712 0.279584 0.264542 0.038175
C17   C     C_R   0.924765 0.253658 0.116271 -0.102818
C18   C     C_R   0.881229 0.144182 0.003791 -0.111854
C19   C     C_R   0.828061 0.060468 0.038301 -0.096464
C20   C     C_R   0.818857 0.085507 0.185560 -0.116677
C21   C     C_R   0.862741 0.194336 0.298420 -0.096313
C22   C     C_R   0.084298 0.720287 0.735401 0.038141
C23   C     C_2   0.516534 0.065659 0.507782 -0.051558
C24   C     C_R   0.075277 0.746201 0.883679 -0.102870
C25   C     C_R   0.118851 0.855648 0.996153 -0.111888
C26   C     C_R   0.172020 0.939350 0.961625 -0.096467
C27   C     C_R   0.181190 0.914322 0.814356 -0.116701
C28   C     C_R   0.137272 0.805520 0.701504 -0.096369
C29   C     C_R   0.412004 0.861451 0.370862 0.065396
C30   C     C_R   0.332036 0.835254 0.405919 -0.079847
C31   C     C_R   0.266313 0.761838 0.294023 -0.109640
C32   C     C_R   0.279856 0.714318 0.146593 -0.095107
C33   C     C_R   0.359058 0.740234 0.110700 -0.102923
C34   C     C_2   0.483482 0.934195 0.491848 -0.051460
C35   C     C_R   0.425255 0.812526 0.222343 -0.077776
C36   C     C_R   0.588333 0.138153 0.628208 0.065163
C37   C     C_R   0.575450 0.187731 0.776904 -0.077234
C38   C     C_R   0.641905 0.260073 0.887958 -0.102486
C39   C     C_R   0.721012 0.285336 0.851293 -0.095043
C40   C     C_R   0.734198 0.237119 0.703687 -0.109849
C41   C     C_R   0.668206 0.163688 0.592379 -0.080283
C42   C     C_2   0.507687 0.510379 0.081097 -0.029899
C43   C     C_2   0.492356 0.489552 0.918884 -0.030175
C44   C     C_R   0.339923 0.499891 0.501506 0.550932
C45   C     C_R   0.660076 0.500097 0.498491 0.551126
C46   C     C_3   0.980581 0.495418 0.628095 -0.120494
Cu1   Cu    Cu3+1 0.514700 0.521810 0.644910 0.936073
Cu2   Cu    Cu3+1 0.485300 0.478190 0.355090 0.936262
H1    H     H_    0.049214 0.301471 0.528898 0.101366
H2    H     H_    0.416195 0.377684 0.065868 0.198078
H3    H     H_    0.965225 0.317537 0.087054 0.091157
H4    H     H_    0.888307 0.124672 0.889682 0.106306
H5    H     H_    0.794040 0.976243 0.950972 0.111230
H6    H     H_    0.777723 0.020611 0.212312 0.098406
H7    H     H_    0.855093 0.212598 0.412111 0.096199
H8    H     H_    0.034819 0.682325 0.912910 0.091189
H9    H     H_    0.111802 0.875139 0.110272 0.106255
H10   H     H_    0.206072 0.023551 0.048949 0.111213
H11   H     H_    0.222328 0.979203 0.787590 0.098462
H12   H     H_    0.950782 0.698416 0.471063 0.101378
H13   H     H_    0.144902 0.787256 0.587800 0.096277
H14   H     H_    0.321003 0.870710 0.519898 0.089656
H15   H     H_    0.204989 0.741346 0.321657 0.092619
H16   H     H_    0.229020 0.657201 0.060144 0.112433
H17   H     H_    0.369401 0.703257 0.996457 0.126277
H18   H     H_    0.486909 0.829858 0.193573 0.092786
H19   H     H_    0.513869 0.170943 0.806254 0.092779
H20   H     H_    0.631833 0.297620 0.002333 0.125854
H21   H     H_    0.772046 0.342507 0.937275 0.112102
H22   H     H_    0.795445 0.257122 0.675458 0.092558
H23   H     H_    0.962460 0.489899 0.731262 0.090551
H24   H     H_    0.678949 0.127740 0.478241 0.089788
H25   H     H_    0.037534 0.509992 0.268696 0.090532
H26   H     H_    0.561494 0.937083 0.688114 0.096142
H27   H     H_    0.437939 0.063225 0.312244 0.096189
H28   H     H_    0.442555 0.417323 0.846270 0.145937
H29   H     H_    0.557507 0.582580 0.153703 0.145953
H30   H     H_    0.583779 0.622359 0.934144 0.198072
N1    N     N_2   0.463210 0.445420 0.137360 -0.351093
N2    N     N_2   0.536790 0.554580 0.862640 -0.351280
O1    O     O_R   0.507840 0.332340 0.577400 -0.477117
O2    O     O_R   0.492160 0.667660 0.422600 -0.477042
O3    O     O_R   0.483020 0.295500 0.332650 -0.499511
O4    O     O_R   0.516980 0.704500 0.667350 -0.499559
O5    O     O_R   0.391490 0.518400 0.622350 -0.499392
O6    O     O_R   0.608510 0.481600 0.377650 -0.499332
O7    O     O_R   0.366660 0.481570 0.377600 -0.482594
O8    O     O_R   0.633340 0.518430 0.622400 -0.482482

loop_
_geom_bond_atom_site_label_1
_geom_bond_atom_site_label_2
_ccdc_geom_bond_type
C16   C21   A    
C6    C45   S    
C19   C20   A    
H2    N1    S    
C17   H3    S    
C3    H1    S    
C33   H17   S    
C26   C27   A    
C37   C38   A    
C40   H22   S    
Cu1   O5    S    
Cu2   N1    S    
C36   C37   A    
C5    C11   T    
C30   C31   A    
H30   N2    S    
C1    O1    A    
C12   O4    A    
C18   C19   A    
Cu1   Cu2   S    
C16   C17   A    
C10   C46   S    
C44   O7    A    
C15   C34   D    
C28   H13   S    
C19   H5    S    
C42   N1    D    
C8    C16   S    
C22   C28   A    
C36   C41   A    
C25   H9    S    
Cu1   N2    S    
C4    C7    S    
C18   H4    S    
C7    C46   S    
C31   H15   S    
C45   O8    A    
C24   C25   A    
C32   H16   S    
C20   H6    S    
C3    C8    S    
C39   C40   A    
C21   H7    S    
C35   H18   S    
C25   C26   A    
C29   C34   S    
C14   C23   D    
C2    C4    S    
C29   C30   A    
C3    C9    S    
C9    C11   S    
C31   C32   A    
C12   C15   S    
C23   C34   S    
C4    H12   S    
C17   C18   A    
C39   H21   S    
Cu2   O7    S    
C12   O2    A    
Cu1   O4    S    
C26   H10   S    
C46   H23   S    
C2    H25   S    
C41   H24   S    
C40   C41   A    
C5    C44   S    
C38   H20   S    
C30   H14   S    
Cu2   O6    S    
C1    O3    A    
C42   C43   S    
C4    C10   S    
C44   O5    A    
C43   H28   S    
C7    C9    S    
C2    C8    S    
C10   C13   S    
C24   H8    S    
C7    C22   S    
C29   C35   A    
C3    C46   S    
Cu2   O3    S    
Cu1   O8    S    
C45   O6    A    
C43   N2    D    
C27   H11   S    
C32   C33   A    
C6    C13   T    
C38   C39   A    
C37   H19   S    
C33   C35   A    
Cu2   O2    S    
C22   C24   A    
Cu1   O1    S    
C15   H26   S    
C20   C21   A    
C42   H29   S    
C8    C10   S    
C23   C36   S    
C27   C28   A    
C1    C14   S    
C2    C9    S    
C14   H27   S    
