data_mof_unit_24334.cif
_audit_creation_date              2012-12-10T16:50:14-0500
_audit_creation_method            fapswitch 2.2
_symmetry_space_group_name_H-M    P1
_symmetry_Int_Tables_number       1
_space_group_crystal_system       triclinic
_cell_length_a                    23.476871
_cell_length_b                    8.672931
_cell_length_c                    7.542024
_cell_angle_alpha                 103.705807
_cell_angle_beta                  94.916593
_cell_angle_gamma                 94.596969
_cell_volume                      1478.41288618

loop_
_atom_site_label
_atom_site_type_symbol
_atom_type_description
_atom_site_fract_x
_atom_site_fract_y
_atom_site_fract_z
_atom_type_partial_charge
C1    C     C_R   0.497829 0.199559 0.452641 0.848747
C2    C     C_R   0.502171 0.800441 0.547359 0.848689
C3    C     C_R   0.237658 0.551607 0.361630 0.309065
C4    C     C_R   0.762435 0.449187 0.638197 0.309241
C5    C     C_R   0.297199 0.555122 0.366664 -0.217382
C6    C     C_R   0.702897 0.445631 0.633468 -0.217317
C7    C     C_R   0.328744 0.497776 0.499336 -0.138262
C8    C     C_R   0.671263 0.502501 0.500614 -0.138360
C9    C     C_R   0.300033 0.433964 0.625147 -0.234671
C10   C     C_R   0.699887 0.566022 0.374422 -0.234893
C11   C     C_R   0.240183 0.423578 0.615889 0.296011
C12   C     C_R   0.759732 0.576677 0.383539 0.295998
C13   C     C_R   0.208762 0.484993 0.485813 0.206335
C14   C     C_R   0.791238 0.515610 0.513710 0.206315
C15   C     C_2   0.495612 0.030554 0.427257 -0.362283
C16   C     C_2   0.504387 0.969446 0.572742 -0.362239
C17   C     C_R   0.391216 0.499412 0.500563 0.812750
C18   C     C_R   0.608786 0.500638 0.499439 0.812831
C19   C     C_R   0.888444 0.637681 0.613193 0.658850
C20   C     C_R   0.111547 0.363105 0.385970 0.658919
C21   C     C_R   0.871806 0.380474 0.405369 0.663505
C22   C     C_R   0.128190 0.620221 0.593962 0.663098
C23   C     C_R   0.931462 0.368606 0.403176 -0.146728
C24   C     C_R   0.068531 0.632140 0.596050 -0.146856
C25   C     C_R   0.969946 0.502365 0.501492 -0.103190
C26   C     C_R   0.030045 0.498417 0.497661 -0.103012
C27   C     C_R   0.948284 0.639925 0.604574 -0.150744
C28   C     C_R   0.051707 0.360868 0.394566 -0.150687
C29   C     C_R   0.953837 0.228475 0.308315 0.164505
C30   C     C_R   0.046159 0.772264 0.690941 0.164538
C31   C     C_R   0.013415 0.224704 0.304791 0.385642
C32   C     C_R   0.986578 0.776072 0.694391 0.385921
Cu1   Cu    Cu3+1 0.506340 0.517380 0.684380 1.017696
Cu2   Cu    Cu3+1 0.493660 0.482620 0.315620 1.017685
H1    H     H_    0.318925 0.605587 0.269108 0.196012
H2    H     H_    0.681247 0.395419 0.731325 0.196111
H3    H     H_    0.323974 0.389473 0.727811 0.203852
H4    H     H_    0.675878 0.610095 0.271542 0.204054
H5    H     H_    0.486237 0.956217 0.288376 0.171468
H6    H     H_    0.513763 0.043783 0.711624 0.171475
N1    N     N_R   0.852153 0.511407 0.511372 -0.459336
N2    N     N_R   0.147842 0.489307 0.487929 -0.459296
N3    N     N_2   0.484110 0.456420 0.038520 0.130468
N4    N     N_2   0.515890 0.543580 0.961480 0.130475
O1    O     O_R   0.504120 0.286130 0.619770 -0.553220
O2    O     O_R   0.495880 0.713870 0.380230 -0.553230
O3    O     O_R   0.493410 0.256770 0.308360 -0.640157
O4    O     O_R   0.506590 0.743230 0.691640 -0.640161
O5    O     O_R   0.423230 0.514630 0.655730 -0.533572
O6    O     O_R   0.576770 0.485370 0.344270 -0.533639
O7    O     O_R   0.412530 0.485280 0.344320 -0.595848
O8    O     O_R   0.587470 0.514720 0.655680 -0.595883
O9    O     O_2   0.866185 0.759946 0.721823 -0.431005
O10   O     O_2   0.133800 0.240892 0.277243 -0.431415
O11   O     O_2   0.833025 0.263897 0.302424 -0.435617
O12   O     O_2   0.166971 0.736727 0.697044 -0.435647
Br1   Br    Br    0.906323 0.032306 0.186856 -0.326112
Br2   Br    Br    0.093689 0.968361 0.812611 -0.326347
O13   O     O_3   0.033631 0.089542 0.201942 -0.475234
C33   C     C_3   0.044766 0.984168 0.314891 0.098061
H7    H     H_    0.004131 0.932388 0.352161 0.123925
H8    H     H_    0.073560 0.044798 0.441588 0.168469
C34   C     C_3   0.073896 0.846063 0.210371 -0.519223
H9    H     H_    0.115683 0.891384 0.173594 0.308321
H10   H     H_    0.081779 0.761670 0.297134 0.177434
H11   H     H_    0.045987 0.781216 0.084148 0.248685
O14   O     O_3   0.966369 0.911189 0.797367 -0.475142
C35   C     C_3   0.955327 0.016795 0.684630 0.099187
H12   H     H_    0.926193 0.956684 0.558570 0.169250
H13   H     H_    0.995945 0.067579 0.646321 0.122964
C36   C     C_3   0.926848 0.155859 0.790007 -0.520935
H14   H     H_    0.955121 0.219981 0.915709 0.248780
H15   H     H_    0.919113 0.240530 0.703500 0.177336
H16   H     H_    0.885048 0.111699 0.827738 0.308219
Br3   Br    Br    0.197253 0.641431 0.185913 -0.427769
Br4   Br    Br    0.802966 0.359479 0.813739 -0.427351
Br5   Br    Br    0.202353 0.322408 0.779848 -0.363083
Br6   Br    Br    0.797436 0.677845 0.219314 -0.363176
O15   O     O_3   0.436822 0.379915 0.929181 -0.480289
C37   C     C_3   0.426219 0.228733 0.964689 0.180094
H17   H     H_    0.406641 0.238885 0.094984 0.178609
H18   H     H_    0.466427 0.169101 0.968737 0.132100
C38   C     C_3   0.383817 0.122448 0.812122 -0.826121
H19   H     H_    0.397029 0.127460 0.675577 0.254195
H20   H     H_    0.382328 0.997081 0.824357 0.220212
H21   H     H_    0.340069 0.160999 0.823400 0.265256
O16   O     O_3   0.563175 0.620097 0.070826 -0.480394
C39   C     C_3   0.573780 0.771270 0.035301 0.179923
H22   H     H_    0.533574 0.830905 0.031248 0.132153
H23   H     H_    0.593359 0.761105 0.905005 0.178638
C40   C     C_3   0.616184 0.877562 0.187859 -0.825993
H24   H     H_    0.659932 0.838974 0.176616 0.265308
H25   H     H_    0.617688 0.002922 0.175573 0.220226
H26   H     H_    0.602962 0.872595 0.324408 0.254217

loop_
_geom_bond_atom_site_label_1
_geom_bond_atom_site_label_2
_ccdc_geom_bond_type
O16   C39   S    
C34   H10   S    
Cu1   O1    S    
C17   O7    A    
C18   O8    A    
C2    O2    A    
Cu1   O8    S    
Cu2   O7    S    
C33   C34   S    
C6    C8    A    
C23   C29   A    
C24   C26   A    
Cu1   O5    S    
C15   C16   D    
C30   Br2   S    
C33   H8    S    
C31   O13   S    
C11   Br5   S    
C35   H12   S    
C7    C17   S    
C12   Br6   S    
C1    C15   S    
N4    O16   S    
C19   C27   A    
C3    C13   A    
C19   O9    S    
C34   H11   S    
O13   C33   S    
Cu1   O4    S    
C37   C38   S    
C13   N2    S    
Cu2   O6    S    
C29   Br1   S    
O14   C35   S    
C20   O10   S    
C17   O5    A    
C40   H24   S    
C5    C7    A    
C1    O3    A    
C22   O12   S    
C20   C28   A    
C2    O4    A    
C25   C26   A    
C8    C18   S    
O15   C37   S    
C33   H7    S    
N3    N4    D    
C40   H25   S    
C38   H19   S    
C39   C40   S    
C9    H3    S    
Cu1   Cu2   S    
C9    C11   A    
C15   H5    S    
C10   C12   A    
C16   H6    S    
C32   O14   S    
Cu2   O2    S    
C37   H18   S    
C38   H20   S    
C39   H23   S    
C21   C23   A    
C21   N1    A    
C4    C6    A    
C2    C16   S    
C3    Br3   S    
C18   O6    A    
C21   O11   S    
C7    C9    A    
C27   C32   A    
Cu1   N4    S    
C28   C31   A    
Cu2   N3    S    
C12   C14   A    
C37   H17   S    
C3    C5    A    
C36   H16   S    
C20   N2    A    
C25   C27   A    
C26   C28   A    
C10   H4    S    
C36   H14   S    
C29   C31   A    
C40   H26   S    
C30   C32   A    
C11   C13   A    
C1    O1    A    
C22   N2    A    
C14   N1    S    
C35   C36   S    
C5    H1    S    
C6    H2    S    
C22   C24   A    
C23   C25   A    
C4    C14   A    
C24   C30   A    
C4    Br4   S    
C34   H9    S    
C38   H21   S    
C39   H22   S    
C8    C10   A    
C36   H15   S    
C35   H13   S    
Cu2   O3    S    
N3    O15   S    
C19   N1    A    
