data_mof_unit_31487.cif
_audit_creation_date              2012-10-26T20:33:17-0400
_audit_creation_method            fapswitch 2.2
_symmetry_space_group_name_H-M    P1
_symmetry_Int_Tables_number       1
_space_group_crystal_system       triclinic
_cell_length_a                    17.73027
_cell_length_b                    10.854288
_cell_length_c                    9.53469
_cell_angle_alpha                 89.296236
_cell_angle_beta                  89.86432
_cell_angle_gamma                 90.077669
_cell_volume                      1834.80058914

loop_
_atom_site_label
_atom_site_type_symbol
_atom_type_description
_atom_site_fract_x
_atom_site_fract_y
_atom_site_fract_z
_atom_type_partial_charge
C1    C     C_R   0.498275 0.262162 0.500721 0.567823
C2    C     C_R   0.115343 0.505458 0.501951 0.024344
C3    C     C_R   0.468877 0.059949 0.617866 0.060457
C4    C     C_R   0.355816 0.504141 0.500093 0.582327
C5    C     C_R   0.490979 0.128890 0.499419 -0.004946
C6    C     C_R   0.500219 0.065827 0.371988 -0.153220
C7    C     C_R   0.499248 0.937213 0.370204 -0.109492
C8    C     C_R   0.490039 0.869950 0.495937 0.032804
C9    C     C_R   0.469022 0.933713 0.615370 0.003420
C10   C     C_3   0.486230 0.919012 0.767452 -0.289975
C11   C     C_3   0.484725 0.060175 0.773336 0.005420
C12   C     C_R   0.886342 0.503263 0.497726 0.041369
C13   C     C_R   0.534205 0.593504 0.071840 0.137045
C14   C     C_R   0.457894 0.417726 0.075815 0.023793
C15   C     C_R   0.457185 0.418974 0.926806 0.042677
C16   C     C_R   0.498268 0.737485 0.499091 0.588293
C17   C     C_R   0.535365 0.591718 0.924512 0.126850
C18   C     C_3   0.616708 0.625393 0.917150 -0.278548
C19   C     C_3   0.615169 0.631757 0.076582 -0.123725
C20   C     C_R   0.644514 0.495911 0.500105 0.588622
C21   C     C_R   0.848572 0.442670 0.607275 -0.160113
C22   C     C_R   0.769906 0.433546 0.608674 -0.004100
C23   C     C_1   0.967140 0.503638 0.500833 0.057391
C24   C     C_R   0.727867 0.491781 0.500186 0.015385
C25   C     C_R   0.766518 0.551623 0.390283 -0.170609
C26   C     C_R   0.845281 0.558257 0.386797 0.024842
C27   C     C_2   0.419575 0.105643 0.861256 0.250842
C28   C     C_2   0.560494 0.113791 0.810860 0.243891
C29   C     C_2   0.735693 0.355990 0.720653 0.231658
C30   C     C_2   0.623602 0.761238 0.128848 0.216765
C31   C     C_2   0.880852 0.623987 0.265652 0.240584
C32   C     C_2   0.268292 0.675251 0.305882 0.230996
C33   C     C_1   0.034783 0.503789 0.502454 0.025836
C34   C     C_R   0.155337 0.434595 0.599414 -0.115446
C35   C     C_R   0.233838 0.436968 0.598674 -0.140454
C36   C     C_R   0.273161 0.510484 0.500647 0.029190
C37   C     C_R   0.232379 0.585537 0.404090 0.000135
C38   C     C_R   0.153470 0.579921 0.404619 -0.120676
Cu1   Cu    Cu3+1 0.500000 0.499980 0.640670 1.026190
Cu2   Cu    Cu3+1 0.500000 0.500020 0.359330 1.015827
H1    H     H_    0.509551 0.891283 0.272102 0.148459
H2    H     H_    0.423205 0.100428 0.974809 0.111423
H3    H     H_    0.610236 0.086032 0.752742 0.149035
H4    H     H_    0.422997 0.353584 0.871563 0.159751
H5    H     H_    0.652300 0.548765 0.878384 0.162291
H6    H     H_    0.626209 0.714916 0.862073 0.111812
H7    H     H_    0.763929 0.345830 0.821031 0.104274
H8    H     H_    0.592956 0.836162 0.078481 0.101329
H9    H     H_    0.845451 0.662680 0.183463 0.122002
H10   H     H_    0.125868 0.376989 0.675339 0.129245
H11   H     H_    0.238206 0.705091 0.212451 0.107251
H12   H     H_    0.425106 0.349363 0.132666 0.117591
H13   H     H_    0.511911 0.114956 0.274747 0.155737
H14   H     H_    0.652062 0.562215 0.127947 0.153486
H15   H     H_    0.734981 0.595349 0.307112 0.155989
H16   H     H_    0.264049 0.379547 0.673390 0.155699
H17   H     H_    0.121408 0.636223 0.331321 0.145492
H18   H     H_    0.881017 0.398479 0.690117 0.105681
H19   H     H_    0.439491 0.871910 0.824903 0.149642
H20   H     H_    0.542690 0.877365 0.785285 0.104550
N1    N     N_R   0.500470 0.500930 0.147930 -0.235650
N2    N     N_R   0.500480 0.500890 0.852020 -0.222408
O1    O     O_R   0.500000 0.319640 0.618810 -0.458096
O2    O     O_2   0.567196 0.186464 0.906823 -0.498391
O3    O     O_2   0.678425 0.296861 0.699661 -0.477322
O4    O     O_2   0.664732 0.783508 0.227696 -0.520800
O5    O     O_2   0.949055 0.636450 0.255176 -0.509767
O6    O     O_2   0.329375 0.721864 0.331058 -0.491719
O7    O     O_R   0.500010 0.319680 0.381230 -0.522252
O8    O     O_R   0.391250 0.499990 0.618840 -0.516155
O9    O     O_R   0.391260 0.500020 0.381250 -0.474248
O10   O     O_R   0.499990 0.680320 0.618770 -0.517764
O11   O     O_R   0.500000 0.680360 0.381190 -0.470685
O12   O     O_R   0.608740 0.499980 0.618750 -0.466747
O13   O     O_R   0.608750 0.500010 0.381160 -0.506251
O14   O     O_2   0.362337 0.146475 0.806899 -0.525956

loop_
_geom_bond_atom_site_label_1
_geom_bond_atom_site_label_2
_ccdc_geom_bond_type
C4    C36   S    
Cu2   O9    S    
C35   C36   A    
C16   O10   A    
C4    O8    A    
C7    C8    A    
C31   O5    D    
C12   C23   S    
C29   H7    S    
C1    C5    S    
C30   H8    S    
C36   C37   A    
C22   C29   S    
C15   H4    S    
C18   C19   S    
C5    C6    A    
C18   H6    S    
Cu2   O11   S    
C34   C35   A    
Cu1   O12   S    
C15   N2    A    
C14   H12   S    
C20   C24   S    
C8    C9    A    
C23   C33   T    
Cu1   O10   S    
C9    C10   S    
C32   O6    D    
C2    C34   A    
C26   C31   S    
C8    C16   S    
C21   C22   A    
C31   H9    S    
C1    O1    A    
C34   H10   S    
Cu2   O7    S    
C13   C19   S    
C16   O11   A    
C24   C25   A    
Cu1   Cu2   S    
C25   C26   A    
C14   N1    A    
C12   C21   A    
C1    O7    A    
Cu2   N1    S    
C20   O13   A    
C12   C26   A    
C10   H20   S    
C32   H11   S    
C37   C38   A    
C3    C9    A    
C17   N2    A    
C38   H17   S    
C2    C38   A    
C11   C27   S    
C17   C18   S    
C20   O12   A    
C32   C37   S    
C30   O4    D    
C29   O3    D    
C28   O2    D    
C2    C33   S    
C22   C24   A    
C6    H13   S    
C27   O14   D    
C18   H5    S    
C19   H14   S    
Cu1   N2    S    
C35   H16   S    
C25   H15   S    
C3    C5    A    
C6    C7    A    
Cu1   O1    S    
C28   H3    S    
Cu2   O13   S    
C13   C17   A    
C10   H19   S    
C21   H18   S    
C27   H2    S    
C11   C28   S    
Cu1   O8    S    
C7    H1    S    
C3    C11   S    
C10   C11   S    
C13   N1    A    
C14   C15   A    
C19   C30   S    
C4    O9    A    
