data_mof_unit_30617.cif
_audit_creation_date              2013-03-05T16:33:32-0500
_audit_creation_method            fapswitch 2.2
_symmetry_space_group_name_H-M    P1
_symmetry_Int_Tables_number       1
_space_group_crystal_system       triclinic
_cell_length_a                    10.925704
_cell_length_b                    10.870397
_cell_length_c                    9.55611
_cell_angle_alpha                 90.011003
_cell_angle_beta                  91.351801
_cell_angle_gamma                 91.030183
_cell_volume                      1134.44854877

loop_
_atom_site_label
_atom_site_type_symbol
_atom_site_description
_atom_site_fract_x
_atom_site_fract_y
_atom_site_fract_z
_atom_type_partial_charge
O1    O     O_R   0.500000 0.319640 0.618810 -0.580576
O2    O     O_R   0.500010 0.319680 0.381230 -0.596419
C1    C     C_R   0.498914 0.262755 0.499811 0.811009
O3    O     O_R   0.319650 0.499970 0.618810 -0.582583
O4    O     O_R   0.319660 0.500010 0.381230 -0.527322
C2    C     C_R   0.262939 0.496824 0.498272 0.829394
Cu1   Cu    Cu3+1 0.499990 0.499980 0.640670 1.018595
Cu2   Cu    Cu3+1 0.500010 0.500020 0.359330 1.019965
O5    O     O_R   0.499990 0.680320 0.618770 -0.563727
O6    O     O_R   0.500000 0.680360 0.381190 -0.575897
O7    O     O_R   0.680340 0.499990 0.618770 -0.564740
O8    O     O_R   0.680350 0.500030 0.381190 -0.592199
C3    C     C_R   0.497493 0.737238 0.499840 0.833551
C4    C     C_R   0.737659 0.497749 0.501138 0.885260
C5    C     C_R   0.067440 0.496636 0.617730 -0.029354
C6    C     C_R   0.130761 0.489541 0.494753 -0.239349
C7    C     C_R   0.060736 0.474849 0.369421 0.630981
C8    C     C_R   0.932064 0.474036 0.373076 -0.225856
H1    H     H_    0.881476 0.460954 0.275741 0.185386
C9    C     C_R   0.870757 0.490391 0.500574 -0.135009
C10   C     C_R   0.944046 0.498545 0.621417 0.029045
C11   C     C_3   0.947255 0.520503 0.775733 -0.454764
C12   C     C_3   0.086956 0.517753 0.769745 0.533497
H2    H     H_    0.915464 0.613720 0.802538 0.208643
H3    H     H_    0.908059 0.441612 0.834809 0.237146
H4    H     H_    0.134459 0.606462 0.795485 0.081986
C13   C     C_R   0.492584 0.062219 0.620739 0.051362
C14   C     C_R   0.495356 0.130160 0.498042 -0.097958
C15   C     C_R   0.492946 0.064459 0.370491 -0.152761
H5    H     H_    0.493029 0.111996 0.270881 0.190707
C16   C     C_R   0.491033 0.935353 0.370723 -0.129101
H6    H     H_    0.488596 0.887530 0.271479 0.206688
C17   C     C_R   0.492476 0.869844 0.498266 -0.074860
C18   C     C_R   0.489917 0.938055 0.620860 0.059860
C19   C     C_3   0.489832 0.928903 0.776528 -0.425093
C20   C     C_3   0.494109 0.070695 0.776714 0.140715
H7    H     H_    0.402498 0.889125 0.815108 0.168914
H8    H     H_    0.573718 0.886415 0.819814 0.308112
H9    H     H_    0.411437 0.113909 0.819597 0.103992
C21   C     C_R   0.556214 0.593840 0.075552 0.092011
N1    N     N_R   0.500790 0.500930 0.147930 -0.220644
C22   C     C_R   0.433356 0.415467 0.072551 0.048839
H10   H     H_    0.381490 0.345319 0.126806 0.162241
C23   C     C_R   0.433061 0.415724 0.923767 0.052932
H11   H     H_    0.380956 0.345826 0.866659 0.172612
N2    N     N_R   0.500790 0.500890 0.852020 -0.232477
C24   C     C_R   0.557046 0.592945 0.927437 0.145674
C25   C     C_3   0.690464 0.619326 0.926730 0.355880
C26   C     C_3   0.689403 0.625813 0.084891 0.064585
H12   H     H_    0.738105 0.538453 0.887626 0.068895
H13   H     H_    0.745484 0.553846 0.135371 0.088106
F1    F     F_    0.114992 0.461736 0.244064 -0.626236
N3    N     N_R   0.609905 0.121289 0.833916 0.177180
O9    O     O_R   0.714121 0.090616 0.781777 -0.281419
O10   O     O_R   0.609441 0.193638 0.942261 -0.372174
F2    F     F_    0.719781 0.728546 0.860367 -0.615727
N4    N     N_R   0.713095 0.749066 0.142384 0.196122
O11   O     O_R   0.654784 0.844070 0.094097 -0.311825
O12   O     O_R   0.791216 0.763638 0.246174 -0.329147
F3    F     F_    0.135489 0.415840 0.836055 -0.622660

loop_
_geom_bond_atom_site_label_1
_geom_bond_atom_site_label_2
_geom_bond_distance
_ccdc_geom_bond_type
C21   C24   1.415686 A    
C16   C17   1.411620 A    
C3    C17   1.443569 S    
C15   H5    1.083207 S    
C13   C20   1.493024 S    
O4    Cu2   1.986435 S    
N1    C22   1.369253 A    
C19   C20   1.541208 S    
Cu2   O8    1.976476 S    
Cu1   O5    1.971548 S    
C5    C12   1.480514 S    
C7    C8    1.406951 A    
Cu1   Cu2   2.688521 S    
C15   C16   1.403213 A    
O1    Cu1   1.971428 S    
C10   C11   1.493311 S    
Cu2   N1    2.020405 S    
Cu1   O7    1.986435 S    
C14   C15   1.412071 A    
N4    O11   1.302039 A    
O4    C2    1.291576 A    
C22   C23   1.421731 A    
O3    Cu1   1.976475 S    
C5    C6    1.380535 A    
C7    F1    1.357658 S    
C25   H12   1.099519 S    
C21   N1    1.364968 A    
C19   H7    1.111385 S    
C23   N2    1.369047 A    
O6    C3    1.292448 A    
C17   C18   1.387448 A    
C8    C9    1.416841 A    
N3    O10   1.300232 A    
C13   C18   1.349503 A    
C12   F3    1.384028 S    
O7    C4    1.300053 A    
C11   H2    1.108962 S    
N4    O12   1.300951 A    
C1    C14   1.441274 S    
C22   H10   1.081602 S    
C2    C6    1.444485 S    
C21   C26   1.490637 S    
Cu1   N2    2.019518 S    
C4    C9    1.457962 S    
C5    C10   1.349985 A    
C19   H8    1.105357 S    
C26   N4    1.464409 S    
C9    C10   1.391526 A    
O3    C2    1.295157 A    
C18   C19   1.490944 S    
C12   H4    1.111594 S    
C13   C14   1.386485 A    
C25   F2    1.382231 S    
C8    H1    1.078773 S    
O5    C3    1.294073 A    
N2    C24   1.362068 A    
C25   C26   1.513363 S    
O2    C1    1.291423 A    
C20   N3    1.464281 S    
C26   H13   1.106153 S    
C24   C25   1.480730 S    
C11   C12   1.529577 S    
C20   H9    1.112245 S    
Cu2   O6    1.971428 S    
O2    Cu2   1.971545 S    
C23   H11   1.081136 S    
C16   H6    1.080982 S    
N3    O9    1.302405 A    
O8    C4    1.293537 A    
C6    C7    1.413359 A    
O1    C1    1.294021 A    
C11   H3    1.111718 S    
