data_mof_unit_17423.cif
_audit_creation_date              2013-03-05T16:10:27-0500
_audit_creation_method            fapswitch 2.2
_symmetry_space_group_name_H-M    P1
_symmetry_Int_Tables_number       1
_space_group_crystal_system       triclinic
_cell_length_a                    10.680022
_cell_length_b                    9.974649
_cell_length_c                    14.988142
_cell_angle_alpha                 89.62492
_cell_angle_beta                  92.98187
_cell_angle_gamma                 92.049269
_cell_volume                      1593.47965974

loop_
_atom_site_label
_atom_site_type_symbol
_atom_site_description
_atom_site_fract_x
_atom_site_fract_y
_atom_site_fract_z
_atom_type_partial_charge
O1    O     O_R   0.316770 0.614620 0.499990 -0.625442
O2    O     O_R   0.683230 0.385380 0.500010 -0.625452
O3    O     O_R   0.683230 0.614620 0.500010 -0.627943
O4    O     O_R   0.316770 0.385380 0.499990 -0.627971
C1    C     C_R   0.260739 0.497146 0.508471 0.917277
C2    C     C_R   0.739264 0.502854 0.491537 0.917289
O5    O     O_R   0.499980 0.614680 0.367850 -0.624259
O6    O     O_R   0.500020 0.385320 0.632150 -0.624251
O7    O     O_R   0.500020 0.614680 0.632150 -0.627731
O8    O     O_R   0.499980 0.385320 0.367850 -0.627717
C3    C     C_R   0.501246 0.500497 0.327756 0.898638
C4    C     C_R   0.498755 0.499503 0.672245 0.898647
Zn1   Zn    Zn3+2 0.500000 0.653120 0.500000 0.933866
Zn2   Zn    Zn3+2 0.500000 0.346880 0.500000 0.933881
C5    C     C_R   0.612603 0.514958 0.816546 -0.064056
C6    C     C_R   0.387402 0.485055 0.183453 -0.064057
C7    C     C_R   0.498389 0.498489 0.767756 -0.147394
C8    C     C_R   0.501615 0.501515 0.232245 -0.147359
C9    C     C_R   0.384308 0.479500 0.808934 -0.078575
C10   C     C_R   0.615697 0.520510 0.191068 -0.078563
C11   C     C_R   0.381670 0.492851 0.902366 0.067081
C12   C     C_R   0.618337 0.507174 0.097635 0.067076
C13   C     C_R   0.498725 0.500311 0.952998 -0.002230
C14   C     C_R   0.501282 0.499715 0.047002 -0.002233
C15   C     C_R   0.613638 0.508416 0.909704 0.044585
C16   C     C_R   0.386368 0.491608 0.090296 0.044587
C17   C     C_R   0.267851 0.499076 0.947502 0.180034
C18   C     C_R   0.732156 0.500958 0.052498 0.180037
C19   C     C_R   0.272299 0.493465 0.040112 -0.205465
C20   C     C_R   0.727708 0.506567 0.959888 -0.205460
H1    H     H_    0.184507 0.494026 0.073177 0.163743
H2    H     H_    0.815498 0.506011 0.926821 0.163742
C21   C     C_R   0.055195 0.373898 0.495421 0.159250
C22   C     C_R   0.944810 0.626106 0.504616 0.159257
C23   C     C_R   0.931688 0.387566 0.464197 0.142242
C24   C     C_R   0.068323 0.612437 0.535832 0.142261
C25   C     C_R   0.873206 0.508737 0.480294 -0.125335
C26   C     C_R   0.126802 0.491266 0.519732 -0.125328
C27   C     C_R   0.574637 0.073655 0.561221 0.202051
C28   C     C_R   0.425361 0.926343 0.438781 0.202026
C29   C     C_R   0.427242 0.070062 0.437788 0.185770
C30   C     C_R   0.572741 0.929934 0.562223 0.185721
N1    N     N_R   0.500000 0.857200 0.500000 -0.118275
N2    N     N_R   0.500000 0.142800 0.500000 -0.118283
C31   C     C_1   0.728370 0.533510 0.769814 0.126366
N3    N     N_1   0.820151 0.548206 0.732533 -0.215683
C32   C     C_1   0.271634 0.466499 0.230184 0.126352
N4    N     N_1   0.179852 0.451800 0.267464 -0.215675
C33   C     C_1   0.274955 0.432914 0.754787 0.158167
N5    N     N_1   0.188014 0.394560 0.711857 -0.218357
C34   C     C_1   0.725051 0.567084 0.245221 0.158170
N6    N     N_1   0.811990 0.605427 0.288158 -0.218354
C35   C     C_3   0.140789 0.522496 0.901575 -0.882108
H3    H     H_    0.148837 0.600358 0.848695 0.250169
H4    H     H_    0.099365 0.427094 0.873832 0.255621
H5    H     H_    0.073497 0.560661 0.948603 0.226274
C36   C     C_3   0.859221 0.477548 0.098424 -0.882124
H6    H     H_    0.851182 0.399674 0.151294 0.250176
H7    H     H_    0.926522 0.439408 0.051395 0.226275
H8    H     H_    0.900630 0.572947 0.126177 0.255622
C37   C     C_3   0.102908 0.233353 0.509311 -0.825095
H9    H     H_    0.178421 0.228943 0.562728 0.266252
H10   H     H_    0.027237 0.164877 0.533066 0.224545
H11   H     H_    0.134068 0.193725 0.445739 0.236645
C38   C     C_3   0.897091 0.766653 0.490745 -0.825133
H12   H     H_    0.821600 0.771079 0.437315 0.266242
H13   H     H_    0.865911 0.806260 0.554316 0.236657
H14   H     H_    0.972764 0.835144 0.467012 0.224544
C39   C     C_3   0.866264 0.275828 0.409010 -0.814321
H15   H     H_    0.787589 0.313909 0.365751 0.242789
H16   H     H_    0.932284 0.233114 0.362855 0.232182
H17   H     H_    0.830543 0.194803 0.453099 0.246104
C40   C     C_3   0.133758 0.724169 0.591016 -0.814338
H18   H     H_    0.212439 0.686082 0.634268 0.242778
H19   H     H_    0.169477 0.805195 0.546927 0.246097
H20   H     H_    0.067746 0.766882 0.637179 0.232193
C41   C     C_3   0.663700 0.146782 0.627562 -0.802877
H21   H     H_    0.664809 0.255140 0.623073 0.295391
H22   H     H_    0.640079 0.119713 0.696837 0.224507
H23   H     H_    0.761630 0.120244 0.616127 0.202840
C42   C     C_3   0.336281 0.853216 0.372449 -0.802822
H24   H     H_    0.335206 0.744858 0.376914 0.295386
H25   H     H_    0.238350 0.879708 0.383920 0.202841
H26   H     H_    0.359849 0.880332 0.303170 0.224493
C43   C     C_3   0.356232 0.141929 0.362866 -0.808970
H27   H     H_    0.327739 0.240885 0.382706 0.290407
H28   H     H_    0.415265 0.151395 0.304156 0.240060
H29   H     H_    0.266265 0.090526 0.341565 0.201248
C44   C     C_3   0.643658 0.858042 0.637176 -0.809012
H30   H     H_    0.672337 0.759180 0.617286 0.290307
H31   H     H_    0.733497 0.909522 0.658667 0.201304
H32   H     H_    0.584459 0.848348 0.695778 0.240186

loop_
_geom_bond_atom_site_label_1
_geom_bond_atom_site_label_2
_geom_bond_distance
_ccdc_geom_bond_type
C3    C8    1.431711 S    
C17   C19   1.387228 A    
C22   C25   1.414511 A    
C40   H18   1.110686 S    
O3    C2    1.294049 A    
C42   H24   1.082156 S    
C18   C36   1.514366 S    
O5    C3    1.292048 A    
O1    C1    1.305023 A    
C27   C41   1.512279 S    
C23   C25   1.408051 A    
C14   C16   1.417351 A    
C10   C34   1.451234 S    
C39   H15   1.110680 S    
C43   H27   1.090894 S    
C43   H29   1.105909 S    
C6    C32   1.457931 S    
C39   H16   1.110558 S    
C37   H10   1.110723 S    
O7    Zn1   2.014977 S    
C7    C9    1.400526 A    
C28   N1    1.381284 A    
C38   H13   1.105522 S    
C4    C7    1.431712 S    
C13   C14   1.407771 A    
C44   H31   1.105801 S    
C8    C10   1.400527 A    
O3    Zn1   2.007646 S    
C41   H21   1.082160 S    
C35   H5    1.110875 S    
C35   H4    1.109102 S    
C11   C17   1.425016 A    
C12   C18   1.425019 A    
C1    C26   1.448143 S    
C40   H19   1.110225 S    
O2    C2    1.305032 A    
C22   C38   1.518081 S    
C42   H25   1.110122 S    
C27   C30   1.432978 A    
C41   H22   1.110557 S    
C6    C16   1.396838 A    
C43   H28   1.110454 S    
C34   N6    1.156811 T    
O8    Zn2   2.014979 S    
C36   H8    1.109075 S    
C35   H3    1.110400 S    
C37   H11   1.105527 S    
C9    C33   1.451225 S    
C32   N4    1.157668 T    
O6    C4    1.292051 A    
C38   H14   1.110694 S    
C2    C25   1.448146 S    
C44   H32   1.110342 S    
C21   C37   1.518070 S    
C28   C29   1.432959 A    
C10   C12   1.409402 A    
C33   N5    1.156807 T    
C11   C13   1.428175 A    
C29   N2    1.375804 A    
C12   C14   1.428179 A    
C36   H7    1.110858 S    
O1    Zn1   1.980698 S    
C30   N1    1.375788 A    
C5    C31   1.457931 S    
Zn1   N1    2.035626 S    
C42   H26   1.110560 S    
Zn2   N2    2.035626 S    
C41   H23   1.110127 S    
C15   C20   1.398691 A    
C5    C7    1.394313 A    
O6    Zn2   2.019903 S    
C9    C11   1.409394 A    
C28   C42   1.512299 S    
C39   H17   1.110219 S    
O4    C1    1.294056 A    
C17   C35   1.514370 S    
C27   N2    1.381300 A    
C29   C43   1.513186 S    
C21   C26   1.414477 A    
C30   C44   1.513179 S    
C24   C26   1.408039 A    
C19   H1    1.083287 S    
C20   H2    1.083286 S    
C36   H6    1.110375 S    
C18   C20   1.387234 A    
C21   C23   1.387563 A    
C22   C24   1.387579 A    
C13   C15   1.417349 A    
O4    Zn2   2.007648 S    
C37   H9    1.108252 S    
O2    Zn2   1.980696 S    
O7    C4    1.293009 A    
C5    C15   1.396844 A    
O8    C3    1.293009 A    
C31   N3    1.157668 T    
O5    Zn1   2.019904 S    
C40   H20   1.110563 S    
C23   C39   1.520150 S    
C16   C19   1.398695 A    
C6    C8    1.394311 A    
C38   H12   1.108237 S    
C44   H30   1.090897 S    
C24   C40   1.520142 S    
