data_mof_unit_54361.cif
_audit_creation_date              2012-12-10T17:18:57-0500
_audit_creation_method            fapswitch 2.2
_symmetry_space_group_name_H-M    P1
_symmetry_Int_Tables_number       1
_space_group_crystal_system       triclinic
_cell_length_a                    10.193565
_cell_length_b                    10.727553
_cell_length_c                    13.522754
_cell_angle_alpha                 93.013142
_cell_angle_beta                  101.950042
_cell_angle_gamma                 96.608246
_cell_volume                      1432.63540497

loop_
_atom_site_label
_atom_site_type_symbol
_atom_type_description
_atom_site_fract_x
_atom_site_fract_y
_atom_site_fract_z
_atom_type_partial_charge
C1    C     C_R   0.051559 0.732184 0.489606 0.914557
C2    C     C_R   0.944735 0.266747 0.502268 0.943172
C3    C     C_R   0.409868 0.416041 0.134865 0.407530
C4    C     C_R   0.481087 0.290107 0.894146 0.446950
C5    C     C_R   0.287309 0.464396 0.104078 0.342070
C6    C     C_R   0.616604 0.268584 0.925912 0.356798
C7    C     C_2   0.075772 0.863327 0.471822 -0.392977
C8    C     C_2   0.907786 0.131930 0.490428 -0.375127
C9    C     C_2   0.970112 0.928111 0.457460 -0.149908
C10   C     C_2   0.991568 0.061879 0.456162 -0.159999
C11   C     C_2   0.430542 0.506382 0.522367 0.298280
C12   C     C_2   0.571074 0.469647 0.522645 0.422227
C13   C     C_R   0.094605 0.511207 0.686434 0.854827
C14   C     C_R   0.903284 0.481618 0.313465 0.842624
C15   C     C_R   0.140810 0.499124 0.794622 -0.095050
C16   C     C_R   0.840427 0.440582 0.207433 -0.089760
C17   C     C_R   0.114083 0.522494 0.967687 -0.146003
C18   C     C_R   0.832807 0.318255 0.049779 -0.167536
C19   C     C_R   0.067250 0.536399 0.865175 -0.208026
C20   C     C_R   0.905253 0.372998 0.144422 -0.193211
C21   C     C_R   0.256827 0.441958 0.826295 -0.155608
C22   C     C_R   0.703809 0.450811 0.175477 -0.142542
C23   C     C_R   0.300812 0.419140 0.927690 0.041139
C24   C     C_R   0.626566 0.383929 0.087554 0.054118
C25   C     C_R   0.232975 0.467740 0.000304 -0.017653
C26   C     C_R   0.692630 0.323282 0.020339 -0.041263
C27   C     C_R   0.420464 0.363433 0.959604 -0.186935
C28   C     C_R   0.486001 0.386363 0.061939 -0.193518
H1    H     H_    0.657449 0.511427 0.220713 0.187419
H2    H     H_    0.315520 0.419996 0.771378 0.226797
H3    H     H_    0.010171 0.359668 0.169042 0.204782
H4    H     H_    0.975668 0.579031 0.841479 0.162440
H5    H     H_    0.058272 0.556679 0.021222 0.186624
H6    H     H_    0.885993 0.269882 0.001123 0.181152
H7    H     H_    0.084005 0.103036 0.435696 0.186180
H8    H     H_    0.867948 0.884430 0.456321 0.180941
H9    H     H_    0.816175 0.089542 0.510743 0.150411
H10   H     H_    0.177756 0.907272 0.472992 0.146362
H11   H     H_    0.660913 0.645976 0.536842 0.088561
H12   H     H_    0.337139 0.385714 0.403831 0.167430
N1    N     N_2   0.322180 0.446120 0.460900 -0.219531
N2    N     N_2   0.677820 0.553880 0.539100 -0.201363
O1    O     O_R   0.935190 0.693030 0.507870 -0.617680
O2    O     O_R   0.064810 0.306970 0.492130 -0.622040
O3    O     O_R   0.142080 0.658430 0.482770 -0.600214
O4    O     O_R   0.857920 0.341570 0.517230 -0.536556
O5    O     O_R   0.969700 0.527180 0.651960 -0.603888
O6    O     O_R   0.030300 0.472820 0.348040 -0.590051
O7    O     O_R   0.176600 0.492580 0.626860 -0.542745
O8    O     O_R   0.823400 0.507420 0.373140 -0.596111
Zn1   Zn    Zn3+2 0.861850 0.523100 0.516760 0.979759
Zn2   Zn    Zn3+2 0.138150 0.476900 0.483240 0.968286
O9    O     O_3   0.221885 0.511875 0.175184 -0.620700
C29   C     C_3   0.297629 0.624433 0.226427 0.180457
H13   H     H_    0.374487 0.669122 0.186545 0.095413
H14   H     H_    0.351089 0.603880 0.302896 0.163970
C30   C     C_3   0.202063 0.720441 0.238487 -0.871065
H15   H     H_    0.123287 0.680937 0.277708 0.277000
H16   H     H_    0.259555 0.806224 0.283782 0.197278
H17   H     H_    0.152226 0.746770 0.162817 0.238967
O10   O     O_3   0.677195 0.203701 0.860183 -0.586095
C31   C     C_3   0.672210 0.076478 0.883356 0.104155
H18   H     H_    0.568672 0.026332 0.853956 0.156157
H19   H     H_    0.701992 0.066783 0.966506 0.117805
C32   C     C_3   0.769642 0.012508 0.832736 -0.851576
H20   H     H_    0.873841 0.062489 0.858792 0.251864
H21   H     H_    0.768771 0.913401 0.852817 0.207577
H22   H     H_    0.739110 0.012690 0.749129 0.253199
O11   O     O_3   0.452252 0.396242 0.236248 -0.624103
C33   C     C_3   0.437937 0.265257 0.246176 -0.307241
H23   H     H_    0.504926 0.217039 0.205857 0.167494
H24   H     H_    0.330772 0.222379 0.219015 0.147116
H25   H     H_    0.468393 0.248597 0.327341 0.215312
O12   O     O_3   0.410634 0.235514 0.800205 -0.615973
C34   C     C_3   0.310799 0.138858 0.813417 -0.352281
H26   H     H_    0.223642 0.178248 0.834896 0.183793
H27   H     H_    0.351672 0.074258 0.870553 0.136661
H28   H     H_    0.272320 0.081832 0.740103 0.196451
O13   O     O_3   0.588975 0.343992 0.509327 -0.605325
C35   C     C_3   0.523348 0.271515 0.573840 0.131910
H29   H     H_    0.413723 0.248230 0.539675 0.131530
H30   H     H_    0.536812 0.320928 0.650697 0.202348
C36   C     C_3   0.582706 0.148600 0.587494 -0.802568
H31   H     H_    0.691248 0.168613 0.625308 0.268910
H32   H     H_    0.528788 0.090005 0.635662 0.232161
H33   H     H_    0.571757 0.095927 0.512701 0.219608
O14   O     O_3   0.415045 0.577157 0.607316 -0.580753
C37   C     C_3   0.436542 0.707705 0.595874 0.134721
H34   H     H_    0.392920 0.731810 0.517738 0.130996
H35   H     H_    0.545589 0.743229 0.616062 0.106330
C38   C     C_3   0.374747 0.778531 0.671852 -0.807502
H36   H     H_    0.426702 0.764372 0.750401 0.238676
H37   H     H_    0.386803 0.880761 0.660928 0.187661
H38   H     H_    0.265786 0.744825 0.662493 0.253524

loop_
_geom_bond_atom_site_label_1
_geom_bond_atom_site_label_2
_ccdc_geom_bond_type
O14   C37   S    
C22   H1    S    
C18   C26   A    
O1    Zn1   S    
C14   O8    A    
O9    C29   S    
C2    O4    A    
C15   C19   A    
C6    O10   S    
C5    O9    S    
C3    C28   A    
C3    O11   S    
C24   C26   A    
C30   H16   S    
C12   O13   S    
C18   C20   A    
C12   N2    D    
C1    O1    A    
C11   O14   S    
C32   H21   S    
C9    H8    S    
C31   H19   S    
C33   H23   S    
C14   C16   S    
C23   C27   A    
C9    C10   S    
N1    Zn2   S    
C4    O12   S    
N2    Zn1   S    
O2    Zn2   S    
O10   C31   S    
C17   H5    S    
C35   C36   S    
C19   H4    S    
H11   N2    S    
C29   H14   S    
O12   C34   S    
C4    C6    A    
C2    O2    A    
C38   H36   S    
C13   O5    A    
C30   H17   S    
O5    Zn1   S    
O3    Zn2   S    
O4    Zn1   S    
C34   H26   S    
C31   H18   S    
C38   H37   S    
C18   H6    S    
C36   H31   S    
C37   C38   S    
C15   C21   A    
C16   C20   A    
C32   H22   S    
C33   H25   S    
O8    Zn1   S    
C34   H27   S    
C10   H7    S    
C13   O7    A    
C35   H30   S    
H12   N1    S    
C36   H32   S    
C37   H35   S    
C21   C23   A    
C5    C25   A    
C8    H9    S    
C4    C27   A    
C7    C9    D    
C29   H13   S    
C16   C22   A    
C31   C32   S    
C1    C7    S    
C2    C8    S    
C24   C28   A    
O7    Zn2   S    
C35   H29   S    
C3    C5    A    
C14   O6    A    
C11   C12   S    
C21   H2    S    
C17   C25   A    
C13   C15   S    
C38   H38   S    
C1    O3    A    
C30   H15   S    
C6    C26   A    
C17   C19   A    
C7    H10   S    
C11   N1    D    
C22   C24   A    
C23   C25   A    
O11   C33   S    
C34   H28   S    
O13   C35   S    
O6    Zn2   S    
C36   H33   S    
C37   H34   S    
C8    C10   D    
C32   H20   S    
C27   C28   A    
C33   H24   S    
C20   H3    S    
C29   C30   S    
