data_mof_unit_41558.cif
_audit_creation_date              2012-12-10T17:05:16-0500
_audit_creation_method            fapswitch 2.2
_symmetry_space_group_name_H-M    P1
_symmetry_Int_Tables_number       1
_space_group_crystal_system       triclinic
_cell_length_a                    10.023266
_cell_length_b                    10.735036
_cell_length_c                    15.52196
_cell_angle_alpha                 90.117513
_cell_angle_beta                  67.809529
_cell_angle_gamma                 90.300973
_cell_volume                      1546.44003201

loop_
_atom_site_label
_atom_site_type_symbol
_atom_type_description
_atom_site_fract_x
_atom_site_fract_y
_atom_site_fract_z
_atom_type_partial_charge
C1    C     C_R   0.499980 0.737403 0.500857 0.930681
C2    C     C_R   0.710378 0.601812 0.041452 0.177843
C3    C     C_R   0.572370 0.550924 0.092529 0.093866
C4    C     C_R   0.409862 0.501951 0.675929 0.867313
C5    C     C_R   0.813094 0.612451 0.082594 -0.221783
C6    C     C_R   0.779110 0.573590 0.174244 -0.208941
C7    C     C_R   0.546478 0.502337 0.180508 -0.254256
C8    C     C_2   0.620855 0.067339 0.485432 -0.162465
C9    C     C_2   0.508436 0.131538 0.483303 -0.331441
C10   C     C_2   0.621759 0.933169 0.480546 -0.156777
C11   C     C_2   0.498242 0.869297 0.505708 -0.328832
C12   C     C_R   0.405232 0.549394 0.915813 0.094015
C13   C     C_2   0.099909 0.414127 0.458277 0.515268
C14   C     C_2   0.940598 0.405910 0.473378 -0.289832
C15   C     C_R   0.501836 0.262697 0.496397 0.940340
C16   C     C_R   0.590069 0.501240 0.324053 0.866274
C17   C     C_R   0.353256 0.511645 0.777155 -0.057983
C18   C     C_R   0.644111 0.520010 0.223646 -0.057883
C19   C     C_R   0.163707 0.485219 0.928383 -0.218960
C20   C     C_R   0.209343 0.484344 0.831756 -0.199814
C21   C     C_R   0.448412 0.546730 0.819214 -0.260546
C22   C     C_3   0.173201 0.280977 0.329005 0.055026
C23   C     C_R   0.261471 0.514240 0.970704 0.180932
C24   C     C_3   0.119697 0.145766 0.342066 -0.350444
C25   C     C_3   0.085152 0.100934 0.259433 -0.945031
C26   C     C_R   0.504779 0.575953 0.958506 0.068811
C27   C     C_R   0.465013 0.547754 0.053891 0.073272
C28   C     C_R   0.318880 0.519320 0.107851 -0.238834
C29   C     C_R   0.218510 0.504754 0.066768 -0.247918
C30   C     C_R   0.642948 0.628185 0.909097 -0.229779
C31   C     C_R   0.743109 0.642317 0.950618 -0.240849
H1    H     H_    0.108185 0.481063 0.110021 0.146383
H2    H     H_    0.448530 0.451958 0.218056 0.150503
H3    H     H_    0.855684 0.589120 0.207176 0.154698
H4    H     H_    0.847411 0.683232 0.910910 0.150315
H5    H     H_    0.053689 0.458589 0.969823 0.149530
H6    H     H_    0.133955 0.458111 0.799951 0.160050
H7    H     H_    0.558835 0.564939 0.774985 0.160045
H8    H     H_    0.278134 0.510795 0.182606 0.141602
H9    H     H_    0.675112 0.662997 0.839001 0.146411
H10   H     H_    0.278831 0.283270 0.269718 0.157259
H11   H     H_    0.100955 0.341849 0.307873 0.118829
H12   H     H_    0.917653 0.654164 0.044923 0.145740
H13   H     H_    0.204253 0.085142 0.349574 0.227585
H14   H     H_    0.021620 0.136507 0.406416 0.208203
H15   H     H_    0.997652 0.158053 0.252463 0.265735
H16   H     H_    0.048784 0.002285 0.270366 0.263786
H17   H     H_    0.182405 0.107465 0.194212 0.268281
H18   H     H_    0.713603 0.112977 0.491987 0.167771
H19   H     H_    0.420186 0.088841 0.469562 0.159547
H20   H     H_    0.725410 0.886707 0.458605 0.168087
H21   H     H_    0.392960 0.912509 0.532257 0.147474
H22   H     H_    0.075491 0.559214 0.543647 0.102368
H23   H     H_    0.899257 0.318974 0.457923 0.180621
H24   H     H_    0.894947 0.583919 0.505587 0.153627
N1    N     N_2   0.148330 0.498670 0.499030 -0.214437
N2    N     N_2   0.852680 0.498640 0.499000 -0.205133
O1    O     O_R   0.386950 0.680940 0.500010 -0.620376
O2    O     O_R   0.613110 0.680900 0.499990 -0.616877
O3    O     O_R   0.322330 0.500030 0.632270 -0.619591
O4    O     O_R   0.548480 0.499990 0.632240 -0.604921
O5    O     O_R   0.386890 0.319100 0.500010 -0.561566
O6    O     O_R   0.613050 0.319060 0.499990 -0.616363
O7    O     O_R   0.451520 0.500010 0.367760 -0.585891
O8    O     O_R   0.677670 0.499970 0.367730 -0.615726
O9    O     O_3   0.196041 0.321969 0.409197 -0.602562
Zn1   Zn    Zn3+2 0.349000 0.500030 0.500020 0.975412
Zn2   Zn    Zn3+2 0.651000 0.499970 0.499980 0.932308

loop_
_geom_bond_atom_site_label_1
_geom_bond_atom_site_label_2
_ccdc_geom_bond_type
C8    C9    D    
C19   C23   A    
C24   H14   S    
C16   O8    A    
C7    C18   A    
O2    Zn2   S    
N1    Zn1   S    
C25   H16   S    
C19   C20   A    
O4    Zn2   S    
C13   O9    S    
C13   N1    D    
C4    O3    A    
C17   C20   A    
C3    C27   A    
C2    C3    A    
C5    H12   S    
C30   H9    S    
C1    O1    A    
C20   H6    S    
C7    H2    S    
C12   C23   A    
C26   C27   A    
C22   H11   S    
C12   C21   A    
O5    Zn1   S    
C5    C6    A    
C10   H20   S    
C23   C29   A    
C22   C24   S    
C8    C10   S    
C28   C29   A    
C14   H23   S    
C15   O5    A    
C26   C30   A    
C29   H1    S    
C3    C7    A    
C19   H5    S    
H24   N2    S    
C9    C15   S    
C30   C31   A    
C24   H13   S    
C6    C18   A    
C31   H4    S    
C8    H18   S    
C22   H10   S    
C10   C11   D    
C4    C17   S    
N2    Zn2   S    
C2    C5    A    
O7    Zn1   S    
O1    Zn1   S    
C27   C28   A    
O8    Zn2   S    
C24   C25   S    
C25   H15   S    
C16   C18   S    
H22   N1    S    
C1    O2    A    
C14   N2    D    
C15   O6    A    
O6    Zn2   S    
C22   O9    S    
C11   H21   S    
C16   O7    A    
C28   H8    S    
C13   C14   S    
C25   H17   S    
C4    O4    A    
C17   C21   A    
C21   H7    S    
C6    H3    S    
O3    Zn1   S    
C12   C26   A    
C2    C31   A    
C9    H19   S    
C1    C11   S    
