data_mof_unit_34279.cif
_audit_creation_date              2012-12-11T15:55:45-0500
_audit_creation_method            fapswitch 2.2
_symmetry_space_group_name_H-M    P1
_symmetry_Int_Tables_number       1
_space_group_crystal_system       triclinic
_cell_length_a                    11.054977
_cell_length_b                    11.193583
_cell_length_c                    18.709318
_cell_angle_alpha                 90.430533
_cell_angle_beta                  90.613292
_cell_angle_gamma                 59.001816
_cell_volume                      1984.41602485

loop_
_atom_site_label
_atom_site_type_symbol
_atom_type_description
_atom_site_fract_x
_atom_site_fract_y
_atom_site_fract_z
_atom_type_partial_charge
C1    C     C_R   0.387214 0.706906 0.389981 0.537996
C2    C     C_R   0.577238 0.026413 0.198694 0.067510
C3    C     C_R   0.321565 0.261888 0.180376 0.010566
C4    C     C_R   0.425638 0.176354 0.297534 -0.139503
C5    C     C_R   0.436122 0.152896 0.223652 0.023183
C6    C     C_R   0.081627 0.653947 0.318352 -0.039226
C7    C     C_R   0.000637 0.759585 0.367628 -0.069686
C8    C     C_R   0.595763 0.958042 0.133971 -0.012670
C9    C     C_R   0.721993 0.899937 0.096270 -0.021575
C10   C     C_R   0.209859 0.379958 0.215046 -0.172486
C11   C     C_R   0.214649 0.402175 0.288096 -0.045240
C12   C     C_R   0.378903 0.347633 0.392448 0.532088
C13   C     C_R   0.937587 0.733733 0.424855 -0.109040
C14   C     C_R   0.955419 0.601873 0.433077 -0.112895
C15   C     C_R   0.032874 0.497077 0.382900 -0.073142
C16   C     C_R   0.098075 0.522152 0.325494 0.061088
C17   C     C_R   0.333150 0.307232 0.326910 -0.006754
C18   C     C_R   0.838720 0.360464 0.178798 -0.003894
C19   C     C_R   0.858656 0.255238 0.221824 -0.050148
C20   C     C_R   0.824245 0.273418 0.292265 -0.016764
C21   C     C_R   0.743861 0.518893 0.281293 -0.016126
C22   C     C_R   0.779397 0.495322 0.208226 0.028982
C23   C     C_R   0.714459 0.417314 0.395518 0.535681
C24   C     C_3   0.809309 0.159445 0.207921 -0.064505
C25   C     C_3   0.773645 0.174506 0.287346 -0.253532
C26   C     C_R   0.758465 0.404293 0.322297 -0.024473
C27   C     C_R   0.359372 0.833862 0.173800 0.020512
C28   C     C_R   0.330305 0.926438 0.230607 0.016594
C29   C     C_R   0.340900 0.884174 0.301003 0.101019
C30   C     C_R   0.403814 0.653968 0.260304 -0.202189
C31   C     C_R   0.392231 0.696636 0.188656 -0.028272
C32   C     C_3   0.191366 0.054930 0.245275 -0.301800
C33   C     C_3   0.207208 0.011840 0.322331 -0.265278
C34   C     C_R   0.369856 0.711244 0.611241 0.571771
C35   C     C_R   0.378169 0.748263 0.316335 0.022273
C36   C     C_R   0.275710 0.272791 0.802413 0.011416
C37   C     C_R   0.387472 0.166797 0.763547 0.014147
C38   C     C_R   0.407095 0.185183 0.692748 0.028532
C39   C     C_R   0.191395 0.407712 0.691992 -0.156965
C40   C     C_R   0.171980 0.389447 0.764511 -0.160569
C41   C     C_3   0.542959 0.091991 0.779296 -0.249392
C42   C     C_3   0.564028 0.109443 0.701661 -0.268655
C43   C     C_R   0.317195 0.311560 0.657867 0.021040
C44   C     C_R   0.844997 0.321031 0.829163 0.019943
C45   C     C_R   0.368845 0.348775 0.595015 0.541771
C46   C     C_R   0.862956 0.416557 0.790613 0.027539
C47   C     C_R   0.863680 0.418879 0.717923 0.025607
C48   C     C_R   0.834804 0.219673 0.715492 -0.170623
C49   C     C_R   0.838576 0.216156 0.790766 -0.174777
C50   C     C_3   0.793302 0.570236 0.799032 -0.265280
C51   C     C_3   0.798501 0.574546 0.718551 -0.273715
C52   C     C_R   0.832998 0.330687 0.679017 0.024182
C53   C     C_R   0.321381 0.814959 0.832308 0.017986
C54   C     C_R   0.246446 0.758845 0.800651 -0.004809
C55   C     C_R   0.263114 0.723322 0.728587 -0.008792
C56   C     C_R   0.766140 0.375455 0.609246 0.549766
C57   C     C_R   0.430770 0.799322 0.718739 -0.166607
C58   C     C_R   0.421071 0.825226 0.791448 -0.169945
C59   C     C_3   0.090566 0.820584 0.797283 -0.100246
C60   C     C_3   0.107809 0.781482 0.718880 -0.272022
C61   C     C_R   0.351548 0.748417 0.686347 0.024050
C62   C     C_R   0.907339 0.319971 0.110036 0.543670
C63   C     C_R   0.303176 0.253909 0.101964 0.558850
C64   C     C_R   0.309549 0.896246 0.103928 0.572165
C65   C     C_R   0.884632 0.308786 0.904210 0.544769
C66   C     C_R   0.269614 0.254984 0.879705 0.551575
C67   C     C_R   0.844481 0.869814 0.133285 0.076232
C68   C     C_R   0.277609 0.891444 0.899153 0.559323
C69   C     C_R   0.834778 0.888796 0.207423 -0.093468
C70   C     C_R   0.702636 0.966794 0.240269 -0.054615
Cr1   Cr    Cr6+3 0.601740 0.606840 0.505840 0.973436
Cr2   Cr    Cr6+3 0.291500 0.601560 0.495070 1.002654
Cr3   Cr    Cr6+3 0.606780 0.291630 0.499130 0.989395
Cr4   Cr    Cr6+3 0.062440 0.063060 0.008240 1.100392
Cr5   Cr    Cr6+3 0.062950 0.375000 0.998920 1.072901
Cr6   Cr    Cr6+3 0.374550 0.061770 0.992470 1.011087
H1    H     H_    0.498242 0.095999 0.333513 0.141993
H2    H     H_    0.877646 0.814870 0.463653 0.093015
H3    H     H_    0.910741 0.580528 0.478911 0.139449
H4    H     H_    0.049991 0.393793 0.391322 0.116278
H5    H     H_    0.902159 0.061271 0.189865 0.103083
H6    H     H_    0.659653 0.224753 0.299867 0.182992
H7    H     H_    0.843839 0.079812 0.318938 0.101392
H8    H     H_    0.428645 0.549079 0.272451 0.120445
H9    H     H_    0.728390 0.857130 0.043387 0.146737
H10   H     H_    0.106912 0.048490 0.217133 0.144735
H11   H     H_    0.188441 0.153663 0.237718 0.141042
H12   H     H_    0.226349 0.079410 0.358782 0.147332
H13   H     H_    0.124279 0.990786 0.340059 0.146051
H14   H     H_    0.114842 0.501335 0.664513 0.115682
H15   H     H_    0.081932 0.470463 0.791914 0.123131
H16   H     H_    0.589553 0.981295 0.794370 0.149262
H17   H     H_    0.573530 0.152122 0.815079 0.172634
H18   H     H_    0.606761 0.178659 0.694059 0.160323
H19   H     H_    0.991758 0.859894 0.363129 0.095965
H20   H     H_    0.617843 0.009535 0.671452 0.134814
H21   H     H_    0.823454 0.142198 0.686410 0.123118
H22   H     H_    0.831645 0.135732 0.818685 0.145099
H23   H     H_    0.859587 0.604233 0.826822 0.180989
H24   H     H_    0.685211 0.616173 0.820591 0.152696
H25   H     H_    0.693278 0.629937 0.693896 0.170411
H26   H     H_    0.871495 0.607413 0.699105 0.123747
H27   H     H_    0.494964 0.826467 0.687528 0.132615
H28   H     H_    0.481895 0.866659 0.814097 0.139700
H29   H     H_    0.031813 0.934452 0.806254 0.155376
H30   H     H_    0.082152 0.700873 0.705043 0.120288
H31   H     H_    0.057234 0.873958 0.683138 0.144503
H32   H     H_    0.928475 0.859559 0.237832 0.065766
H33   H     H_    0.703481 0.986563 0.296513 0.103869
H34   H     H_    0.138671 0.672101 0.277365 0.083323
H35   H     H_    0.555478 0.891079 0.134746 0.141101
H36   H     H_    0.119384 0.456973 0.185104 0.195660
O1    O     O_R   0.748670 0.497520 0.427970 -0.571859
O2    O     O_R   0.300170 0.471020 0.567120 -0.515639
O3    O     O_R   0.491630 0.259030 0.574940 -0.521501
O4    O     O_R   0.718640 0.304340 0.577850 -0.503111
O5    O     O_3   0.500010 0.500010 0.500020 -0.303031
O6    O     O_R   0.186620 0.923750 0.087000 -0.506892
O7    O     O_R   0.957350 0.194160 0.084660 -0.476974
O8    O     O_R   0.935120 0.407280 0.085350 -0.510601
O9    O     O_R   0.203800 0.365060 0.067090 -0.473828
O10   O     O_R   0.417470 0.174910 0.067830 -0.505808
O11   O     O_R   0.375160 0.946380 0.070880 -0.547480
O12   O     O_R   0.476470 0.723930 0.429450 -0.506283
O13   O     O_R   0.160500 0.919670 0.926690 -0.470827
O14   O     O_R   0.933140 0.190380 0.936050 -0.482582
O15   O     O_R   0.909010 0.403210 0.925030 -0.520779
O16   O     O_R   0.179590 0.361290 0.918480 -0.487917
O17   O     O_R   0.391360 0.170840 0.907510 -0.510223
O18   O     O_R   0.350950 0.942600 0.922260 -0.525457
O19   O     O_3   0.166650 0.166610 0.999880 -0.319627
O20   O     O_R   0.264730 0.744140 0.416740 -0.515874
O21   O     O_R   0.309440 0.472410 0.418220 -0.501233
O22   O     O_R   0.501630 0.260530 0.414310 -0.544170
O23   O     O_R   0.727920 0.305730 0.428950 -0.487942
O24   O     O_R   0.738670 0.496020 0.588600 -0.536228
O25   O     O_R   0.467190 0.722540 0.578350 -0.505228
O26   O     O_R   0.254720 0.742640 0.577370 -0.508977
C71   C     C_2   0.694214 0.661290 0.312015 0.248283
H37   H     H_    0.712690 0.679755 0.366255 0.170477
O27   O     O_2   0.631177 0.765154 0.275317 -0.556181
C72   C     C_2   0.769451 0.606933 0.164682 0.328620
H38   H     H_    0.688211 0.656658 0.123989 0.113630
O28   O     O_2   0.863715 0.631737 0.170301 -0.536056
C73   C     C_2   0.685341 0.221386 0.156504 0.588505
O29   O     O_2   0.568620 0.310986 0.176759 -0.565815
O30   O     O_R   0.706813 0.180630 0.084783 -0.666110
H39   H     H_    0.618203 0.234653 0.054636 0.365617
C74   C     C_2   0.399349 0.602125 0.131120 0.256568
H40   H     H_    0.362417 0.530975 0.141084 0.163420
O31   O     O_2   0.445040 0.603453 0.072193 -0.495417
C75   C     C_2   0.983870 0.799591 0.098512 0.292685
H41   H     H_    0.078644 0.764775 0.130522 0.084912
O32   O     O_2   0.994630 0.779837 0.034027 -0.453413
C76   C     C_2   0.042585 0.742911 0.842542 0.260755
H42   H     H_    0.112950 0.633152 0.853841 0.133710
O33   O     O_2   0.924079 0.803646 0.867578 -0.500745

loop_
_geom_bond_atom_site_label_1
_geom_bond_atom_site_label_2
_ccdc_geom_bond_type
C44   C49   A    
C7    C13   A    
C21   C26   A    
C29   C33   S    
C76   O33   D    
C41   C42   S    
C19   C20   A    
C1    O20   A    
C73   O29   D    
Cr2   O21   S    
Cr1   O25   S    
C53   C54   A    
C51   H26   S    
C48   H21   S    
C50   H23   S    
C59   H29   S    
Cr3   O4    S    
C30   C35   A    
C42   H20   S    
C65   O15   A    
C28   C29   A    
C33   H12   S    
C38   C42   S    
C24   C73   S    
C74   O31   D    
C30   C31   A    
C31   C74   S    
Cr6   O19   S    
C36   C66   S    
Cr4   O13   S    
C20   C25   S    
C15   C16   A    
Cr2   O2    S    
C64   O6    A    
Cr1   O1    S    
C18   C19   A    
C11   C16   S    
C23   C26   S    
C4    H1    S    
C53   C68   S    
O30   H39   S    
C9    H9    S    
C49   H22   S    
C46   C47   A    
Cr6   O18   S    
C45   O2    A    
C41   H17   S    
Cr3   O23   S    
C44   C46   A    
C8    C9    A    
C12   C17   S    
C10   H36   S    
Cr5   O16   S    
C13   C14   A    
C39   H14   S    
C62   O8    A    
C66   O17   A    
C55   C60   S    
Cr2   O26   S    
C59   C60   S    
C12   O22   A    
Cr4   O19   S    
C30   H8    S    
C6    H34   S    
C42   H18   S    
C44   C65   S    
Cr4   O6    S    
C73   O30   S    
C69   H32   S    
Cr5   O19   S    
Cr2   O20   S    
C54   C59   S    
C56   O4    A    
C57   H27   S    
Cr3   O5    S    
Cr1   O5    S    
C27   C31   A    
Cr1   O12   S    
C28   C32   S    
C24   C25   S    
C10   C11   A    
C8    H35   S    
Cr1   O24   S    
C59   C76   S    
C18   C62   S    
C47   C51   S    
C32   H11   S    
C34   O26   A    
C34   C61   S    
C67   C69   A    
Cr2   O5    S    
C24   H5    S    
C9    C67   A    
C37   C38   A    
Cr4   O7    S    
C70   H33   S    
C33   H13   S    
C23   O1    A    
Cr6   O17   S    
C45   O3    A    
C15   H4    S    
C14   C15   A    
C36   C40   A    
C71   H37   S    
C32   H10   S    
C22   C72   S    
C50   C51   S    
C63   O9    A    
C14   H3    S    
C75   H41   S    
C68   O18   A    
C43   C45   S    
C62   O7    A    
C47   C52   A    
C60   H31   S    
C4    C17   A    
C48   C49   A    
C75   O32   D    
C56   O24   A    
C12   O21   A    
C25   H6    S    
C72   O28   D    
C2    C5    S    
C58   H28   S    
C21   C71   S    
C39   C40   A    
C63   O10   A    
C60   H30   S    
C1    C35   S    
C46   C50   S    
C54   C55   A    
C36   C37   A    
C67   C75   S    
Cr5   O9    S    
Cr6   O11   S    
C2    C8    A    
Cr5   O8    S    
C4    C5    A    
C3    C5    A    
C11   C17   A    
C39   C43   A    
C53   C58   A    
C57   C61   A    
C6    C7    A    
C3    C63   S    
C51   H25   S    
C64   O11   A    
C7    H19   S    
C29   C35   A    
C34   O25   A    
C50   H24   S    
Cr3   O3    S    
C23   O23   A    
Cr6   O10   S    
C32   C33   S    
C18   C22   A    
C19   C24   S    
C1    O12   A    
C38   C43   A    
C3    C10   A    
C2    C70   A    
C74   H40   S    
C65   O14   A    
C71   O27   D    
C57   C58   A    
Cr4   O14   S    
C20   C26   A    
C55   C61   A    
C66   O16   A    
Cr5   O15   S    
C40   H15   S    
C37   C41   S    
C69   C70   A    
C27   C64   S    
C13   H2    S    
C6    C16   A    
C48   C52   A    
C41   H16   S    
Cr3   O22   S    
C76   H42   S    
C25   H7    S    
C72   H38   S    
C21   C22   A    
C68   O13   A    
C52   C56   S    
C27   C28   A    
