data_mof_unit_30787.cif
_audit_creation_date              2012-10-26T21:08:08-0400
_audit_creation_method            fapswitch 2.2
_symmetry_space_group_name_H-M    P1
_symmetry_Int_Tables_number       1
_space_group_crystal_system       triclinic
_cell_length_a                    15.855051
_cell_length_b                    10.829
_cell_length_c                    9.588728
_cell_angle_alpha                 90.74579
_cell_angle_beta                  90.071544
_cell_angle_gamma                 92.420345
_cell_volume                      1644.71969341

loop_
_atom_site_label
_atom_site_type_symbol
_atom_type_description
_atom_site_fract_x
_atom_site_fract_y
_atom_site_fract_z
_atom_type_partial_charge
C1    C     C_R   0.507848 0.263400 0.499558 0.548935
C2    C     C_R   0.563675 0.069047 0.875962 0.247289
C3    C     C_R   0.515144 0.959584 0.886970 -0.109588
C4    C     C_R   0.339863 0.499582 0.499905 0.552971
C5    C     C_R   0.488336 0.895214 0.767196 -0.153703
C6    C     C_R   0.506129 0.942855 0.633262 -0.002247
C7    C     C_R   0.535863 0.066955 0.625059 0.002539
C8    C     C_R   0.519868 0.130199 0.499533 -0.005529
C9    C     C_R   0.500875 0.062993 0.377063 -0.131676
C10   C     C_R   0.493188 0.935572 0.379509 -0.153021
C11   C     C_R   0.494849 0.873504 0.506680 -0.005228
C12   C     C_3   0.082564 0.499924 0.500130 0.050512
C13   C     C_R   0.611919 0.664936 0.146340 -0.087250
C14   C     C_R   0.666095 0.745880 0.075138 -0.157239
C15   C     C_R   0.666138 0.745524 0.931505 -0.158303
C16   C     C_R   0.496111 0.738007 0.501768 0.535414
C17   C     C_R   0.611778 0.664540 0.858205 -0.092611
C18   C     C_R   0.554862 0.581073 0.926349 0.145590
C19   C     C_R   0.554876 0.581126 0.075985 0.160565
C20   C     C_R   0.448284 0.422189 0.072662 0.028868
C21   C     C_R   0.448307 0.422225 0.924716 0.014583
C22   C     C_R   0.660117 0.500594 0.500115 0.531305
C23   C     C_3   0.974549 0.586032 0.591574 -0.101593
C24   C     C_3   0.968566 0.388193 0.537643 -0.097639
C25   C     C_3   0.025272 0.414173 0.409040 -0.098382
C26   C     C_1   0.250010 0.499651 0.499805 -0.035108
C27   C     C_1   0.749903 0.500570 0.500362 -0.031758
C28   C     C_3   0.027383 0.473940 0.628737 -0.099737
C29   C     C_3   0.645373 0.223231 0.730887 -0.312074
C30   C     C_3   0.917278 0.500282 0.500477 0.052542
C31   C     C_3   0.031255 0.612014 0.462973 -0.101806
C32   C     C_3   0.972446 0.526265 0.371881 -0.097776
C33   C     C_1   0.174358 0.499755 0.499904 -0.063303
C34   C     C_1   0.825523 0.500461 0.500503 -0.056727
C35   C     C_R   0.577370 0.122057 0.744155 0.036183
Cl1   Cl    Cl    0.606634 0.137477 0.029406 -0.675249
Cu1   Cu    Cu3+1 0.499990 0.499990 0.640660 0.907365
Cu2   Cu    Cu3+1 0.500010 0.500010 0.359340 0.951734
H1    H     H_    0.047423 0.343627 0.334096 0.107106
H2    H     H_    0.405977 0.358402 0.868391 0.122236
H3    H     H_    0.941449 0.296343 0.568313 0.108060
H4    H     H_    0.948529 0.547749 0.266454 0.110419
H5    H     H_    0.058320 0.703891 0.432310 0.106297
H6    H     H_    0.952353 0.656557 0.666509 0.105653
H7    H     H_    0.051266 0.452460 0.734183 0.106691
H8    H     H_    0.490694 0.108852 0.279153 0.185075
H9    H     H_    0.705192 0.191761 0.776035 0.144590
H10   H     H_    0.659071 0.246035 0.620615 0.117449
H11   H     H_    0.627047 0.307322 0.788796 0.205979
H12   H     H_    0.501645 0.920773 0.988475 0.139686
H13   H     H_    0.450649 0.811228 0.782412 0.157945
H14   H     H_    0.483053 0.885993 0.281636 0.144041
H15   H     H_    0.405928 0.358375 0.126905 0.116007
H16   H     H_    0.618061 0.672362 0.256269 0.182970
H17   H     H_    0.708576 0.809185 0.132171 0.141548
H18   H     H_    0.708409 0.808846 0.876112 0.133372
H19   H     H_    0.616906 0.672393 0.748431 0.188908
N1    N     N_R   0.500800 0.501210 0.147910 -0.235996
N2    N     N_R   0.500830 0.501290 0.852040 -0.253777
O1    O     O_R   0.499990 0.319640 0.618810 -0.504513
O2    O     O_R   0.500000 0.319660 0.381240 -0.484827
O3    O     O_R   0.379070 0.499980 0.618770 -0.495926
O4    O     O_R   0.379080 0.500000 0.381190 -0.497984
O5    O     O_R   0.500000 0.680340 0.618760 -0.531774
O6    O     O_R   0.500010 0.680360 0.381190 -0.527875
O7    O     O_R   0.620920 0.500000 0.618810 -0.532374
O8    O     O_R   0.620930 0.500020 0.381230 -0.497829

loop_
_geom_bond_atom_site_label_1
_geom_bond_atom_site_label_2
_ccdc_geom_bond_type
C2    C35   A    
C8    C9    A    
C4    C26   S    
C24   C25   S    
C21   N2    A    
Cu1   Cu2   S    
C1    C8    S    
C9    C10   A    
C29   C35   S    
C26   C33   T    
C31   C32   S    
Cu2   O6    S    
C12   C25   S    
Cu2   O2    S    
C10   H14   S    
C15   H18   S    
Cu1   N2    S    
C25   C32   S    
Cu2   O4    S    
C14   H17   S    
C9    H8    S    
C12   C31   S    
C29   H11   S    
C13   C14   A    
C25   H1    S    
C30   C32   S    
C24   H3    S    
C4    O4    A    
C27   C34   T    
C6    C7    A    
C21   H2    S    
C31   H5    S    
C29   H9    S    
C3    H12   S    
C12   C28   S    
C17   C18   A    
C2    C3    A    
C22   C27   S    
C19   N1    A    
C5    C6    A    
C28   H7    S    
C24   C30   S    
C22   O8    A    
Cu1   O1    S    
C10   C11   A    
C30   C34   S    
C29   H10   S    
C20   N1    A    
Cu2   O8    S    
C23   C30   S    
C4    O3    A    
C18   N2    A    
C7    C8    A    
Cu1   O5    S    
C18   C19   A    
C20   C21   A    
C13   H16   S    
C11   C16   S    
C1    O1    A    
C2    Cl1   S    
C6    C11   A    
C15   C17   A    
Cu1   O3    S    
C14   C15   A    
C22   O7    A    
C13   C19   A    
C32   H4    S    
C16   O6    A    
C16   O5    A    
Cu1   O7    S    
C23   C31   S    
C12   C33   S    
C23   C28   S    
C7    C35   A    
Cu2   N1    S    
C5    H13   S    
C23   H6    S    
C24   C28   S    
C17   H19   S    
C20   H15   S    
C3    C5    A    
C1    O2    A    
