data_mof_unit_39219.cif
_audit_creation_date              2012-10-26T17:13:05-0400
_audit_creation_method            fapswitch 2.2
_symmetry_space_group_name_H-M    P1
_symmetry_Int_Tables_number       1
_space_group_crystal_system       triclinic
_cell_length_a                    16.821434
_cell_length_b                    16.869222
_cell_length_c                    16.725795
_cell_angle_alpha                 68.352292
_cell_angle_beta                  68.103897
_cell_angle_gamma                 68.372792
_cell_volume                      3943.64543657

loop_
_atom_site_label
_atom_site_type_symbol
_atom_type_description
_atom_site_fract_x
_atom_site_fract_y
_atom_site_fract_z
_atom_type_partial_charge
C1    C     C_R   0.322595 0.949798 0.455728 -0.018837
C2    C     C_R   0.326283 0.447650 0.946650 -0.028352
C3    C     C_R   0.538148 0.414361 0.993345 0.019798
C4    C     C_R   0.036902 0.449431 0.581138 0.030462
C5    C     C_R   0.032676 0.523694 0.402987 0.016392
C6    C     C_2   0.272625 0.909996 0.272686 0.619022
C7    C     C_2   0.726956 0.087823 0.729031 0.671168
C8    C     C_2   0.896696 0.291653 0.281509 0.627844
C9    C     C_2   0.955424 0.755964 0.760608 0.616777
C10   C     C_2   0.238395 0.242667 0.034562 0.645351
C11   C     C_2   0.722320 0.718220 0.084929 0.652861
C12   C     C_2   0.395982 0.141332 0.753413 0.622495
C13   C     C_R   0.013381 0.684640 0.555588 -0.015094
C14   C     C_2   0.601017 0.860404 0.246105 0.595700
C15   C     C_2   0.914974 0.800916 0.460839 0.601849
C16   C     C_2   0.885899 0.249873 0.604364 0.636027
C17   C     C_2   0.814689 0.472095 0.890882 0.629815
C18   C     C_2   0.256602 0.578083 0.836522 0.583524
C19   C     C_2   0.244410 0.866893 0.607483 0.617400
C20   C     C_2   0.750516 0.125926 0.390322 0.603796
C21   C     C_2   0.502285 0.195658 0.122874 0.595310
C22   C     C_2   0.514716 0.822934 0.858723 0.593644
C23   C     C_2   0.133376 0.491955 0.181717 0.603352
C24   C     C_R   0.976942 0.314569 0.450379 -0.019174
C25   C     C_2   0.151216 0.409985 0.745496 0.605854
C26   C     C_R   0.456306 0.972824 0.459804 0.005777
C27   C     C_R   0.542152 0.021574 0.544822 -0.002415
C28   C     C_R   0.020788 0.438670 0.447165 0.004719
C29   C     C_R   0.035191 0.538915 0.540794 0.006979
C30   C     C_R   0.455985 0.456729 0.973119 0.002589
C31   C     C_R   0.557445 0.556777 0.974887 0.005994
C32   C     C_R   0.014110 0.831275 0.568963 0.555056
C33   C     C_R   0.676616 0.045912 0.546783 -0.000661
C34   C     C_R   0.972053 0.171529 0.435750 0.569196
C35   C     C_R   0.830503 0.567411 0.018168 0.566352
C36   C     C_R   0.170933 0.434170 0.974531 0.598948
C37   C     C_R   0.563492 0.031035 0.827906 0.562926
C38   C     C_R   0.436266 0.969101 0.172299 0.574465
C39   C     C_R   0.430334 0.168127 0.987028 0.572623
C40   C     C_R   0.568827 0.830981 0.015177 0.561965
C41   C     C_R   0.982017 0.431685 0.170002 0.580463
C42   C     C_R   0.023446 0.566280 0.829271 0.566875
C43   C     C_R   0.171894 0.970178 0.435933 0.569515
C44   C     C_R   0.016718 0.426010 0.308399 -0.026305
C45   C     C_R   0.827909 0.028988 0.564491 0.575260
C46   C     C_R   0.410672 0.956884 0.413461 0.002031
C47   C     C_R   0.587846 0.039958 0.589417 -0.016630
C48   C     C_R   0.005083 0.392540 0.401918 -0.000608
C49   C     C_R   0.034013 0.591358 0.590327 0.009055
C50   C     C_R   0.405762 0.405567 0.973316 -0.002759
C51   C     C_R   0.605970 0.604638 0.983349 0.005941
C52   C     C_R   0.271586 0.949684 0.403521 -0.002712
C53   C     C_R   0.727939 0.048300 0.597521 -0.007460
C54   C     C_R   0.984630 0.390072 0.265353 -0.008386
C55   C     C_R   0.049587 0.550179 0.675670 0.003545
C56   C     C_R   0.030219 0.604583 0.732487 -0.018177
C57   C     C_R   0.388462 0.261467 0.993054 -0.016110
C58   C     C_R   0.609992 0.737935 0.007371 -0.013744
C59   C     C_R   0.595829 0.052623 0.727391 -0.018568
C60   C     C_R   0.403117 0.947841 0.273073 -0.011238
C61   C     C_R   0.736943 0.606437 0.013214 -0.015424
C62   C     C_R   0.267525 0.394756 0.967025 0.009927
C63   C     C_R   0.010879 0.736928 0.607698 -0.026548
C64   C     C_R   0.962651 0.268860 0.401881 -0.017484
C65   C     C_R   0.449282 0.070902 0.704687 0.078976
C66   C     C_R   0.434971 0.311890 0.001317 -0.015415
C67   C     C_R   0.548786 0.927192 0.297887 0.003101
C68   C     C_R   0.991484 0.721659 0.471990 0.070923
C69   C     C_R   0.963419 0.286121 0.545575 -0.007055
C70   C     C_R   0.735088 0.478929 0.970186 0.007704
C71   C     C_R   0.307263 0.540818 0.904675 0.046125
C72   C     C_R   0.291137 0.938082 0.550320 0.049944
C73   C     C_R   0.708491 0.053169 0.453173 0.040985
C74   C     C_R   0.507266 0.272108 0.040306 0.057456
C75   C     C_R   0.502425 0.741379 0.931304 0.065253
C76   C     C_R   0.055970 0.497982 0.262539 0.053849
C77   C     C_R   0.570520 0.695896 0.976366 -0.010461
C78   C     C_R   0.075617 0.455558 0.704121 0.026720
C79   C     C_R   0.314985 0.940389 0.315553 0.030846
C80   C     C_R   0.684250 0.059046 0.684926 -0.054682
C81   C     C_R   0.953536 0.313839 0.314751 0.037318
C82   C     C_R   0.005123 0.698027 0.698921 0.002576
C83   C     C_R   0.299503 0.300986 0.992529 0.027989
C84   C     C_R   0.689567 0.688596 0.032659 0.015873
C85   C     C_R   0.672765 0.014423 0.417357 0.018711
C86   C     C_R   0.327464 0.973470 0.589715 -0.002660
C87   C     C_R   0.052542 0.408055 0.665666 0.017951
C88   C     C_R   0.543958 0.054073 0.675262 -0.020146
C89   C     C_R   0.043877 0.556565 0.310503 0.009197
C90   C     C_R   0.449364 0.693410 0.928290 -0.001004
C91   C     C_R   0.567487 0.321385 0.019430 0.012353
C92   C     C_R   0.592344 0.951946 0.339255 -0.026374
C93   C     C_R   0.407635 0.037704 0.668176 0.024413
C94   C     C_R   0.352472 0.592786 0.913668 -0.010295
C95   C     C_R   0.680272 0.424433 0.989813 -0.009088
C96   C     C_R   0.999997 0.321167 0.584622 -0.011511
C97   C     C_R   0.018031 0.667879 0.414232 -0.002201
C98   C     C_R   0.719718 0.988269 0.338031 -0.068206
C99   C     C_R   0.454297 0.945682 0.326232 -0.005338
C100  C     C_R   0.282801 0.993039 0.672760 -0.115522
C101  C     C_R   0.043157 0.321599 0.708586 -0.074275
C102  C     C_R   0.041465 0.646347 0.269851 -0.091911
C103  C     C_R   0.373838 0.735175 0.895540 -0.110698
C104  C     C_R   0.655875 0.280889 0.023703 -0.061648
C105  C     C_R   0.682090 0.952976 0.302644 -0.118700
C106  C     C_R   0.321644 0.025267 0.710763 -0.085010
C107  C     C_R   0.327641 0.686180 0.886883 -0.103364
C108  C     C_R   0.712468 0.331996 0.006025 -0.107215
C109  C     C_R   0.011580 0.281415 0.671295 -0.108055
C110  C     C_R   0.693746 0.562665 0.989863 -0.009706
C111  C     C_R   0.024469 0.702327 0.321986 -0.112333
C112  C     C_R   0.544705 0.977266 0.419431 0.027795
C113  C     C_R   0.454224 0.015134 0.586423 0.018221
C114  C     C_R   0.020710 0.402173 0.537176 0.030591
C115  C     C_R   0.030481 0.576651 0.452155 0.018274
C116  C     C_R   0.426805 0.549950 0.948602 0.019181
C117  C     C_R   0.591379 0.464942 0.987547 0.028870
C118  C     C_R   0.586955 0.003043 0.461310 0.028647
C119  C     C_R   0.412111 0.988437 0.544793 0.017820
C120  C     C_R   0.475962 0.600068 0.953782 0.022102
Cu1   Cu    Cu3+1 0.995180 0.995180 0.424630 1.133094
Cu2   Cu    Cu3+1 0.004820 0.004820 0.575370 1.063580
Cu3   Cu    Cu3+1 0.995180 0.424630 0.995180 1.043031
Cu4   Cu    Cu3+1 0.004820 0.575370 0.004820 1.114465
Cu5   Cu    Cu3+1 0.424630 0.995180 0.995180 1.133101
Cu6   Cu    Cu3+1 0.575370 0.004820 0.004820 1.103288
H1    H     H_    0.284847 0.035300 0.776178 0.176897
H2    H     H_    0.347841 0.806162 0.877530 0.173390
H3    H     H_    0.045841 0.674966 0.199336 0.169666
H4    H     H_    0.052981 0.286423 0.773844 0.137997
H5    H     H_    0.254733 0.806216 0.255523 0.339099
H6    H     H_    0.791113 0.963117 0.784024 0.326758
H7    H     H_    0.779655 0.333849 0.250828 0.333547
H8    H     H_    0.959757 0.827349 0.831928 0.349261
H9    H     H_    0.170765 0.175934 0.017434 0.340700
H10   H     H_    0.747813 0.692579 0.201900 0.368482
H11   H     H_    0.394851 0.244954 0.787602 0.370689
H12   H     H_    0.723880 0.931181 0.243952 0.142700
H13   H     H_    0.668665 0.941357 0.141785 0.305161
H14   H     H_    0.874295 0.924576 0.388353 0.334267
H15   H     H_    0.957495 0.135432 0.670629 0.290581
H16   H     H_    0.889082 0.356691 0.952219 0.286779
H17   H     H_    0.163434 0.676162 0.782605 0.367783
H18   H     H_    0.210423 0.761054 0.614011 0.348916
H19   H     H_    0.792423 0.194899 0.261540 0.360016
H20   H     H_    0.556581 0.110775 0.222019 0.343763
H21   H     H_    0.602914 0.880412 0.754168 0.335520
H22   H     H_    0.224770 0.549268 0.082403 0.342305
H23   H     H_    0.019497 0.771639 0.288894 0.177432
H24   H     H_    0.087244 0.331416 0.856455 0.315208
H25   H     H_    0.999698 0.217934 0.710290 0.123217
H26   H     H_    0.779715 0.297861 0.009674 0.116479
H27   H     H_    0.270925 0.723672 0.861133 0.204827
H28   H     H_    0.215833 0.987331 0.707715 0.160761
H29   H     H_    0.786828 0.992944 0.302885 0.166830
H30   H     H_    0.683239 0.209931 0.035960 0.173899
O1    O     O_R   0.124540 0.978640 0.385460 -0.463801
O2    O     O_R   0.124540 0.385460 0.978640 -0.467603
O3    O     O_R   0.021360 0.875460 0.614540 -0.470807
O4    O     O_R   0.978640 0.124540 0.385460 -0.444209
O5    O     O_R   0.013780 0.867370 0.487190 -0.497777
O6    O     O_R   0.986220 0.132630 0.512810 -0.542880
O7    O     O_R   0.867370 0.487190 0.013780 -0.538478
O8    O     O_R   0.132630 0.512810 0.986220 -0.486849
O9    O     O_R   0.487190 0.013780 0.867370 -0.476756
O10   O     O_R   0.512810 0.986220 0.132630 -0.515481
O11   O     O_R   0.512810 0.132630 0.986220 -0.510377
O12   O     O_R   0.875460 0.021360 0.614540 -0.478408
O13   O     O_R   0.487190 0.867370 0.013780 -0.517659
O14   O     O_R   0.986220 0.512810 0.132630 -0.515830
O15   O     O_R   0.013780 0.487190 0.867370 -0.505229
O16   O     O_R   0.132630 0.986220 0.512810 -0.522043
O17   O     O_R   0.867370 0.013780 0.487190 -0.515259
O18   O     O_2   0.225525 0.963752 0.224847 -0.464339
O19   O     O_R   0.286993 0.819302 0.287748 -0.662300
O20   O     O_2   0.708692 0.166366 0.723368 -0.365916
O21   O     O_R   0.783835 0.026551 0.780702 -0.613773
O22   O     O_2   0.927890 0.233721 0.242478 -0.486880
O23   O     O_R   0.978640 0.385460 0.124540 -0.478866
O24   O     O_R   0.809628 0.345044 0.286502 -0.644433
O25   O     O_2   0.874156 0.775295 0.784263 -0.489999
O26   O     O_R   0.001252 0.788597 0.790677 -0.645126
O27   O     O_2   0.212852 0.217274 0.116084 -0.459295
O28   O     O_R   0.211870 0.215784 0.980941 -0.606258
O29   O     O_2   0.764600 0.773616 0.047035 -0.437129
O30   O     O_R   0.715398 0.673232 0.175033 -0.630400
O31   O     O_2   0.316713 0.150498 0.790964 -0.484016
O32   O     O_R   0.437077 0.200052 0.753239 -0.663266
O33   O     O_2   0.583133 0.789559 0.272795 -0.426499
O34   O     O_R   0.021360 0.614540 0.875460 -0.470589
O35   O     O_R   0.668305 0.876855 0.166933 -0.638237
O36   O     O_2   0.848406 0.809915 0.523728 -0.493236
O37   O     O_R   0.921650 0.867940 0.380969 -0.714927
O38   O     O_2   0.812950 0.289505 0.591147 -0.392964
O39   O     O_R   0.893819 0.171854 0.673801 -0.603063
O40   O     O_2   0.816987 0.534376 0.823810 -0.441541
O41   O     O_R   0.886822 0.396627 0.890381 -0.679497
O42   O     O_2   0.273969 0.537888 0.781806 -0.459488
O43   O     O_R   0.188803 0.656954 0.835132 -0.665347
O44   O     O_2   0.209951 0.858713 0.687575 -0.521057
O45   O     O_R   0.385460 0.124540 0.978640 -0.470719
O46   O     O_R   0.243310 0.806242 0.569287 -0.665002
O47   O     O_2   0.761386 0.177014 0.419114 -0.462065
O48   O     O_R   0.770283 0.140769 0.297885 -0.709413
O49   O     O_2   0.433962 0.171533 0.159777 -0.501818
O50   O     O_R   0.571896 0.156118 0.163127 -0.718856
O51   O     O_2   0.451174 0.883564 0.840490 -0.544898
O52   O     O_R   0.601250 0.827791 0.808566 -0.668525
O53   O     O_2   0.169486 0.421497 0.162100 -0.511409
O54   O     O_R   0.169127 0.564034 0.131776 -0.706955
O55   O     O_2   0.218166 0.436128 0.711075 -0.409455
O56   O     O_R   0.614540 0.875460 0.021360 -0.443225
O57   O     O_R   0.149177 0.337848 0.821418 -0.599695
O58   O     O_R   0.614540 0.021360 0.875460 -0.491074
O59   O     O_R   0.385460 0.978640 0.124540 -0.470339
O60   O     O_R   0.875460 0.614540 0.021360 -0.470986

loop_
_geom_bond_atom_site_label_1
_geom_bond_atom_site_label_2
_ccdc_geom_bond_type
C78   C87   A    
C21   O50   S    
C44   C48   A    
C62   C83   A    
C60   C79   A    
C89   C102  A    
C11   O30   S    
C10   O28   S    
C20   C73   S    
C102  H3    S    
C38   O59   A    
H20   O50   S    
C69   C96   A    
C96   C114  A    
Cu4   O34   S    
C19   C72   S    
Cu3   Cu4   S    
C71   C94   A    
C29   C49   A    
C95   C117  A    
Cu5   O45   S    
C19   O44   D    
C98   C105  A    
C22   C75   S    
C11   C84   S    
C4    C114  A    
C109  H25   S    
H13   O35   S    
C68   C97   A    
C34   O6    A    
C97   C111  A    
C116  C120  A    
C1    C46   A    
C6    O19   S    
C101  C109  A    
C12   O32   S    
C10   C83   S    
C7    O21   S    
C3    C91   A    
H15   O39   S    
H24   O57   S    
C21   O49   D    
C44   C76   A    
C8    O24   S    
C59   C88   A    
C31   C117  A    
C9    O26   S    
C70   C110  A    
C58   C77   A    
C42   C56   S    
C105  H12   S    
C87   C101  A    
C14   O33   D    
Cu1   O17   S    
Cu1   O4    S    
C18   O42   D    
Cu2   O3    S    
C57   C83   A    
C17   O41   S    
C86   C119  A    
C85   C98   A    
C97   C115  A    
C52   C79   A    
C2    C50   A    
H14   O37   S    
C57   C66   A    
C4    C29   A    
C75   C90   A    
C36   O2    A    
C9    C82   S    
H11   O32   S    
C101  H4    S    
C60   C99   A    
C65   C93   A    
C29   C115  A    
C45   C53   S    
C17   C70   S    
C24   C64   A    
Cu1   O1    S    
C5    C115  A    
C39   O11   A    
C10   O27   D    
C15   O36   D    
Cu6   O58   S    
C102  C111  A    
C85   C118  A    
H9    O28   S    
H8    O26   S    
C36   C62   S    
C61   C110  A    
C111  H23   S    
C34   C64   S    
C40   O13   A    
C1    C52   A    
H17   O43   S    
C24   C69   A    
C33   C53   A    
C31   C120  A    
C94   C107  A    
C1    C72   A    
Cu2   O12   S    
C63   C82   A    
C76   C89   A    
C8    C81   S    
C24   C48   A    
C53   C80   A    
C40   C58   S    
C26   C119  A    
C20   O48   S    
Cu3   O23   S    
Cu6   O11   S    
C42   O15   A    
C4    C87   A    
C55   C78   A    
C94   C116  A    
C92   C112  A    
C30   C116  A    
C23   O53   D    
C43   O1    A    
C49   C55   A    
C12   O31   D    
C21   C74   S    
C19   O46   S    
C35   O7    A    
C25   C78   S    
C90   C120  A    
C74   C91   A    
C3    C30   A    
Cu5   O9    S    
C51   C77   A    
C45   O17   A    
C93   C106  A    
C5    C28   A    
Cu3   O7    S    
C42   O34   A    
C12   C65   S    
C113  C119  A    
C13   C63   A    
C14   C67   S    
Cu1   O5    S    
C7    O20   D    
C55   C56   A    
C25   O55   D    
C98   H29   S    
C22   O52   S    
C35   C61   S    
C107  H27   S    
C104  H30   S    
C64   C81   A    
C103  H2    S    
C75   C77   A    
C39   C57   S    
C73   C85   A    
Cu1   Cu2   S    
C37   C59   S    
C96   C109  A    
C28   C114  A    
C86   C100  A    
C8    O22   D    
C13   C49   A    
C14   O35   S    
C27   C113  A    
C33   C73   A    
Cu3   O2    S    
C51   C110  A    
Cu2   O16   S    
C39   O45   A    
Cu5   Cu6   S    
C33   C47   A    
H16   O41   S    
C38   C60   S    
C58   C84   A    
C2    C71   A    
H7    O24   S    
C26   C112  A    
C37   O58   A    
C104  C108  A    
Cu5   O13   S    
C65   C88   A    
Cu4   O60   S    
C27   C118  A    
C100  H28   S    
C18   C71   S    
C38   O10   A    
C91   C104  A    
C28   C48   A    
C35   O60   A    
H10   O30   S    
H18   O46   S    
C41   O23   A    
C16   C69   S    
C20   O47   D    
C31   C51   A    
Cu6   O10   S    
C61   C84   A    
C59   C80   A    
H19   O48   S    
C37   O9    A    
C43   O16   A    
C50   C66   A    
C32   O5    A    
C56   C82   A    
C23   O54   S    
C67   C99   A    
C72   C86   A    
C32   C63   S    
C6    O18   D    
C41   O14   A    
C40   O56   A    
C100  C106  A    
C27   C47   A    
Cu2   O6    S    
C47   C88   A    
C32   O3    A    
C46   C99   A    
C25   O57   S    
C70   C95   A    
C16   O39   S    
Cu6   O56   S    
C112  C118  A    
H22   O54   S    
Cu5   O59   S    
C6    C79   S    
C108  H26   S    
C15   C68   S    
C106  H1    S    
H6    O21   S    
H5    O19   S    
C67   C92   A    
C11   O29   D    
C22   O51   D    
C93   C113  A    
C41   C54   S    
C30   C50   A    
H21   O52   S    
C43   C52   S    
C45   O12   A    
Cu3   O15   S    
C90   C103  A    
C16   O38   D    
C95   C108  A    
C26   C46   A    
C9    O25   D    
C15   O37   S    
C44   C54   A    
C92   C105  A    
Cu4   O14   S    
C18   O43   S    
C36   O8    A    
C23   C76   S    
C17   O40   D    
C103  C107  A    
C3    C117  A    
C54   C81   A    
C5    C89   A    
C2    C62   A    
C34   O4    A    
C7    C80   S    
Cu4   O8    S    
C13   C68   A    
C66   C74   A    
