data_mof_unit_57989.cif
_audit_creation_date              2012-12-10T18:36:58-0500
_audit_creation_method            fapswitch 2.2
_symmetry_space_group_name_H-M    P1
_symmetry_Int_Tables_number       1
_space_group_crystal_system       triclinic
_cell_length_a                    14.941279
_cell_length_b                    15.481091
_cell_length_c                    23.265834
_cell_angle_alpha                 90.113685
_cell_angle_beta                  104.455901
_cell_angle_gamma                 81.667357
_cell_volume                      5152.88059259

loop_
_atom_site_label
_atom_site_type_symbol
_atom_type_description
_atom_site_fract_x
_atom_site_fract_y
_atom_site_fract_z
_atom_type_partial_charge
C1    C     C_R   0.441370 0.662157 0.492541 0.880889
C2    C     C_R   0.558675 0.337774 0.508795 0.886050
C3    C     C_R   0.441073 0.504382 0.758165 0.150405
C4    C     C_R   0.447752 0.530530 0.224852 0.156254
C5    C     C_R   0.435725 0.516004 0.697522 -0.227816
C6    C     C_R   0.443312 0.540436 0.283829 -0.259827
C7    C     C_R   0.511131 0.483594 0.674157 -0.115607
C8    C     C_R   0.502802 0.484289 0.328664 -0.089165
C9    C     C_R   0.592886 0.436185 0.711166 -0.041893
C10   C     C_R   0.564358 0.414396 0.314820 -0.021723
C11   C     C_R   0.598312 0.423341 0.771056 -0.143287
C12   C     C_R   0.569930 0.404913 0.256385 -0.143406
C13   C     C_R   0.523789 0.457252 0.794543 0.267693
C14   C     C_R   0.513429 0.463183 0.211764 0.280132
C15   C     C_R   0.405229 0.754843 0.492949 -0.074453
C16   C     C_R   0.594204 0.245116 0.521263 -0.064479
C17   C     C_R   0.279881 0.877149 0.468690 0.017647
C18   C     C_R   0.712443 0.127610 0.572200 0.002505
C19   C     C_R   0.310572 0.787359 0.470283 -0.234512
C20   C     C_R   0.686333 0.215137 0.552547 -0.220464
C21   C     C_R   0.468358 0.811191 0.516640 -0.254407
C22   C     C_R   0.529719 0.187372 0.507651 -0.245557
C23   C     C_R   0.502356 0.497152 0.610815 0.876422
C24   C     C_R   0.499601 0.498269 0.389682 0.876784
C25   C     C_R   0.440241 0.900953 0.516985 0.079865
C26   C     C_R   0.550453 0.102486 0.531696 0.081371
C27   C     C_R   0.344825 0.934827 0.491244 0.115074
C28   C     C_R   0.644133 0.070747 0.562611 0.113940
C29   C     C_R   0.506878 0.957947 0.537521 0.081283
C30   C     C_R   0.480168 0.048033 0.523598 0.083545
C31   C     C_R   0.383944 0.080980 0.502442 -0.218807
C32   C     C_R   0.599664 0.927876 0.570379 -0.219259
C33   C     C_R   0.317533 0.025352 0.487278 -0.214249
C34   C     C_R   0.666590 0.983481 0.583115 -0.214001
C35   C     C_R   0.835382 0.646129 0.585154 -0.091662
C36   C     C_R   0.163250 0.348939 0.425262 -0.089758
C37   C     C_R   0.750877 0.613944 0.574277 -0.014511
C38   C     C_R   0.252355 0.372046 0.439206 -0.025079
C39   C     C_R   0.793682 0.518096 0.503376 -0.030560
C40   C     C_R   0.199804 0.503027 0.480777 -0.036230
C41   C     C_R   0.878691 0.551241 0.509096 -0.027186
C42   C     C_R   0.111061 0.478907 0.476455 -0.029315
C43   C     C_R   0.898115 0.619716 0.549061 0.058629
C44   C     C_R   0.091434 0.400014 0.446445 0.064220
C45   C     C_R   0.481696 0.394613 0.117614 0.510584
C46   C     C_R   0.583944 0.502329 0.893531 0.507915
C47   C     C_R   0.947374 0.512640 0.480207 -0.004618
C48   C     C_R   0.040561 0.531160 0.499206 -0.011388
C49   C     C_R   0.057347 0.601233 0.539082 -0.022092
C50   C     C_R   0.928185 0.448347 0.437700 -0.054084
C51   C     C_R   0.982300 0.654255 0.554315 0.054969
C52   C     C_R   0.998820 0.380617 0.434138 0.057031
C53   C     C_R   0.579078 0.506439 0.134061 0.490190
C54   C     C_R   0.493159 0.385486 0.877946 0.486890
C55   C     C_R   0.586958 0.503753 0.074917 -0.063152
C56   C     C_R   0.493245 0.381822 0.938588 -0.059870
C57   C     C_R   0.539282 0.444023 0.036962 -0.028422
C58   C     C_R   0.540883 0.441503 0.976612 -0.026757
C59   C     C_R   0.488386 0.387820 0.058962 -0.019585
C60   C     C_R   0.588736 0.500079 0.954126 -0.021257
C61   C     C_R   0.638494 0.559131 0.051818 -0.021187
C62   C     C_R   0.446002 0.323114 0.962477 -0.022585
C63   C     C_R   0.638235 0.556965 0.991957 -0.202905
C64   C     C_R   0.443703 0.327217 0.021939 -0.203123
H1    H     H_    0.357617 0.149992 0.498191 0.150640
H2    H     H_    0.622177 0.861906 0.588392 0.149079
H3    H     H_    0.216070 0.566814 0.492797 0.149035
H4    H     H_    0.775381 0.463647 0.476437 0.134995
H5    H     H_    0.308577 0.332796 0.425022 0.139609
H6    H     H_    0.700229 0.636181 0.599305 0.141579
H7    H     H_    0.676300 0.601069 0.974746 0.193754
H8    H     H_    0.405649 0.283110 0.039153 0.193493
H9    H     H_    0.374195 0.551514 0.667976 0.172966
H10   H     H_    0.394547 0.592746 0.294966 0.146642
H11   H     H_    0.660900 0.387330 0.800070 0.151760
H12   H     H_    0.618502 0.352488 0.245197 0.150441
H13   H     H_    0.245086 0.054046 0.470277 0.162618
H14   H     H_    0.736509 0.956958 0.608207 0.164204
H15   H     H_    0.462374 0.210478 0.478193 0.154645
H16   H     H_    0.540982 0.783945 0.531978 0.161586
H17   H     H_    0.737166 0.259932 0.562570 0.173979
H18   H     H_    0.261301 0.743281 0.452021 0.158474
N1    N     N_R   0.525110 0.454258 0.152995 -0.354290
N2    N     N_R   0.534763 0.447262 0.856986 -0.353499
N3    N     N_R   0.731690 0.552740 0.533440 -0.111422
N4    N     N_R   0.268310 0.447260 0.466560 -0.110953
O1    O     O_R   0.383120 0.605620 0.483150 -0.621791
O2    O     O_R   0.616880 0.394380 0.516850 -0.612521
O3    O     O_R   0.531890 0.639510 0.504600 -0.619433
O4    O     O_R   0.468110 0.360490 0.495400 -0.627829
O5    O     O_R   0.425590 0.483070 0.573110 -0.595873
O6    O     O_R   0.574410 0.516930 0.426890 -0.598768
O7    O     O_R   0.574360 0.516970 0.594570 -0.615545
O8    O     O_R   0.425640 0.483030 0.405430 -0.612535
O9    O     O_2   0.431265 0.342964 0.139148 -0.565048
O10   O     O_2   0.626458 0.560309 0.870795 -0.555600
O11   O     O_2   0.623106 0.561335 0.172483 -0.541907
O12   O     O_2   0.450772 0.329565 0.839644 -0.550958
Zn1   Zn    Zn3+2 0.400660 0.477370 0.485670 0.956059
Zn2   Zn    Zn3+2 0.599340 0.522630 0.514330 0.962773
C65   C     C_1   0.691414 0.620434 0.087138 0.282368
N5    N     N_1   0.733908 0.669606 0.115193 -0.160924
C66   C     C_1   0.397043 0.258802 0.927800 0.281604
N6    N     N_1   0.357741 0.207196 0.900257 -0.158940
C67   C     C_1   0.183008 0.908323 0.440009 0.127223
N7    N     N_1   0.105615 0.933245 0.416637 -0.207535
C68   C     C_1   0.808867 0.098807 0.603100 0.134039
N8    N     N_1   0.886113 0.075809 0.627776 -0.194843
C69   C     C_3   0.992773 0.747312 0.574522 -0.405524
C70   C     C_3   0.021829 0.802586 0.529296 -0.349399
C71   C     C_3   0.023840 0.896673 0.549051 -0.826288
H19   H     H_    0.953490 0.927168 0.552626 0.263896
H20   H     H_    0.074891 0.898215 0.592747 0.267879
H21   H     H_    0.044850 0.935773 0.516148 0.259663
H22   H     H_    0.092240 0.775498 0.524202 0.235030
H23   H     H_    0.971080 0.802828 0.485248 0.234551
H24   H     H_    0.925286 0.783413 0.578624 0.217375
H25   H     H_    0.044146 0.744993 0.618465 0.216341
C72   C     C_3   0.972886 0.289122 0.422653 -0.404704
C73   C     C_3   0.912745 0.264204 0.463256 -0.363979
C74   C     C_3   0.891864 0.170821 0.453735 -0.807985
H26   H     H_    0.853951 0.163467 0.406841 0.271821
H27   H     H_    0.957762 0.123676 0.464796 0.258655
H28   H     H_    0.847385 0.155504 0.482981 0.255045
H29   H     H_    0.950203 0.269971 0.510510 0.230922
H30   H     H_    0.845259 0.308726 0.454369 0.236089
H31   H     H_    0.935085 0.285363 0.375285 0.220454
H32   H     H_    0.035766 0.238888 0.433118 0.219129
C75   C     C_1   0.859591 0.694234 0.638790 0.120101
N9    N     N_1   0.878723 0.732522 0.681837 -0.193195
C76   C     C_1   0.147515 0.281188 0.382641 0.119298
N10   N     N_1   0.135481 0.227015 0.348393 -0.186743
C77   C     C_1   0.149705 0.615652 0.571499 0.115865
N11   N     N_1   0.223015 0.628747 0.597358 -0.246082
C78   C     C_1   0.842627 0.459114 0.390721 0.156167
N12   N     N_1   0.774740 0.468282 0.352841 -0.167333
C79   C     C_3   0.362305 0.542089 0.786016 -0.421101
C80   C     C_3   0.275837 0.594113 0.743494 -0.360230
C81   C     C_3   0.202065 0.629177 0.776131 -0.827045
H33   H     H_    0.178986 0.574466 0.796704 0.266260
H34   H     H_    0.230612 0.673770 0.811212 0.263832
H35   H     H_    0.140476 0.666079 0.744168 0.256432
H36   H     H_    0.296284 0.650408 0.722843 0.240525
H37   H     H_    0.244329 0.550977 0.708275 0.244496
H38   H     H_    0.339076 0.487456 0.806549 0.230065
H39   H     H_    0.390817 0.585523 0.821983 0.209984
C82   C     C_3   0.381996 0.591899 0.177195 -0.415511
C83   C     C_3   0.283326 0.567178 0.162912 -0.348069
C84   C     C_3   0.216594 0.627379 0.113960 -0.837289
H40   H     H_    0.212174 0.696172 0.127983 0.265414
H41   H     H_    0.240904 0.622338 0.072512 0.263178
H42   H     H_    0.145764 0.608109 0.104745 0.258434
H43   H     H_    0.285552 0.498741 0.148078 0.255955
H44   H     H_    0.256116 0.571755 0.203315 0.229556
H45   H     H_    0.380457 0.659970 0.192705 0.211333
H46   H     H_    0.406248 0.590817 0.135816 0.209295
C85   C     C_1   0.670772 0.397468 0.688617 0.206724
N13   N     N_1   0.733141 0.366470 0.670585 -0.195983
C86   C     C_1   0.620121 0.350360 0.359457 0.173808
N14   N     N_1   0.664522 0.298818 0.395081 -0.222516

loop_
_geom_bond_atom_site_label_1
_geom_bond_atom_site_label_2
_ccdc_geom_bond_type
C1    O1    A    
C65   N5    T    
C11   C13   A    
C39   H4    S    
C82   C83   S    
C33   H13   S    
C54   N2    A    
C69   H24   S    
C78   N12   T    
C39   C41   A    
C27   C33   A    
C15   C19   A    
C13   N2    S    
C59   C64   A    
C85   N13   T    
C42   C44   A    
C38   N4    A    
C60   C63   A    
C79   H38   S    
C35   C37   A    
C22   H15   S    
C75   N9    T    
C29   C32   A    
C17   C67   S    
C80   H36   S    
C84   H41   S    
C30   C31   A    
C81   H35   S    
C73   H30   S    
C57   C59   A    
C58   C60   A    
C2    O4    A    
C40   N4    A    
C61   C63   A    
C18   C68   S    
C74   H28   S    
C62   C64   A    
C17   C19   A    
C70   C71   S    
C86   N14   T    
C49   C51   A    
C40   H3    S    
C50   C52   A    
C68   N8    T    
C31   C33   A    
C2    O2    A    
C3    C79   S    
C19   H18   S    
C35   C43   A    
C35   C75   S    
C18   C20   A    
C3    C13   A    
C72   H32   S    
C44   C52   A    
C40   C42   A    
C38   H5    S    
C28   C34   A    
C51   C69   S    
C37   H6    S    
C4    C14   A    
C41   C43   A    
C45   N1    A    
C83   H44   S    
C14   N1    S    
C24   O6    A    
C69   H25   S    
C6    H10   S    
C47   C50   A    
O1    Zn1   S    
C53   C55   A    
C25   C29   A    
C54   C56   A    
C70   H22   S    
O3    Zn2   S    
C17   C27   A    
C79   H39   S    
C18   C28   A    
C83   C84   S    
C4    C6    A    
C36   C76   S    
C5    C7    A    
C73   H29   S    
C6    C8    A    
C53   O11   S    
C4    C82   S    
C23   O7    A    
C16   C22   A    
C32   C34   A    
C61   C65   S    
C29   C30   A    
N4    Zn1   S    
C24   O8    A    
C47   C48   A    
C9    C85   S    
C16   C20   A    
C41   C47   A    
C71   H20   S    
C42   C48   A    
C72   C73   S    
C82   H46   S    
C9    C11   A    
O7    Zn2   S    
C74   H26   S    
O2    Zn2   S    
C10   C12   A    
C1    C15   S    
C48   C49   A    
C63   H7    S    
C26   C30   A    
C55   C57   A    
C77   N11   T    
C56   C62   A    
C84   H42   S    
C83   H43   S    
C39   N3    A    
C76   N10   T    
C45   O9    S    
C70   H23   S    
O4    Zn1   S    
C82   H45   S    
C73   C74   S    
O6    Zn2   S    
C32   H2    S    
C62   C66   S    
C67   N7    T    
C37   N3    A    
C31   H1    S    
C21   C25   A    
C45   C59   A    
C1    O3    A    
C71   H19   S    
C46   C60   A    
C12   C14   A    
C3    C5    A    
C81   H33   S    
C2    C16   S    
C25   C27   A    
C79   C80   S    
C26   C28   A    
C53   N1    A    
C12   H12   S    
N3    Zn2   S    
C80   H37   S    
C69   C70   S    
C34   H14   S    
C81   H34   S    
C43   C51   A    
C57   C58   A    
O8    Zn1   S    
C7    C23   S    
C55   C61   A    
C21   H16   S    
C36   C38   A    
C8    C24   S    
C56   C58   A    
C46   N2    A    
C71   H21   S    
C23   O5    A    
C64   H8    S    
C5    H9    S    
C74   H27   S    
C36   C44   A    
C80   C81   S    
C52   C72   S    
C7    C9    A    
C15   C21   A    
C46   O10   S    
C8    C10   A    
C50   C78   S    
C22   C26   A    
C49   C77   S    
C66   N6    T    
C54   O12   S    
C11   H11   S    
O5    Zn1   S    
C84   H40   S    
C10   C86   S    
C20   H17   S    
C72   H31   S    
