data_mof_unit_46354.cif
_audit_creation_date              2012-12-10T18:42:29-0500
_audit_creation_method            fapswitch 2.2
_symmetry_space_group_name_H-M    P1
_symmetry_Int_Tables_number       1
_space_group_crystal_system       triclinic
_cell_length_a                    8.50262
_cell_length_b                    10.706925
_cell_length_c                    9.829801
_cell_angle_alpha                 89.666624
_cell_angle_beta                  98.749797
_cell_angle_gamma                 90.143247
_cell_volume                      884.444093954

loop_
_atom_site_label
_atom_site_type_symbol
_atom_type_description
_atom_site_fract_x
_atom_site_fract_y
_atom_site_fract_z
_atom_type_partial_charge
C1    C     C_R   0.503742 0.260037 0.500927 0.838773
C2    C     C_R   0.496547 0.739861 0.499050 0.897327
C3    C     C_R   0.202754 0.480256 0.465267 0.947527
C4    C     C_R   0.798144 0.483581 0.536176 0.920117
C5    C     C_2   0.041104 0.434857 0.450421 -0.143077
C6    C     C_2   0.962222 0.446276 0.559714 -0.151982
C7    C     C_R   0.423317 0.067167 0.387114 -0.263487
C8    C     C_R   0.579943 0.932428 0.611843 -0.250167
C9    C     C_R   0.415403 0.939137 0.384709 0.007634
C10   C     C_R   0.585625 0.060570 0.615188 0.010079
C11   C     C_R   0.495600 0.872254 0.497793 -0.087491
C12   C     C_R   0.505855 0.127528 0.501919 -0.071265
C13   C     C_R   0.546771 0.603486 0.077406 -0.052995
C14   C     C_R   0.454946 0.396053 0.922834 -0.061897
C15   C     C_R   0.546883 0.603418 0.933587 -0.088030
C16   C     C_R   0.455159 0.396041 0.066671 -0.087119
H1    H     H_    0.362228 0.119937 0.300481 0.151965
H2    H     H_    0.643242 0.879266 0.697414 0.152712
H3    H     H_    0.584467 0.686252 0.136080 0.139936
H4    H     H_    0.418020 0.313057 0.864332 0.134737
H5    H     H_    0.584840 0.686111 0.883846 0.135610
H6    H     H_    0.418407 0.312981 0.116453 0.125533
N1    N     N_R   0.499960 0.499970 0.857200 -0.086921
N2    N     N_R   0.500040 0.500030 0.142800 -0.080285
O1    O     O_R   0.499990 0.316750 0.614620 -0.628517
O2    O     O_R   0.500010 0.683250 0.385380 -0.612362
O3    O     O_R   0.499990 0.316780 0.385290 -0.650248
O4    O     O_R   0.500010 0.683220 0.614710 -0.629128
O5    O     O_R   0.271750 0.499990 0.587840 -0.631290
O6    O     O_R   0.728250 0.500010 0.412160 -0.628812
O7    O     O_R   0.271750 0.500010 0.358510 -0.613186
O8    O     O_R   0.728250 0.499990 0.641490 -0.605859
Zn1   Zn    Zn3+2 0.500000 0.499980 0.653120 0.929585
Zn2   Zn    Zn3+2 0.500000 0.500020 0.346880 0.931172
C17   C     C_3   0.968026 0.374459 0.314594 -0.379374
C18   C     C_3   0.068928 0.264518 0.277324 -0.402663
C19   C     C_3   0.981657 0.189509 0.157278 -0.859962
H7    H     H_    0.871747 0.147043 0.185720 0.269257
H8    H     H_    0.949561 0.250650 0.065829 0.275340
H9    H     H_    0.059924 0.113519 0.130411 0.254223
H10   H     H_    0.181788 0.299308 0.247450 0.243224
H11   H     H_    0.097580 0.201277 0.367818 0.225619
H12   H     H_    0.849042 0.334502 0.321865 0.242192
H13   H     H_    0.955367 0.445658 0.230993 0.219510
C20   C     C_3   0.032579 0.414031 0.708881 -0.361221
C21   C     C_3   0.059784 0.530468 0.801988 -0.278991
C22   C     C_3   0.043808 0.499215 0.950964 -0.885584
H14   H     H_    0.918945 0.472803 0.958460 0.266118
H15   H     H_    0.123645 0.420803 0.989463 0.262394
H16   H     H_    0.076401 0.581987 0.016908 0.263377
H17   H     H_    0.180290 0.569372 0.799837 0.244468
H18   H     H_    0.973549 0.605717 0.765879 0.221047
H19   H     H_    0.947473 0.349699 0.749077 0.215886
H20   H     H_    0.143125 0.357853 0.715908 0.200266
C23   C     C_1   0.319887 0.879990 0.268172 0.163867
N3    N     N_1   0.243436 0.832793 0.174974 -0.218626
C24   C     C_1   0.677242 0.119661 0.733592 0.158542
N4    N     N_1   0.750213 0.166634 0.828649 -0.237497

loop_
_geom_bond_atom_site_label_1
_geom_bond_atom_site_label_2
_ccdc_geom_bond_type
C14   N1    A    
O4    Zn1   S    
C7    H1    S    
C3    O7    A    
C23   N3    T    
C19   H7    S    
C9    C23   S    
C6    C20   S    
C21   H18   S    
C22   H15   S    
C17   H12   S    
C18   H11   S    
C17   C18   S    
O8    Zn1   S    
C15   N1    A    
C18   H10   S    
O7    Zn2   S    
C20   H19   S    
C2    O2    A    
C20   C21   S    
C1    O1    A    
C17   H13   S    
C9    C11   A    
C3    O5    A    
C24   N4    T    
C4    O8    A    
C1    C12   S    
C10   C12   A    
C8    C11   A    
C2    C11   S    
C5    C17   S    
C8    C10   A    
C18   C19   S    
C20   H20   S    
C22   H16   S    
C7    C9    A    
C8    H2    S    
C13   C15   A    
O3    Zn2   S    
C5    C6    D    
C19   H8    S    
C14   C16   A    
C7    C12   A    
C4    C6    S    
C2    O4    A    
C13   H3    S    
C19   H9    S    
O5    Zn1   S    
C15   H5    S    
C10   C24   S    
C14   H4    S    
C16   N2    A    
C1    O3    A    
O6    Zn2   S    
C21   C22   S    
C16   H6    S    
N1    Zn1   S    
C21   H17   S    
O2    Zn2   S    
C4    O6    A    
C22   H14   S    
C13   N2    A    
O1    Zn1   S    
C3    C5    S    
N2    Zn2   S    
