data_mof_unit_8332.cif
_audit_creation_date              2012-12-11T15:56:56-0500
_audit_creation_method            fapswitch 2.2
_symmetry_space_group_name_H-M    P1
_symmetry_Int_Tables_number       1
_space_group_crystal_system       triclinic
_cell_length_a                    17.445288
_cell_length_b                    24.301391
_cell_length_c                    15.073648
_cell_angle_alpha                 90.022451
_cell_angle_beta                  126.63247
_cell_angle_gamma                 89.983754
_cell_volume                      5128.15965204

loop_
_atom_site_label
_atom_site_type_symbol
_atom_type_description
_atom_site_fract_x
_atom_site_fract_y
_atom_site_fract_z
_atom_type_partial_charge
C1    C     C_R   0.307044 0.122617 0.906759 -0.135167
C2    C     C_R   0.307078 0.877337 0.906806 -0.135033
C3    C     C_R   0.807047 0.622622 0.906760 -0.135169
C4    C     C_R   0.807083 0.377331 0.906806 -0.135046
C5    C     C_R   0.648882 0.152403 0.092251 -0.149791
C6    C     C_R   0.648806 0.847578 0.092144 -0.149097
C7    C     C_R   0.148885 0.652401 0.092251 -0.149785
C8    C     C_R   0.148810 0.347580 0.092143 -0.149088
C9    C     C_R   0.557248 0.847724 0.908500 -0.146001
C10   C     C_R   0.557211 0.152318 0.908626 -0.145782
C11   C     C_R   0.057251 0.347726 0.908499 -0.145990
C12   C     C_R   0.057215 0.652317 0.908626 -0.145768
C13   C     C_R   0.531584 0.000134 0.707191 0.021631
C14   C     C_R   0.031544 0.500136 0.707132 0.021667
C15   C     C_R   0.823481 0.999739 0.262896 0.027887
C16   C     C_R   0.323493 0.499740 0.262935 0.027905
C17   C     C_R   0.618009 0.184039 0.000569 0.007653
C18   C     C_R   0.617938 0.815971 0.000390 0.007092
C19   C     C_R   0.118014 0.684037 0.000569 0.007647
C20   C     C_R   0.117944 0.315973 0.000388 0.007083
C21   C     C_3   0.030807 0.957312 0.496647 -0.197974
C22   C     C_3   0.034144 0.047619 0.486258 -0.202947
C23   C     C_3   0.530819 0.457313 0.496659 -0.197977
C24   C     C_3   0.534160 0.547615 0.486282 -0.202947
C25   C     C_3   0.961232 0.004466 0.463420 0.087249
C26   C     C_3   0.461248 0.504465 0.463438 0.087265
C27   C     C_3   0.926985 0.999662 0.343902 0.120081
C28   C     C_3   0.426997 0.499665 0.343922 0.120068
C29   C     C_3   0.997563 0.952329 0.376230 -0.174827
C30   C     C_3   0.000769 0.042743 0.365667 -0.172546
C31   C     C_3   0.497574 0.452334 0.376243 -0.174827
C32   C     C_3   0.500782 0.542745 0.365692 -0.172554
C33   C     C_3   0.074010 0.995366 0.400342 -0.100623
C34   C     C_3   0.574023 0.495370 0.400363 -0.100631
C35   C     C_R   0.401446 0.877150 0.092013 -0.138390
C36   C     C_R   0.401356 0.122844 0.091944 -0.137663
C37   C     C_R   0.901444 0.377151 0.092012 -0.138393
C38   C     C_R   0.901356 0.622842 0.091945 -0.137673
C39   C     C_3   0.104993 0.000361 0.519230 0.185262
C40   C     C_3   0.605006 0.500360 0.519250 0.185253
C41   C     C_3   0.257192 0.820507 0.105210 -0.397071
C42   C     C_3   0.256730 0.179386 0.104817 -0.398782
C43   C     C_3   0.757181 0.320513 0.105202 -0.397072
C44   C     C_3   0.756747 0.679391 0.104829 -0.398772
C45   C     C_3   0.705225 0.269836 0.106684 -0.396551
C46   C     C_3   0.704852 0.730112 0.106326 -0.397665
C47   C     C_3   0.205243 0.769828 0.106694 -0.396559
C48   C     C_3   0.204852 0.230114 0.106323 -0.397673
C49   C     C_3   0.797879 0.265653 0.995072 -0.382072
C50   C     C_3   0.797957 0.734282 0.995270 -0.382328
C51   C     C_3   0.297871 0.765656 0.995055 -0.382062
C52   C     C_3   0.297969 0.234280 0.995287 -0.382331
C53   C     C_3   0.146570 0.822983 0.897973 -0.453621
C54   C     C_3   0.146501 0.177070 0.897559 -0.452958
C55   C     C_3   0.646573 0.322979 0.897962 -0.453619
C56   C     C_3   0.646498 0.677065 0.897573 -0.452930
C57   C     C_3   0.253337 0.819963 0.999306 0.365122
C58   C     C_3   0.253201 0.179993 0.999136 0.366130
C59   C     C_3   0.753338 0.319963 0.999305 0.365125
C60   C     C_3   0.753203 0.679993 0.999138 0.366119
C61   C     C_3   0.662795 0.235151 0.000114 0.321440
C62   C     C_3   0.662672 0.764842 0.999901 0.322222
C63   C     C_3   0.162798 0.735150 0.000115 0.321433
C64   C     C_3   0.162675 0.264844 0.999898 0.322236
C65   C     C_3   0.745324 0.216170 0.996142 -0.430017
C66   C     C_3   0.745371 0.783787 0.996249 -0.429573
C67   C     C_3   0.245315 0.716171 0.996119 -0.430020
C68   C     C_3   0.245376 0.283787 0.996248 -0.429581
C69   C     C_3   0.592718 0.272011 0.896593 -0.071018
C70   C     C_3   0.592646 0.728049 0.896210 -0.072452
C71   C     C_3   0.092715 0.772015 0.896606 -0.071010
C72   C     C_3   0.092647 0.228051 0.896205 -0.072438
C73   C     C_3   0.589599 0.055931 0.620984 -0.485903
C74   C     C_3   0.615624 0.954096 0.641176 -0.467118
C75   C     C_3   0.089563 0.555929 0.620950 -0.485904
C76   C     C_3   0.115590 0.454103 0.641149 -0.467235
C77   C     C_R   0.553467 0.045898 0.305834 -0.146083
C78   C     C_R   0.553551 0.954736 0.306510 -0.146865
C79   C     C_R   0.053480 0.545901 0.305845 -0.146104
C80   C     C_R   0.053570 0.454736 0.306525 -0.146896
C81   C     C_3   0.608694 0.055566 0.533947 -0.088168
C82   C     C_3   0.617764 0.949068 0.541094 -0.098566
C83   C     C_3   0.108595 0.555588 0.533868 -0.088171
C84   C     C_3   0.117800 0.449090 0.541120 -0.098534
C85   C     C_3   0.444746 0.992184 0.503060 0.144119
C86   C     C_3   0.944727 0.492174 0.503020 0.144173
C87   C     C_3   0.544350 0.000314 0.619430 0.247890
C88   C     C_3   0.044314 0.500314 0.619384 0.247876
C89   C     C_3   0.568908 0.000880 0.465278 0.227952
C90   C     C_3   0.068898 0.500883 0.465268 0.227996
C91   C     C_3   0.460183 0.998272 0.412821 -0.543198
C92   C     C_3   0.960174 0.498240 0.412787 -0.543176
C93   C     C_R   0.244557 0.954495 0.691244 0.030182
C94   C     C_R   0.244751 0.045858 0.691651 0.033526
C95   C     C_R   0.744559 0.454495 0.691260 0.030201
C96   C     C_R   0.744756 0.545857 0.691662 0.033526
C97   C     C_R   0.310392 0.135417 0.999082 0.001311
C98   C     C_R   0.310499 0.864526 0.999181 0.001313
C99   C     C_R   0.810395 0.635419 0.999082 0.001315
C100  C     C_R   0.810500 0.364524 0.999179 0.001317
C101  C     C_R   0.572336 0.000575 0.370343 0.047186
C102  C     C_R   0.072362 0.500578 0.370371 0.047192
C103  C     C_R   0.198512 0.000272 0.626999 -0.053575
C104  C     C_R   0.698516 0.500272 0.627031 -0.053580
C105  C     C_R   0.509118 0.046430 0.741150 -0.120501
C106  C     C_R   0.508997 0.953724 0.740633 -0.122645
C107  C     C_R   0.009094 0.546433 0.741114 -0.120514
C108  C     C_R   0.008976 0.453723 0.740598 -0.122691
C109  C     C_R   0.768726 0.953810 0.243123 -0.117727
C110  C     C_R   0.768702 0.045909 0.242286 -0.119598
C111  C     C_R   0.268735 0.453810 0.243154 -0.117752
C112  C     C_R   0.268709 0.545911 0.242312 -0.119602
H1    H     H_    0.249104 0.130084 0.821417 0.104934
H2    H     H_    0.249108 0.869858 0.821473 0.104956
H3    H     H_    0.749115 0.630095 0.821419 0.104933
H4    H     H_    0.749128 0.369842 0.821479 0.104964
H5    H     H_    0.042119 0.922599 0.551190 0.121496
H6    H     H_    0.047040 0.086606 0.531629 0.123135
H7    H     H_    0.542126 0.422599 0.551196 0.121495
H8    H     H_    0.547060 0.586599 0.531656 0.123139
H9    H     H_    0.980780 0.913503 0.329099 0.117918
H10   H     H_    0.986501 0.077466 0.309872 0.119664
H11   H     H_    0.480787 0.413512 0.329106 0.117922
H12   H     H_    0.486515 0.577469 0.309903 0.119670
H13   H     H_    0.123531 0.991663 0.377348 0.120122
H14   H     H_    0.623543 0.491670 0.377373 0.120131
H15   H     H_    0.331737 0.819190 0.181515 0.149229
H16   H     H_    0.331192 0.180583 0.181288 0.147752
H17   H     H_    0.831724 0.319197 0.181512 0.149229
H18   H     H_    0.831216 0.680600 0.181293 0.147754
H19   H     H_    0.223794 0.858815 0.108114 0.160922
H20   H     H_    0.223088 0.141112 0.107353 0.160756
H21   H     H_    0.723781 0.358822 0.108095 0.160920
H22   H     H_    0.723128 0.641111 0.107390 0.160743
H23   H     H_    0.148050 0.782883 0.113876 0.162646
H24   H     H_    0.147518 0.217113 0.113283 0.162306
H25   H     H_    0.648022 0.282896 0.113846 0.162646
H26   H     H_    0.647517 0.717105 0.113279 0.162309
H27   H     H_    0.874613 0.262954 0.067144 0.162061
H28   H     H_    0.874634 0.736932 0.067527 0.162083
H29   H     H_    0.374607 0.762954 0.067123 0.162062
H30   H     H_    0.374639 0.236930 0.067561 0.162079
H31   H     H_    0.796605 0.189963 0.069149 0.168577
H32   H     H_    0.796593 0.809973 0.069350 0.168568
H33   H     H_    0.296597 0.689958 0.069114 0.168580
H34   H     H_    0.296594 0.309978 0.069342 0.168564
H35   H     H_    0.138896 0.823321 0.819362 0.141042
H36   H     H_    0.139029 0.176803 0.819070 0.141402
H37   H     H_    0.638905 0.323315 0.819355 0.141038
H38   H     H_    0.639013 0.676788 0.819074 0.141396
H39   H     H_    0.431795 0.869953 0.177588 0.090704
H40   H     H_    0.431636 0.130130 0.177476 0.090141
H41   H     H_    0.931790 0.369961 0.177588 0.090706
H42   H     H_    0.931633 0.630119 0.177479 0.090148
H43   H     H_    0.115047 0.862180 0.900994 0.166621
H44   H     H_    0.114817 0.137877 0.900258 0.166949
H45   H     H_    0.615044 0.362176 0.900975 0.166625
H46   H     H_    0.614823 0.637874 0.900295 0.166950
H47   H     H_    0.566420 0.248622 0.819957 0.094002
H48   H     H_    0.566508 0.751474 0.819688 0.095153
H49   H     H_    0.066403 0.748631 0.819963 0.094003
H50   H     H_    0.066504 0.251477 0.819682 0.095144
H51   H     H_    0.794562 0.264163 0.918979 0.166066
H52   H     H_    0.794887 0.735789 0.919338 0.166061
H53   H     H_    0.294548 0.764171 0.918958 0.166068
H54   H     H_    0.294922 0.235788 0.919371 0.166066
H55   H     H_    0.717371 0.190848 0.920913 0.160705
H56   H     H_    0.717581 0.809116 0.921099 0.160976
H57   H     H_    0.217350 0.690856 0.920880 0.160709
H58   H     H_    0.217586 0.309110 0.921091 0.160981
H59   H     H_    0.540361 0.090768 0.600864 0.151487
H60   H     H_    0.595530 0.913369 0.654906 0.147759
H61   H     H_    0.040356 0.590768 0.600898 0.151475
H62   H     H_    0.095478 0.413376 0.654841 0.147789
H63   H     H_    0.655870 0.063965 0.705777 0.172845
H64   H     H_    0.687647 0.963918 0.718233 0.180683
H65   H     H_    0.155857 0.563940 0.705725 0.172887
H66   H     H_    0.187585 0.463918 0.718231 0.180682
H67   H     H_    0.569573 0.091344 0.478890 0.097184
H68   H     H_    0.575318 0.911994 0.493721 0.109705
H69   H     H_    0.069367 0.591341 0.478774 0.097214
H70   H     H_    0.075424 0.411998 0.493754 0.109670
H71   H     H_    0.424852 0.036259 0.362790 0.169576
H72   H     H_    0.425101 0.963802 0.352027 0.169925
H73   H     H_    0.924793 0.536206 0.362685 0.169558
H74   H     H_    0.925148 0.463743 0.352047 0.169911
H75   H     H_    0.511971 0.089206 0.724386 0.096134
H76   H     H_    0.511565 0.911067 0.722689 0.099772
H77   H     H_    0.011923 0.589209 0.724338 0.096135
H78   H     H_    0.011528 0.411069 0.722649 0.099794
H79   H     H_    0.792189 0.911485 0.258332 0.095659
H80   H     H_    0.792420 0.088179 0.257066 0.097191
H81   H     H_    0.292196 0.411486 0.258366 0.095660
H82   H     H_    0.292423 0.588180 0.257092 0.097193
H83   H     H_    0.690969 0.165616 0.177470 0.089388
H84   H     H_    0.690793 0.834322 0.177315 0.088661
H85   H     H_    0.190972 0.665615 0.177470 0.089390
H86   H     H_    0.190800 0.334324 0.177314 0.088658
N1    N     N_R   0.392450 0.103580 0.942190 -0.035943
N2    N     N_R   0.392450 0.896420 0.942190 -0.035867
N3    N     N_R   0.892450 0.603580 0.942190 -0.035944
N4    N     N_R   0.892450 0.396420 0.942190 -0.035868
N5    N     N_R   0.450490 0.896000 0.057360 -0.037386
N6    N     N_R   0.450490 0.104000 0.057360 -0.037445
N7    N     N_R   0.950490 0.396000 0.057360 -0.037385
N8    N     N_R   0.950490 0.604000 0.057360 -0.037445
N9    N     N_R   0.525490 0.028390 0.207550 -0.035602
N10   N     N_R   0.525490 0.971610 0.207550 -0.035885
N11   N     N_R   0.025490 0.528390 0.207550 -0.035603
N12   N     N_R   0.025490 0.471610 0.207550 -0.035879
N13   N     N_R   0.317450 0.971190 0.792000 -0.067045
N14   N     N_R   0.317450 0.028810 0.792000 -0.067201
N15   N     N_R   0.817450 0.471190 0.792000 -0.067044
N16   N     N_R   0.817450 0.528810 0.792000 -0.067201
N17   N     N_R   0.473900 0.028390 0.792280 -0.041107
N18   N     N_R   0.473900 0.971610 0.792280 -0.041509
N19   N     N_R   0.973900 0.528390 0.792280 -0.041105
N20   N     N_R   0.973900 0.471610 0.792280 -0.041506
N21   N     N_R   0.682310 0.971180 0.208170 -0.040091
N22   N     N_R   0.682310 0.028820 0.208170 -0.040027
N23   N     N_R   0.182310 0.471180 0.208170 -0.040089
N24   N     N_R   0.182310 0.528820 0.208170 -0.040024
N25   N     N_R   0.606470 0.103570 0.057210 -0.036096
N26   N     N_R   0.606470 0.896430 0.057210 -0.036051
N27   N     N_R   0.106470 0.603570 0.057210 -0.036098
N28   N     N_R   0.106470 0.396430 0.057210 -0.036051
N29   N     N_R   0.549740 0.896000 0.943240 -0.034777
N30   N     N_R   0.549740 0.104000 0.943240 -0.034868
N31   N     N_R   0.049740 0.396000 0.943240 -0.034777
N32   N     N_R   0.049740 0.604000 0.943240 -0.034868
Ni1   Ni    Ni4+2 0.433780 0.065390 0.868430 0.224523
Ni2   Ni    Ni4+2 0.433780 0.934610 0.868430 0.224895
Ni3   Ni    Ni4+2 0.933780 0.565390 0.868430 0.224522
Ni4   Ni    Ni4+2 0.933780 0.434610 0.868430 0.224893
Ni5   Ni    Ni4+2 0.565800 0.934190 0.131570 0.210607
Ni6   Ni    Ni4+2 0.565800 0.065810 0.131570 0.210630
Ni7   Ni    Ni4+2 0.065800 0.434190 0.131570 0.210602
Ni8   Ni    Ni4+2 0.065800 0.565810 0.131570 0.210634
H87   H     H_    0.757766 0.245261 0.181526 0.150953
H88   H     H_    0.757387 0.754631 0.181287 0.150046
H89   H     H_    0.257790 0.745249 0.181526 0.150957
H90   H     H_    0.257396 0.254630 0.181284 0.150051
C113  C     C_1   0.007955 0.788519 0.890077 0.044771
N33   N     N_1   0.941557 0.801352 0.885015 -0.097579
C114  C     C_1   0.007736 0.211573 0.889361 0.046583
N34   N     N_1   0.941217 0.198758 0.884042 -0.097147
C115  C     C_1   0.507945 0.288515 0.890038 0.044761
N35   N     N_1   0.441536 0.301347 0.884954 -0.097577
C116  C     C_1   0.507732 0.711574 0.889361 0.046586
N36   N     N_1   0.441210 0.698762 0.884038 -0.097136
C117  C     C_1   0.710770 0.065703 0.587284 0.081214
N37   N     N_1   0.790909 0.074844 0.631335 -0.082147
C118  C     C_1   0.715822 0.938325 0.577695 0.071254
N38   N     N_1   0.792751 0.928885 0.607369 -0.082359
C119  C     C_1   0.210628 0.565810 0.587099 0.081105
N39   N     N_1   0.290731 0.575025 0.631058 -0.082136
C120  C     C_1   0.215891 0.438394 0.577808 0.071317
N40   N     N_1   0.292847 0.428987 0.607570 -0.082356
C121  C     C_1   0.373124 0.033095 0.483440 0.013764
N41   N     N_1   0.317125 0.065011 0.468122 -0.094516
C122  C     C_1   0.403363 0.937259 0.493007 0.007210
N42   N     N_1   0.370891 0.894359 0.484845 -0.100052
C123  C     C_1   0.873111 0.533088 0.483389 0.013759
N43   N     N_1   0.817120 0.565004 0.468075 -0.094525
C124  C     C_1   0.903347 0.437253 0.492987 0.007201
N44   N     N_1   0.870886 0.394354 0.484841 -0.100056
H91   H     H_    0.567725 0.088483 0.331248 0.085405
H92   H     H_    0.566368 0.912266 0.332932 0.087180
H93   H     H_    0.067757 0.588485 0.331265 0.085435
H94   H     H_    0.066383 0.412266 0.332945 0.087165
C125  C     C_1   0.239598 0.900627 0.648249 0.011605
N45   N     N_1   0.235720 0.857362 0.613690 -0.097615
C126  C     C_1   0.241811 0.099548 0.649298 0.011530
N46   N     N_1   0.239622 0.142674 0.615334 -0.099501
C127  C     C_1   0.739611 0.400629 0.648268 0.011599
N47   N     N_1   0.735739 0.357366 0.613713 -0.097624
C128  C     C_1   0.741834 0.599543 0.649310 0.011534
N48   N     N_1   0.739664 0.642665 0.615352 -0.099502
H95   H     H_    0.514350 0.835123 0.822910 0.092250
H96   H     H_    0.514188 0.165004 0.823101 0.090655
H97   H     H_    0.014356 0.335126 0.822908 0.092245
H98   H     H_    0.014193 0.665004 0.823101 0.090651
C129  C     C_1   0.900240 0.009591 0.499534 0.035767
N49   N     N_1   0.851135 0.013716 0.526667 -0.071294
C130  C     C_1   0.400284 0.509592 0.499584 0.035754
N50   N     N_1   0.351210 0.513722 0.526762 -0.071284

loop_
_geom_bond_atom_site_label_1
_geom_bond_atom_site_label_2
_ccdc_geom_bond_type
C16   C28   S    
C8    C20   A    
C13   C87   S    
C94   N14   A    
C105  N17   A    
C71   H49   S    
C55   C59   S    
C50   C60   S    
C75   H61   S    
C15   C109  A    
C77   C101  A    
C127  N47   T    
C83   C119  S    
C112  N24   A    
C60   C99   S    
C108  H78   S    
C76   C84   S    
C94   C126  S    
C6    H84   S    
C47   H23   S    
C85   C91   S    
C95   C127  S    
C117  N37   T    
C35   H39   S    
C109  H79   S    
N15   N16   A    
C67   H57   S    
N5    Ni5   S    
C7    H85   S    
C83   H69   S    
C116  N36   T    
C33   C39   S    
C82   C89   S    
C1    H1    S    
C45   H87   S    
C46   C62   S    
C2    N2    A    
C96   C128  S    
C64   C68   S    
C54   H36   S    
N26   Ni5   S    
C24   C26   S    
C83   C90   S    
C76   H66   S    
C77   N9    A    
C23   H7    S    
C118  N38   T    
C65   H31   S    
C50   H28   S    
C48   C64   S    
C27   C29   S    
C22   C39   S    
C10   C17   A    
C44   H18   S    
C125  N45   T    
C3    C99   A    
C29   C33   S    
C119  N39   T    
C53   H35   S    
C96   N16   A    
C62   C70   S    
N32   Ni3   S    
C79   N11   A    
C120  N40   T    
C111  N23   A    
C23   C26   S    
C45   C61   S    
C49   C65   S    
C43   H21   S    
N2    Ni2   S    
N1    Ni1   S    
C73   C87   S    
C7    C19   A    
C56   H46   S    
C12   C19   A    
C17   C61   S    
C107  N19   A    
C8    H86   S    
C32   H12   S    
C69   C115  S    
N22   Ni6   S    
C30   H10   S    
C19   C63   S    
C22   C25   S    
C29   H9    S    
C23   C40   S    
C93   N13   A    
C21   H5    S    
N3    N8    A    
C79   C102  A    
C36   C97   A    
C51   C57   S    
C46   H88   S    
C74   C87   S    
C73   H59   S    
C35   C98   A    
C110  N22   A    
C124  N44   T    
C76   C88   S    
C12   N32   A    
C74   H60   S    
N4    Ni4   S    
C52   C68   S    
C9    N29   A    
C42   H16   S    
C121  N41   T    
C5    H83   S    
C81   C89   S    
N17   Ni1   S    
C14   C108  A    
N29   Ni2   S    
C11   N31   A    
N28   Ni7   S    
N19   Ni3   S    
C91   H72   S    
C78   C101  A    
C10   N30   A    
N27   Ni8   S    
C15   C110  A    
C42   C58   S    
C1    N1    A    
C58   C97   S    
C84   C90   S    
C81   C117  S    
C73   C81   S    
C4    H4    S    
N9    Ni6   S    
C55   H37   S    
C6    N26   A    
C51   H29   S    
C44   H22   S    
C15   C27   S    
C6    C18   A    
N11   N12   A    
C63   C67   S    
C11   C20   A    
C24   H8    S    
N13   Ni2   S    
C62   C66   S    
C85   C87   S    
C50   H52   S    
N9    N10   A    
N12   Ni7   S    
C37   H41   S    
C84   C120  S    
C28   C32   S    
N11   Ni8   S    
N20   Ni4   S    
C26   C130  S    
C13   C105  A    
C59   C100  S    
C92   H74   S    
C68   H58   S    
N21   N22   A    
C47   H89   S    
N14   Ni1   S    
C8    N28   A    
C92   H73   S    
C36   H40   S    
C42   C48   S    
C36   N6    A    
C44   C46   S    
C12   H98   S    
N19   N20   A    
C21   C29   S    
N24   Ni8   S    
C52   H30   S    
C67   H33   S    
C56   C60   S    
C47   C63   S    
N23   Ni7   S    
C23   C31   S    
C72   C114  S    
C20   C64   S    
C37   C100  A    
N17   N18   A    
C24   C32   S    
C74   H64   S    
C130  N50   T    
C109  N21   A    
N21   Ni5   S    
C40   C104  S    
N23   N24   A    
C50   C66   S    
C9    C18   A    
N3    Ni3   S    
N13   N14   A    
C70   C116  S    
C43   H17   S    
C34   H14   S    
C112  H82   S    
C107  H77   S    
C33   H13   S    
C126  N46   T    
C41   C47   S    
C31   C34   S    
C54   C72   S    
N8    Ni8   S    
C51   C67   S    
C85   C121  S    
C5    C17   A    
N7    Ni7   S    
C43   C45   S    
N10   Ni5   S    
C81   H67   S    
C55   C69   S    
C52   C58   S    
C111  H81   S    
C72   H50   S    
C84   H70   S    
C48   H90   S    
C14   C107  A    
C5    N25   A    
C63   C71   S    
C94   C103  A    
C53   H43   S    
C56   C70   S    
C49   H27   S    
N1    N6    A    
C3    N3    A    
C34   C40   S    
C51   H53   S    
N16   Ni3   S    
C89   C91   S    
C38   H42   S    
C1    C97   A    
N15   Ni4   S    
C53   C71   S    
N26   N29   A    
C76   H62   S    
C86   C123  S    
C13   C106  A    
C68   H34   S    
C95   C104  A    
C16   C112  A    
C80   N12   A    
C45   H25   S    
C54   C58   S    
C41   H15   S    
C61   C69   S    
C22   H6    S    
C96   C104  A    
C21   C25   S    
C24   C40   S    
C53   C57   S    
C38   N8    A    
C30   C33   S    
C89   C101  S    
C91   H71   S    
N25   N30   A    
C37   N7    A    
C21   C39   S    
C48   H24   S    
C28   C31   S    
C18   C62   S    
C85   C122  S    
C38   C99   A    
C25   C129  S    
C114  N34   T    
C9    H95   S    
C115  N35   T    
C80   C102  A    
C43   C59   S    
C25   C27   S    
N28   N31   A    
C7    N27   A    
C31   H11   S    
C65   H55   S    
C71   C113  S    
C26   C28   S    
N27   N32   A    
C49   C59   S    
C4    C100  A    
C66   H56   S    
C73   H63   S    
C106  N18   A    
C105  H75   S    
C90   C102  S    
C123  N43   T    
C90   C92   S    
C108  N20   A    
N6    Ni6   S    
C22   C30   S    
C4    N4    A    
C106  H76   S    
C54   H44   S    
C93   C125  S    
C2    H2    S    
C32   C34   S    
C35   N5    A    
C122  N42   T    
N31   Ni4   S    
C42   H20   S    
C44   C60   S    
N2    N5    A    
C95   N15   A    
C57   C98   S    
C86   C88   S    
C110  H80   S    
C69   H47   S    
C70   H48   S    
C80   H94   S    
C75   C83   S    
C64   C72   S    
C61   C65   S    
C82   C118  S    
C75   H65   S    
C78   N10   A    
C49   H51   S    
N25   Ni6   S    
C86   C92   S    
C41   C57   S    
C77   H91   S    
C75   C88   S    
C55   H45   S    
C41   H19   S    
C66   H32   S    
C2    C98   A    
C82   H68   S    
C129  N49   T    
C39   C103  S    
C11   H97   S    
C46   H26   S    
N18   Ni2   S    
C3    H3    S    
N4    N7    A    
C86   C124  S    
C10   H96   S    
C14   C88   S    
C128  N48   T    
C56   H38   S    
C52   H54   S    
N30   Ni1   S    
C74   C82   S    
C79   H93   S    
C113  N33   T    
C16   C111  A    
C78   H92   S    
C93   C103  A    
C27   C30   S    
