data_mof_unit_20786.cif
_audit_creation_date              2012-10-26T19:21:07-0400
_audit_creation_method            fapswitch 2.2
_symmetry_space_group_name_H-M    P1
_symmetry_Int_Tables_number       1
_space_group_crystal_system       triclinic
_cell_length_a                    9.836525
_cell_length_b                    11.042234
_cell_length_c                    13.336736
_cell_angle_alpha                 94.682433
_cell_angle_beta                  81.234742
_cell_angle_gamma                 111.31346
_cell_volume                      1333.22029472

loop_
_atom_site_label
_atom_site_type_symbol
_atom_type_description
_atom_site_fract_x
_atom_site_fract_y
_atom_site_fract_z
_atom_type_partial_charge
C1    C     C_R   0.556552 0.745449 0.507336 0.553834
C2    C     C_R   0.371739 0.485797 0.802737 0.001710
C3    C     C_2   0.588340 0.884782 0.511432 -0.129200
C4    C     C_R   0.421981 0.490646 0.691485 0.534192
C5    C     C_2   0.484298 0.930488 0.498387 -0.160080
C6    C     C_2   0.411555 0.115221 0.488897 -0.126796
C7    C     C_2   0.515459 0.069505 0.502265 -0.148490
C8    C     C_2   0.923173 0.490561 0.489721 0.071721
C9    C     C_2   0.076240 0.509289 0.509090 -0.044798
C10   C     C_R   0.443386 0.254551 0.492817 0.568267
C11   C     C_R   0.578395 0.514238 0.309295 0.558672
C12   C     C_R   0.430903 0.524213 0.977881 0.042920
C13   C     C_R   0.798775 0.678419 0.069983 -0.132263
C14   C     C_R   0.627004 0.543208 0.201577 0.000326
C15   C     C_R   0.224703 0.408309 0.840807 -0.025409
C16   C     C_R   0.179189 0.406294 0.945244 -0.099505
C17   C     C_R   0.278147 0.467650 0.014105 -0.014431
C18   C     C_1   0.862488 0.401805 0.408513 0.268841
C19   C     C_3   0.112206 0.328181 0.773118 -0.373862
C20   C     C_3   0.211630 0.487030 0.121400 -0.405191
C21   C     C_R   0.472542 0.550994 0.873076 0.002555
C22   C     C_R   0.544234 0.556677 0.041068 0.033079
C23   C     C_R   0.687965 0.642170 0.006391 0.049715
C24   C     C_R   0.718806 0.689958 0.908751 -0.141490
C25   C     C_R   0.613408 0.644045 0.842530 -0.125074
C26   C     C_R   0.521012 0.499674 0.135196 -0.131905
C27   C     C_R   0.767507 0.631197 0.168117 -0.132627
Cu1   Cu    Cu3+1 0.362000 0.479240 0.482530 0.919582
Cu2   Cu    Cu3+1 0.638000 0.520760 0.517470 0.947931
H1    H     H_    0.851028 0.666521 0.218595 0.128835
H2    H     H_    0.419191 0.421832 0.159061 0.129256
H3    H     H_    0.063934 0.357968 0.973781 0.124611
H4    H     H_    0.643334 0.685244 0.768131 0.142694
H5    H     H_    0.624614 0.134840 0.516193 0.165470
H6    H     H_    0.009751 0.264177 0.817520 0.110356
H7    H     H_    0.080794 0.392869 0.729238 0.156137
H8    H     H_    0.157111 0.264052 0.720983 0.150593
H9    H     H_    0.172262 0.394643 0.162649 0.134194
H10   H     H_    0.289623 0.566017 0.163539 0.150052
H11   H     H_    0.115796 0.517241 0.119943 0.136912
H12   H     H_    0.375050 0.865127 0.484662 0.155547
H13   H     H_    0.302569 0.049577 0.475030 0.098180
H14   H     H_    0.697401 0.950431 0.525143 0.102426
H15   H     H_    0.123127 0.576520 0.569405 0.136310
H16   H     H_    0.111428 0.385153 0.398272 0.214330
H17   H     H_    0.892942 0.614703 0.600691 0.187761
H18   H     H_    0.826436 0.759452 0.882162 0.103069
H19   H     H_    0.908327 0.745572 0.044646 0.108407
N1    N     N_2   0.845330 0.551960 0.543750 -0.366821
N2    N     N_2   0.154690 0.448120 0.456210 -0.359359
N3    N     N_1   0.815481 0.330397 0.343163 -0.328220
O1    O     O_R   0.426290 0.668220 0.490680 -0.493323
O2    O     O_R   0.659360 0.703290 0.520190 -0.500360
O3    O     O_R   0.326580 0.473880 0.629020 -0.500380
O4    O     O_R   0.559660 0.508940 0.658530 -0.499065
O5    O     O_R   0.340640 0.296710 0.479810 -0.493604
O6    O     O_R   0.573710 0.331780 0.509320 -0.478838
O7    O     O_R   0.440340 0.491060 0.341470 -0.498485
O8    O     O_R   0.673420 0.526120 0.370980 -0.478909

loop_
_geom_bond_atom_site_label_1
_geom_bond_atom_site_label_2
_ccdc_geom_bond_type
C12   C17   A    
C6    C10   S    
C13   H19   S    
C2    C4    S    
C23   C24   A    
C24   C25   A    
C6    C7    D    
Cu1   O7    S    
C14   C27   A    
C16   H3    S    
C11   O7    A    
C10   O5    A    
Cu2   O4    S    
C3    C5    D    
C17   C20   S    
C2    C21   A    
Cu1   O3    S    
Cu1   O5    S    
C26   H2    S    
Cu2   N1    S    
C14   C26   A    
C27   H1    S    
C15   C19   S    
C2    C15   A    
Cu1   O1    S    
H17   N1    S    
C3    H14   S    
C16   C17   A    
Cu2   O2    S    
H16   N2    S    
C11   O8    A    
C8    N1    D    
Cu1   Cu2   S    
C11   C14   S    
Cu2   O6    S    
C18   N3    T    
C19   H7    S    
C4    O4    A    
C22   C26   A    
C20   H11   S    
C1    O1    A    
C5    H12   S    
C15   C16   A    
C12   C22   A    
C10   O6    A    
C20   H9    S    
C7    H5    S    
C13   C23   A    
C5    C7    S    
C6    H13   S    
C19   H6    S    
C20   H10   S    
C1    O2    A    
C22   C23   A    
C13   C27   A    
C9    H15   S    
C21   C25   A    
C19   H8    S    
C4    O3    A    
C24   H18   S    
Cu1   N2    S    
C12   C21   A    
C8    C18   S    
C9    N2    D    
Cu2   O8    S    
C25   H4    S    
C8    C9    S    
C1    C3    S    
