data_mof_unit_21689.cif
_audit_creation_date              2013-03-05T15:45:11-0500
_audit_creation_method            fapswitch 2.2
_symmetry_space_group_name_H-M    P1
_symmetry_Int_Tables_number       1
_space_group_crystal_system       triclinic
_cell_length_a                    10.804955
_cell_length_b                    10.939089
_cell_length_c                    9.968692
_cell_angle_alpha                 110.706263
_cell_angle_beta                  100.14541
_cell_angle_gamma                 92.351761
_cell_volume                      1078.06911951

loop_
_atom_site_label
_atom_site_type_symbol
_atom_site_description
_atom_site_fract_x
_atom_site_fract_y
_atom_site_fract_z
_atom_type_partial_charge
O1    O     O_R   0.511700 0.332330 0.577400 -0.502530
O2    O     O_R   0.474680 0.295500 0.332650 -0.552799
C1    C     C_R   0.494940 0.254106 0.441298 0.882738
O3    O     O_R   0.338160 0.518420 0.622400 -0.563588
O4    O     O_R   0.301140 0.481590 0.377650 -0.578734
C2    C     C_R   0.262623 0.501029 0.498342 0.787490
Cu1   Cu    Cu3+1 0.521920 0.521810 0.644910 1.068947
Cu2   Cu    Cu3+1 0.478080 0.478190 0.355090 1.047369
O5    O     O_R   0.525320 0.704500 0.667350 -0.577464
O6    O     O_R   0.488300 0.667670 0.422600 -0.567914
O7    O     O_R   0.698860 0.518410 0.622350 -0.546326
O8    O     O_R   0.661840 0.481580 0.377600 -0.537151
C3    C     C_R   0.511995 0.746713 0.559141 0.775052
C4    C     C_R   0.737769 0.494559 0.501881 0.813378
C5    C     C_R   0.163849 0.705935 0.713077 -0.230346
H1    H     H_    0.252597 0.736570 0.691790 0.186675
C6    C     C_R   0.127059 0.783484 0.840749 0.253634
C7    C     C_R   0.018309 0.740474 0.877316 0.226927
C8    C     C_R   0.942460 0.625145 0.778734 0.203361
C9    C     C_R   0.964650 0.565863 0.634065 -0.015820
C10   C     C_R   0.086150 0.591935 0.612963 0.007544
C11   C     C_R   0.127774 0.501875 0.493985 -0.077896
C12   C     C_R   0.041622 0.403143 0.380559 -0.086036
C13   C     C_R   0.913015 0.398122 0.384775 -0.077419
C14   C     C_R   0.873179 0.482701 0.509370 -0.086264
H2    H     H_    0.536862 0.860799 0.371470 0.182157
C15   C     C_2   0.493598 0.113837 0.411559 -0.348400
C16   C     C_2   0.566175 0.068965 0.503991 0.353176
C17   C     C_2   0.529259 0.888307 0.590967 0.154506
C18   C     C_2   0.544652 0.930345 0.482640 -0.238861
H3    H     H_    0.424803 0.046690 0.318541 0.176058
N1    N     N_2   0.445130 0.445430 0.137370 -0.277970
C19   C     C_2   0.515386 0.509077 0.082433 0.281035
N2    N     N_2   0.554930 0.554500 0.862630 -0.246941
C20   C     C_2   0.492070 0.485841 0.919595 0.283347
H4    H     H_    0.366119 0.384723 0.070383 0.240444
C21   C     C_1   0.084258 0.306437 0.259877 0.325196
N3    N     N_1   0.118011 0.229537 0.163509 -0.154387
Br1   Br    Br    0.371599 0.337310 0.793358 -0.387502
Br2   Br    Br    0.663063 0.627615 0.206563 -0.432352
C22   C     C_1   0.583035 0.689012 0.942284 0.530839
N4    N     N_1   0.605997 0.801131 0.007152 -0.197063
Br3   Br    Br    0.236996 0.937703 0.970247 -0.382639
Br4   Br    Br    0.978015 0.833420 0.065314 -0.333501
Br5   Br    Br    0.868055 0.517593 0.868057 -0.330543
C23   C     C_1   0.823319 0.299868 0.265327 0.339148
N5    N     N_1   0.751989 0.221593 0.170244 -0.147524
Br6   Br    Br    0.711601 0.174166 0.647573 -0.322308
Br7   Br    Br    0.525536 0.006545 0.786237 -0.318745

loop_
_geom_bond_atom_site_label_1
_geom_bond_atom_site_label_2
_geom_bond_distance
_ccdc_geom_bond_type
C6    C7    1.400635 A    
O4    Cu2   1.964291 S    
C20   Br1   1.929095 S    
C12   C13   1.397036 A    
C8    Br5   1.933600 S    
C5    C6    1.392804 A    
C17   C18   1.346628 D    
C7    Br4   1.926621 S    
C22   N4    1.158285 T    
C8    C9    1.425155 A    
Cu2   O8    1.955793 S    
C13   C23   1.454400 S    
N1    C19   1.316680 D    
C16   C18   1.457449 S    
O2    C1    1.302856 A    
Cu1   Cu2   2.706209 S    
C17   Br7   1.927479 S    
C10   C11   1.406264 A    
C9    C10   1.399295 A    
Cu1   O7    1.964291 S    
C21   N3    1.157873 T    
N2    C22   1.392845 S    
O3    Cu1   1.955793 S    
N1    H4    1.027026 S    
C1    C15   1.455167 S    
C19   C20   1.523815 S    
C12   C21   1.453923 S    
O8    C4    1.317618 A    
H2    C18   1.086140 S    
C4    C14   1.465269 S    
O4    C2    1.291782 A    
N2    C20   1.320417 D    
O7    C4    1.285424 A    
C19   Br2   1.938712 S    
C9    C14   1.429444 A    
C15   H3    1.087482 S    
C5    H1    1.082800 S    
Cu2   N1    2.032987 S    
C5    C10   1.412366 A    
C13   C14   1.411509 A    
Cu2   O6    1.931310 S    
C7    C8    1.408443 A    
C23   N5    1.157651 T    
Cu1   N2    2.033134 S    
C3    C17   1.463740 S    
C6    Br3   1.918013 S    
Cu1   O5    1.928779 S    
O5    C3    1.304051 A    
C11   C12   1.412300 A    
C16   Br6   1.933009 S    
O1    C1    1.298288 A    
O1    Cu1   1.931310 S    
O3    C2    1.302708 A    
O2    Cu2   1.928779 S    
C15   C16   1.342312 D    
O6    C3    1.301023 A    
C2    C11   1.450527 S    
