data_mof_unit_52957.cif
_audit_creation_date              2012-12-10T16:39:30-0500
_audit_creation_method            fapswitch 2.2
_symmetry_space_group_name_H-M    P1
_symmetry_Int_Tables_number       1
_space_group_crystal_system       triclinic
_cell_length_a                    16.802458
_cell_length_b                    16.877187
_cell_length_c                    16.72258
_cell_angle_alpha                 65.768683
_cell_angle_beta                  66.381336
_cell_angle_gamma                 66.353552
_cell_volume                      3799.85098618

loop_
_atom_site_label
_atom_site_type_symbol
_atom_type_description
_atom_site_fract_x
_atom_site_fract_y
_atom_site_fract_z
_atom_type_partial_charge
C1    C     C_R   0.326606 0.948321 0.458634 -0.029936
C2    C     C_R   0.329621 0.459874 0.940586 -0.024420
C3    C     C_R   0.548407 0.413504 0.982815 0.016184
C4    C     C_R   0.029555 0.454287 0.579697 0.008070
C5    C     C_R   0.004962 0.545245 0.404286 0.011682
C6    C     C_2   0.293381 0.872139 0.293601 1.041435
C7    C     C_2   0.746490 0.944687 0.749066 0.954504
C8    C     C_2   0.872463 0.296171 0.300642 1.027232
C9    C     C_2   0.132713 0.706987 0.705405 1.052354
C10   C     C_2   0.251943 0.251899 0.054927 0.947607
C11   C     C_2   0.707318 0.705253 0.126928 1.039943
C12   C     C_2   0.246462 0.103590 0.767956 1.074697
C13   C     C_R   0.067113 0.673659 0.534444 -0.012639
C14   C     C_2   0.753216 0.909389 0.225686 1.075703
C15   C     C_2   0.094428 0.781005 0.238459 1.063648
C16   C     C_2   0.975192 0.196108 0.721386 0.977142
C17   C     C_2   0.777042 0.246685 0.086076 1.048119
C18   C     C_2   0.231124 0.754093 0.893685 1.084724
C19   C     C_2   0.178137 0.003325 0.716703 1.047745
C20   C     C_2   0.826139 0.988424 0.293490 1.043265
C21   C     C_2   0.716517 0.180102 0.993605 1.039686
C22   C     C_2   0.303527 0.829251 0.967196 1.037323
C23   C     C_2   0.009347 0.714112 0.169199 1.044001
C24   C     C_R   0.989909 0.317531 0.441586 -0.034851
C25   C     C_2   0.999090 0.296441 0.818099 1.075713
C26   C     C_R   0.457361 0.980372 0.456009 -0.030044
C27   C     C_R   0.538618 0.034455 0.535886 -0.027425
C28   C     C_R   0.997455 0.456379 0.448971 -0.030114
C29   C     C_R   0.040004 0.542074 0.534118 -0.025273
C30   C     C_R   0.463767 0.461332 0.964324 -0.027613
C31   C     C_R   0.545845 0.542643 0.015976 -0.031006
C32   C     C_R   0.973803 0.178286 0.432792 0.924469
C33   C     C_R   0.673247 0.054593 0.539167 -0.041773
C34   C     C_R   0.041786 0.820861 0.560442 0.907204
C35   C     C_R   0.178755 0.436655 0.966745 0.931913
C36   C     C_R   0.820454 0.561361 0.038927 0.904954
C37   C     C_R   0.438747 0.960123 0.179958 0.903956
C38   C     C_R   0.563170 0.034046 0.820817 0.945231
C39   C     C_R   0.562833 0.820080 0.036798 0.901881
C40   C     C_R   0.435975 0.178695 0.967772 0.939265
C41   C     C_R   0.039757 0.561980 0.820146 0.918847
C42   C     C_R   0.961115 0.438827 0.179511 0.899059
C43   C     C_R   0.821345 0.032700 0.563535 0.928028
C44   C     C_R   0.953786 0.460150 0.324066 -0.028744
C45   C     C_R   0.179731 0.961699 0.438136 0.906725
C46   C     C_R   0.414864 0.956951 0.414254 -0.084979
C47   C     C_R   0.583634 0.050010 0.581195 -0.078982
C48   C     C_R   0.978345 0.411749 0.405852 -0.082812
C49   C     C_R   0.057054 0.585969 0.579213 -0.079899
C50   C     C_R   0.417617 0.416326 0.950213 -0.080637
C51   C     C_R   0.587826 0.585167 0.039259 -0.083269
C52   C     C_R   0.279519 0.937423 0.410380 -0.148237
C53   C     C_R   0.725417 0.042023 0.595827 -0.154107
C54   C     C_R   0.939937 0.411932 0.279289 -0.122166
C55   C     C_R   0.064429 0.541582 0.669171 -0.039220
C56   C     C_R   0.068162 0.590688 0.719039 -0.152837
C57   C     C_R   0.403263 0.274693 0.958534 -0.152821
C58   C     C_R   0.591433 0.720142 0.059428 -0.143099
C59   C     C_R   0.596046 0.043887 0.723941 -0.145852
C60   C     C_R   0.411253 0.934001 0.280715 -0.131075
C61   C     C_R   0.720451 0.588413 0.064051 -0.134152
C62   C     C_R   0.275245 0.403844 0.957006 -0.139705
C63   C     C_R   0.070474 0.721316 0.586672 -0.137741
C64   C     C_R   0.965306 0.274771 0.399170 -0.163672
C65   C     C_R   0.444362 0.079111 0.699265 0.605450
C66   C     C_R   0.459378 0.327159 0.945501 -0.038190
C67   C     C_R   0.555718 0.928777 0.296569 0.601809
C68   C     C_R   0.077456 0.708444 0.438514 0.598495
C69   C     C_R   0.021869 0.271820 0.520670 0.652787
C70   C     C_R   0.705226 0.444136 0.068242 0.594500
C71   C     C_R   0.299602 0.555660 0.920515 0.597925
C72   C     C_R   0.290202 0.947236 0.551271 0.660408
C73   C     C_R   0.708721 0.061040 0.445170 0.635329
C74   C     C_R   0.553381 0.292792 0.936570 0.628955
C75   C     C_R   0.452598 0.710750 0.044706 0.638969
C76   C     C_R   0.946947 0.554156 0.288883 0.641295
C77   C     C_R   0.543891 0.673584 0.046948 -0.033769
C78   C     C_R   0.070824 0.448413 0.705051 0.635214
C79   C     C_R   0.326433 0.919075 0.326892 -0.167158
C80   C     C_R   0.689210 0.017887 0.689422 -0.131075
C81   C     C_R   0.928777 0.326542 0.325801 -0.176762
C82   C     C_R   0.084296 0.675041 0.672801 -0.167901
C83   C     C_R   0.310339 0.310515 0.982651 -0.120049
C84   C     C_R   0.674349 0.672776 0.078994 -0.166426
C85   C     C_R   0.674749 0.024729 0.407431 -0.082870
C86   C     C_R   0.322422 0.987402 0.586890 -0.074173
C87   C     C_R   0.041796 0.408156 0.667295 -0.084743
C88   C     C_R   0.540048 0.060063 0.669133 -0.027218
C89   C     C_R   0.986777 0.592144 0.319359 -0.088230
C90   C     C_R   0.418010 0.678493 0.003842 -0.082841
C91   C     C_R   0.593220 0.326803 0.971034 -0.094655
C92   C     C_R   0.598704 0.956705 0.334015 -0.093077
C93   C     C_R   0.399122 0.056285 0.659208 -0.086876
C94   C     C_R   0.341204 0.601058 0.940960 -0.092862
C95   C     C_R   0.667803 0.401700 0.039595 -0.086909
C96   C     C_R   0.013248 0.319588 0.576474 -0.069401
C97   C     C_R   0.052532 0.669295 0.394454 -0.090255
C98   C     C_R   0.728070 0.994189 0.329674 -0.121208
C99   C     C_R   0.460881 0.941213 0.328788 -0.016115
C100  C     C_R   0.271266 0.013505 0.667992 -0.127573
C101  C     C_R   0.022599 0.323845 0.716664 -0.089968
C102  C     C_R   0.011107 0.673861 0.266289 -0.120745
C103  C     C_R   0.339795 0.731394 0.973309 -0.124752
C104  C     C_R   0.673924 0.274990 0.997426 -0.135526
C105  C     C_R   0.691466 0.956111 0.295673 -0.131432
C106  C     C_R   0.307201 0.055072 0.699216 -0.140891
C107  C     C_R   0.303687 0.693885 0.938207 -0.131898
C108  C     C_R   0.707235 0.309826 0.038094 -0.125948
C109  C     C_R   0.009463 0.277716 0.670412 -0.125741
C110  C     C_R   0.672863 0.538949 0.055994 -0.013651
C111  C     C_R   0.049393 0.709273 0.301775 -0.129401
C112  C     C_R   0.547205 0.985662 0.412828 0.020157
C113  C     C_R   0.448785 0.030066 0.578672 0.022534
C114  C     C_R   0.011971 0.410645 0.535701 0.008540
C115  C     C_R   0.031097 0.586456 0.444630 0.020184
C116  C     C_R   0.422111 0.551212 0.967116 0.020626
C117  C     C_R   0.588459 0.453066 0.011116 0.020320
C118  C     C_R   0.586895 0.014693 0.451954 0.011420
C119  C     C_R   0.408657 0.001313 0.539614 0.008842
C120  C     C_R   0.462716 0.591356 0.994032 0.010128
F1    F     F_    0.395911 0.123148 0.763572 -0.633417
F2    F     F_    0.392501 0.765714 0.096982 -0.629002
F3    F     F_    0.893383 0.610601 0.232880 -0.633661
F4    F     F_    0.118213 0.393384 0.767154 -0.612801
F5    F     F_    0.606516 0.880859 0.235756 -0.650684
F6    F     F_    0.119859 0.774298 0.387315 -0.654784
F7    F     F_    0.081276 0.187697 0.532511 -0.631315
F8    F     F_    0.766211 0.392506 0.116910 -0.647949
F9    F     F_    0.234749 0.604407 0.876291 -0.654679
F10   F     F_    0.235719 0.893199 0.610010 -0.633203
F11   F     F_    0.768817 0.109614 0.388582 -0.628236
F12   F     F_    0.607443 0.234684 0.886151 -0.633956
H1    H     H_    0.299998 0.752698 0.287492 0.413712
H2    H     H_    0.895802 0.126341 0.732408 0.363623
H3    H     H_    0.906323 0.169541 0.077070 0.388983
H4    H     H_    0.098865 0.821787 0.908301 0.379175
H5    H     H_    0.059169 0.010657 0.707536 0.344462
H6    H     H_    0.943774 0.951020 0.322896 0.369621
H7    H     H_    0.697499 0.060012 0.020890 0.365519
H8    H     H_    0.333476 0.944953 0.935524 0.373864
H9    H     H_    0.032732 0.691170 0.051462 0.366610
H10   H     H_    0.931023 0.338510 0.930743 0.368032
H11   H     H_    0.825686 0.911122 0.828922 0.349570
H12   H     H_    0.746622 0.302043 0.310986 0.407598
H13   H     H_    0.253863 0.712163 0.696862 0.417584
H14   H     H_    0.173606 0.172908 0.085867 0.349884
H15   H     H_    0.710130 0.700889 0.248094 0.415805
H16   H     H_    0.180232 0.095875 0.900499 0.389711
H17   H     H_    0.825832 0.920242 0.094091 0.382825
H18   H     H_    0.081922 0.911590 0.162387 0.383938
O1    O     O_R   0.982940 0.138950 0.510160 -0.544754
O2    O     O_R   0.982940 0.510160 0.138950 -0.562592
O3    O     O_R   0.861050 0.017060 0.489840 -0.557095
O4    O     O_R   0.138950 0.982940 0.510160 -0.528880
O5    O     O_R   0.867700 0.025880 0.612340 -0.609868
O6    O     O_R   0.132300 0.974120 0.387660 -0.597064
O7    O     O_R   0.025880 0.612340 0.867700 -0.592005
O8    O     O_R   0.974120 0.387660 0.132300 -0.593658
O9    O     O_R   0.612340 0.867700 0.025880 -0.595117
O10   O     O_R   0.387660 0.132300 0.974120 -0.582168
O11   O     O_R   0.387660 0.974120 0.132300 -0.601815
O12   O     O_R   0.017060 0.861050 0.489840 -0.573754
O13   O     O_R   0.612340 0.025880 0.867700 -0.588211
O14   O     O_R   0.132300 0.387660 0.974120 -0.579899
O15   O     O_R   0.867700 0.612340 0.025880 -0.594584
O16   O     O_R   0.974120 0.132300 0.387660 -0.593504
O17   O     O_R   0.025880 0.867700 0.612340 -0.604513
O18   O     O_2   0.241328 0.915229 0.246132 -0.539648
O19   O     O_R   0.324917 0.777796 0.315126 -0.736515
O20   O     O_2   0.755399 0.865364 0.761385 -0.637894
O21   O     O_R   0.789255 0.966735 0.790484 -0.737231
O22   O     O_2   0.907892 0.247375 0.250902 -0.523646
O23   O     O_R   0.138950 0.510160 0.982940 -0.574134
O24   O     O_R   0.778210 0.326049 0.332800 -0.748195
O25   O     O_2   0.091150 0.752563 0.758340 -0.550531
O26   O     O_R   0.227030 0.686008 0.672315 -0.737060
O27   O     O_2   0.240078 0.240586 0.135471 -0.639022
O28   O     O_R   0.211184 0.210551 0.030651 -0.712260
O29   O     O_2   0.755407 0.756290 0.083782 -0.545735
O30   O     O_R   0.683583 0.675487 0.222360 -0.732323
O31   O     O_2   0.224701 0.186372 0.744104 -0.525843
O32   O     O_R   0.216405 0.055341 0.859457 -0.735110
O33   O     O_2   0.776677 0.826624 0.247625 -0.558376
O34   O     O_R   0.861050 0.489840 0.017060 -0.580428
O35   O     O_R   0.785730 0.959685 0.135746 -0.740701
O36   O     O_2   0.177096 0.761849 0.214372 -0.552250
O37   O     O_R   0.043077 0.869263 0.205047 -0.740046
O38   O     O_2   0.998050 0.140666 0.788915 -0.542786
O39   O     O_R   0.914803 0.183578 0.692434 -0.764543
O40   O     O_2   0.756518 0.224935 0.169502 -0.533931
O41   O     O_R   0.864900 0.210494 0.036626 -0.739638
O42   O     O_2   0.249625 0.779831 0.810338 -0.575087
O43   O     O_R   0.142552 0.782277 0.946618 -0.736928
O44   O     O_2   0.155135 0.972131 0.799859 -0.539384
O45   O     O_R   0.510160 0.982940 0.138950 -0.571240
O46   O     O_R   0.117351 0.027537 0.667489 -0.694784
O47   O     O_2   0.859309 0.021892 0.212204 -0.537401
O48   O     O_R   0.880004 0.945067 0.353438 -0.766060
O49   O     O_2   0.795888 0.156327 0.950741 -0.524188
O50   O     O_R   0.664384 0.119165 0.036479 -0.751142
O51   O     O_2   0.222678 0.862554 0.998400 -0.521316
O52   O     O_R   0.363346 0.882362 0.927466 -0.773449
O53   O     O_2   0.975306 0.795217 0.138949 -0.542987
O54   O     O_R   0.045607 0.658236 0.112942 -0.752830
O55   O     O_2   0.039352 0.223062 0.860746 -0.526366
O56   O     O_R   0.489840 0.017060 0.861050 -0.578998
O57   O     O_R   0.934459 0.359076 0.863725 -0.795602
O58   O     O_R   0.489840 0.861050 0.017060 -0.559081
O59   O     O_R   0.510160 0.138950 0.982940 -0.563921
O60   O     O_R   0.017060 0.489840 0.861050 -0.566493
Zn1   Zn    Zn3+2 0.004880 0.004880 0.583590 1.139484
Zn2   Zn    Zn3+2 0.995120 0.995120 0.416410 1.146925
Zn3   Zn    Zn3+2 0.004880 0.583590 0.004880 1.138903
Zn4   Zn    Zn3+2 0.995120 0.416410 0.995120 1.142324
Zn5   Zn    Zn3+2 0.583590 0.004880 0.004880 1.140230
Zn6   Zn    Zn3+2 0.416410 0.995120 0.995120 1.143082

loop_
_geom_bond_atom_site_label_1
_geom_bond_atom_site_label_2
_ccdc_geom_bond_type
C78   C87   A    
C12   C106  S    
C62   C83   A    
C73   F11   S    
C60   C79   A    
H17   O35   S    
C32   O16   A    
C89   C102  A    
O6    Zn2   S    
C75   F2    S    
H9    O54   S    
C91   C104  A    
C46   C99   A    
C60   C99   A    
C2    C50   A    
C14   O33   D    
C26   C112  A    
C71   C94   A    
C30   C116  A    
C95   C117  A    
C18   O42   D    
O59   Zn5   S    
C98   C105  A    
O1    Zn1   S    
C33   C73   A    
C37   O45   A    
H2    O39   S    
C4    C114  A    
C11   C84   S    
C74   F12   S    
C67   F5    S    
C97   C111  A    
C8    O24   S    
C1    C46   A    
C23   C102  S    
C70   F8    S    
O10   Zn6   S    
C10   C83   S    
H14   O28   S    
C9    O26   S    
C3    C91   A    
C44   C76   A    
C101  C109  A    
H1    O19   S    
C59   C88   A    
C31   C117  A    
C36   O15   A    
C85   C98   A    
C70   C110  A    
C58   C77   A    
O16   Zn2   S    
C113  C119  A    
C21   C104  S    
O13   Zn5   S    
H15   O30   S    
C43   C53   S    
C14   C105  S    
C12   O32   S    
C31   C120  A    
C27   C47   A    
C24   C69   A    
C57   C83   A    
C86   C119  A    
C36   O34   A    
C65   F1    S    
C97   C115  A    
C52   C79   A    
C86   C100  A    
C57   C66   A    
O45   Zn5   S    
C4    C29   A    
C75   C90   A    
H16   O32   S    
C67   C99   A    
C9    C82   S    
C69   C96   A    
C65   C93   A    
C29   C115  A    
H5    O46   S    
C19   O46   S    
O58   Zn6   S    
C87   C101  A    
C5    C115  A    
C18   O43   S    
C76   F3    S    
C96   C114  A    
C102  C111  A    
C42   O8    A    
C21   O49   D    
C43   O5    A    
C61   C110  A    
C16   C109  S    
C33   C53   A    
C20   O47   D    
C15   O36   D    
C6    O18   D    
C94   C107  A    
C34   C63   S    
C1    C72   A    
O9    Zn5   S    
C22   O52   S    
C63   C82   A    
C8    C81   S    
C10   O28   S    
C15   C111  S    
C53   C80   A    
C26   C119  A    
C32   C64   S    
C16   O38   D    
C17   C108  S    
H18   O37   S    
C4    C87   A    
C14   O35   S    
C94   C116  A    
H7    O50   S    
C92   C112  A    
C29   C49   A    
C45   C52   S    
O14   Zn4   S    
O60   Zn4   S    
C39   C58   S    
C15   O37   S    
C40   O59   A    
C17   O41   S    
C22   C103  S    
C116  C120  A    
C23   O53   D    
C35   O23   A    
C74   C91   A    
C3    C30   A    
O23   Zn3   S    
C51   C77   A    
C41   C56   S    
O4    Zn1   S    
H8    O52   S    
C64   C81   A    
C71   F9    S    
C5    C28   A    
C75   C77   A    
C24   C48   A    
O34   Zn4   S    
C12   O31   D    
C13   C63   A    
H13   O26   S    
C69   F7    S    
C73   C85   A    
C39   O58   A    
C55   C56   A    
C68   C97   A    
C45   O6    A    
C93   C113  A    
H10   O57   S    
C18   C107  S    
C56   C82   A    
C58   C84   A    
C50   C66   A    
C20   O48   S    
C28   C114  A    
C41   O7    A    
C41   O60   A    
C27   C113  A    
O15   Zn3   S    
C38   O13   A    
O11   Zn6   S    
C51   C110  A    
C93   C106  A    
C33   C47   A    
C13   C49   A    
C11   O29   D    
C21   O50   S    
C2    C71   A    
C68   F6    S    
C104  C108  A    
C78   F4    S    
C65   C88   A    
C37   O11   A    
O2    Zn3   S    
C27   C118  A    
O56   Zn6   S    
C55   C78   A    
C28   C48   A    
C40   C57   S    
C38   O56   A    
C22   O51   D    
C39   O9    A    
C10   O27   D    
C100  C106  A    
C40   O10   A    
C31   C51   A    
C34   O12   A    
C61   C84   A    
C59   C80   A    
O3    Zn2   S    
C72   C86   A    
C19   C100  S    
H6    O48   S    
C72   F10   S    
C36   C61   S    
C45   O4    A    
C17   O40   D    
O8    Zn4   S    
C96   C109  A    
C76   C89   A    
O7    Zn3   S    
C35   O14   A    
C23   O54   S    
C47   C88   A    
O5    Zn1   S    
C70   C95   A    
O17   Zn1   S    
H4    O43   S    
C25   O57   S    
C44   C48   A    
C49   C55   A    
C42   C54   S    
C112  C118  A    
C25   C101  S    
C6    C79   S    
H3    O41   S    
C32   O1    A    
O12   Zn2   S    
C67   C92   A    
C9    O25   D    
C35   C62   S    
C30   C50   A    
C85   C118  A    
C1    C52   A    
C90   C103  A    
C37   C60   S    
C95   C108  A    
C26   C46   A    
H11   O21   S    
C38   C59   S    
C44   C54   A    
C92   C105  A    
C20   C98   S    
C25   O55   D    
C19   O44   D    
C24   C64   A    
C7    O20   D    
H12   O24   S    
C34   O17   A    
C7    C80   S    
C103  C107  A    
C11   O30   S    
C3    C117  A    
C7    O21   S    
C43   O3    A    
C2    C62   A    
C16   O39   S    
C6    O19   S    
C54   C81   A    
C5    C89   A    
C8    O22   D    
C90   C120  A    
C42   O2    A    
C13   C68   A    
C66   C74   A    
