data_mof_unit_7760.cif
_audit_creation_date              2013-03-05T16:34:12-0500
_audit_creation_method            fapswitch 2.2
_symmetry_space_group_name_H-M    P1
_symmetry_Int_Tables_number       1
_space_group_crystal_system       triclinic
_cell_length_a                    10.791052
_cell_length_b                    10.818983
_cell_length_c                    9.554398
_cell_angle_alpha                 90.137322
_cell_angle_beta                  90.094966
_cell_angle_gamma                 89.658028
_cell_volume                      1115.43426859

loop_
_atom_site_label
_atom_site_type_symbol
_atom_site_description
_atom_site_fract_x
_atom_site_fract_y
_atom_site_fract_z
_atom_type_partial_charge
O1    O     O_R   0.500000 0.319640 0.618810 -0.571013
O2    O     O_R   0.500010 0.319680 0.381230 -0.588445
C1    C     C_R   0.504956 0.262307 0.499094 0.807338
O3    O     O_R   0.319640 0.499990 0.618790 -0.591624
O4    O     O_R   0.319650 0.500030 0.381210 -0.580464
C2    C     C_R   0.262522 0.503684 0.499993 0.790598
Cu1   Cu    Cu3+1 0.499990 0.499980 0.640670 0.972202
Cu2   Cu    Cu3+1 0.500010 0.500020 0.359330 0.946630
O5    O     O_R   0.499990 0.680320 0.618770 -0.554128
O6    O     O_R   0.500000 0.680360 0.381190 -0.566132
O7    O     O_R   0.680350 0.499970 0.618790 -0.577994
O8    O     O_R   0.680360 0.500010 0.381210 -0.595935
C3    C     C_R   0.503105 0.737363 0.500148 0.812791
C4    C     C_R   0.737592 0.496470 0.500306 0.781168
H1    H     H_    0.246879 0.941476 0.085972 0.137159
C5    C     C_R   0.236337 0.865983 0.293774 -0.147869
H2    H     H_    0.289244 0.939921 0.340799 0.137092
C6    C     C_R   0.190360 0.770709 0.377150 -0.127861
H3    H     H_    0.207622 0.772411 0.488815 0.096277
C7    C     C_R   0.119206 0.675882 0.317121 0.125550
C8    C     C_R   0.095494 0.677514 0.172452 -0.184921
H4    H     H_    0.040019 0.605815 0.124403 0.115161
C9    C     C_R   0.142250 0.772614 0.089387 -0.081327
H5    H     H_    0.123429 0.773668 0.978073 0.138322
C10   C     C_R   0.212067 0.867099 0.150141 -0.038886
C11   C     C_R   0.932143 0.573849 0.407807 -0.245254
H6    H     H_    0.878595 0.634019 0.339997 0.142532
C12   C     C_R   0.871607 0.495403 0.500998 -0.075140
C13   C     C_R   0.939719 0.423212 0.597117 -0.001876
C14   C     C_R   0.068147 0.430124 0.596145 -0.244206
H7    H     H_    0.121474 0.372322 0.667106 0.142637
C15   C     C_R   0.128671 0.506688 0.500921 -0.076112
C16   C     C_R   0.060711 0.581476 0.407279 0.005220
C17   C     C_R   0.890610 0.351928 0.839329 -0.147833
H8    H     H_    0.936008 0.432944 0.881472 0.112592
C18   C     C_R   0.841905 0.264244 0.931024 -0.173514
H9    H     H_    0.848145 0.278533 0.043014 0.126635
C19   C     C_R   0.787513 0.156911 0.878127 -0.105067
H10   H     H_    0.752368 0.087691 0.948949 0.162325
C20   C     C_R   0.780503 0.137837 0.733646 -0.101120
H11   H     H_    0.741899 0.052982 0.693171 0.150426
C21   C     C_R   0.825452 0.227085 0.641466 -0.159580
H12   H     H_    0.819957 0.210939 0.529662 0.102635
C22   C     C_R   0.881370 0.334500 0.693900 0.132027
C23   C     C_R   0.497537 0.063736 0.619932 0.044897
C24   C     C_R   0.519883 0.128841 0.496887 -0.138502
C25   C     C_R   0.562144 0.061254 0.377177 0.112292
C26   C     C_R   0.558556 0.931567 0.380711 -0.229428
H13   H     H_    0.583553 0.879417 0.287887 0.183783
C27   C     C_R   0.517763 0.869721 0.500692 -0.197237
C28   C     C_R   0.498938 0.937257 0.622386 0.083846
C29   C     C_3   0.399249 0.931793 0.730155 0.196295
C30   C     C_3   0.396774 0.072932 0.726892 -0.532797
H14   H     H_    0.312566 0.887342 0.692502 0.075854
H15   H     H_    0.309326 0.111445 0.682694 0.159799
H16   H     H_    0.428762 0.118068 0.824950 0.223859
C31   C     C_R   0.607625 0.516117 0.073586 0.245931
N1    N     N_R   0.500790 0.500930 0.147930 -0.177972
C32   C     C_R   0.396001 0.472067 0.073980 -0.049888
H17   H     H_    0.311153 0.450665 0.128340 0.137543
C33   C     C_R   0.396050 0.471839 0.925517 -0.027234
H18   H     H_    0.311208 0.450248 0.870817 0.130102
N2    N     N_R   0.500790 0.500890 0.852020 -0.171930
C34   C     C_R   0.607631 0.515676 0.926325 0.271553
C35   C     C_3   0.691422 0.624257 0.919518 -0.446991
C36   C     C_3   0.690988 0.625623 0.078362 -0.480091
H19   H     H_    0.783272 0.600370 0.874460 0.176501
H20   H     H_    0.646287 0.706106 0.871446 0.271195
H21   H     H_    0.783052 0.602337 0.123339 0.174135
H22   H     H_    0.645262 0.708856 0.123651 0.236896
C37   C     C_3   0.608213 0.120147 0.243400 -0.366243
C38   C     C_3   0.502558 0.138854 0.138597 -0.748141
H23   H     H_    0.429087 0.200297 0.180848 0.246679
H24   H     H_    0.539357 0.180760 0.041338 0.231831
H25   H     H_    0.459389 0.048821 0.113080 0.274299
H26   H     H_    0.657614 0.207951 0.264064 0.201711
H27   H     H_    0.679021 0.058985 0.194200 0.188457
N3    N     N_R   0.446193 0.880876 0.861793 0.126337
O9    O     O_R   0.549809 0.920118 0.915483 -0.437317
O10   O     O_R   0.393635 0.784040 0.915179 -0.391041

loop_
_geom_bond_atom_site_label_1
_geom_bond_atom_site_label_2
_geom_bond_distance
_ccdc_geom_bond_type
C2    C15   1.444600 S    
C20   H11   1.080841 S    
C31   C36   1.492407 S    
Cu1   Cu2   2.688035 S    
C23   C24   1.394026 A    
Cu1   O7    1.957813 S    
C11   H6    1.083379 S    
C18   H9    1.082782 S    
C19   C20   1.397268 A    
C6    H3    1.082859 S    
C38   H25   1.108674 S    
O4    C2    1.292831 A    
O7    C4    1.290871 A    
N3    O10   1.300020 A    
H1    C10   1.082247 S    
C36   H21   1.109600 S    
C23   C28   1.368632 A    
C17   H8    1.083129 S    
C33   N2    1.370143 A    
O5    C3    1.292375 A    
Cu2   N1    2.019880 S    
C5    H2    1.081942 S    
C35   H19   1.110111 S    
C9    H5    1.082506 S    
C6    C7    1.405753 A    
C20   C21   1.397992 A    
C23   C30   1.496144 S    
C32   H17   1.079992 S    
C8    H4    1.083398 S    
C21   C22   1.403626 A    
O3    Cu1   1.957016 S    
C29   N3    1.462817 S    
C29   H14   1.113153 S    
C30   H15   1.112321 S    
C19   H10   1.081295 S    
C32   C33   1.418473 A    
C28   C29   1.491862 S    
C17   C22   1.405233 A    
O3    C2    1.291285 A    
N3    O9    1.302428 A    
N1    C32   1.369634 A    
C3    C27   1.441624 S    
O1    C1    1.300894 A    
C13   C14   1.388384 A    
C11   C16   1.390348 A    
C25   C26   1.404328 A    
C14   H7    1.085508 S    
Cu2   O8    1.957016 S    
C35   H20   1.108328 S    
C25   C37   1.515457 S    
C27   C28   1.386357 A    
C5    C6    1.398057 A    
Cu1   N2    2.019328 S    
C7    C16   1.482357 S    
C38   H24   1.110022 S    
C26   H13   1.083613 S    
O8    C4    1.294327 A    
C8    C9    1.398025 A    
C13   C22   1.478549 S    
C21   H12   1.083582 S    
C37   H26   1.109213 S    
C37   H27   1.111899 S    
C29   C30   1.527437 S    
C31   C34   1.406988 A    
C30   H16   1.110905 S    
C5    C10   1.396742 A    
Cu1   O5    1.962781 S    
C24   C25   1.429887 A    
C12   C13   1.409944 A    
O1    Cu1   1.961744 S    
O2    Cu2   1.962783 S    
C38   H23   1.107658 S    
O6    C3    1.292292 A    
O4    Cu2   1.957813 S    
C1    C24   1.452071 S    
C11   C12   1.397132 A    
C15   C16   1.409673 A    
C18   C19   1.397407 A    
O2    C1    1.288043 A    
C37   C38   1.529042 S    
C34   C35   1.488295 S    
C14   C15   1.397331 A    
C31   N1    1.366073 A    
C36   H22   1.111372 S    
C26   C27   1.401598 A    
C17   C18   1.398277 A    
C9    C10   1.397998 A    
C33   H18   1.079947 S    
N2    C34   1.363011 A    
C7    C8    1.405431 A    
Cu2   O6    1.961744 S    
C35   C36   1.517712 S    
C4    C12   1.446148 S    
