data_mof_unit_35167.cif
_audit_creation_date              2012-12-10T20:12:36-0500
_audit_creation_method            fapswitch 2.2
_symmetry_space_group_name_H-M    P1
_symmetry_Int_Tables_number       1
_space_group_crystal_system       triclinic
_cell_length_a                    15.931475
_cell_length_b                    15.930053
_cell_length_c                    60.012655
_cell_angle_alpha                 90.056551
_cell_angle_beta                  89.915698
_cell_angle_gamma                 90.402212
_cell_volume                      15230.1671455

loop_
_atom_site_label
_atom_site_type_symbol
_atom_type_description
_atom_site_fract_x
_atom_site_fract_y
_atom_site_fract_z
_atom_type_partial_charge
C1    C     C_R   0.500831 0.000198 0.810342 1.064727
C2    C     C_R   0.558511 0.857976 0.452944 0.364857
C3    C     C_1   0.223390 0.723372 0.749991 -0.101037
C4    C     C_1   0.276530 0.223427 0.250007 -0.100226
C5    C     C_1   0.723471 0.776574 0.749993 -0.100987
C6    C     C_1   0.223397 0.723374 0.250003 -0.106102
C7    C     C_1   0.776621 0.276607 0.750007 -0.095395
C8    C     C_R   0.487882 0.073855 0.582859 0.672092
C9    C     C_R   0.529990 0.932170 0.417026 0.698308
C10   C     C_R   0.932128 0.529986 0.582979 0.698201
C11   C     C_R   0.073821 0.487902 0.417136 0.672093
C12   C     C_R   0.512337 0.926379 0.582810 0.672130
C13   C     C_R   0.857894 0.558431 0.547070 0.364953
C14   C     C_R   0.467740 0.067914 0.417109 0.698656
C15   C     C_R   0.067888 0.467792 0.582885 0.699141
C16   C     C_R   0.926351 0.512322 0.417196 0.672116
C17   C     C_R   0.987734 0.559597 0.082428 0.669581
C18   C     C_R   0.999909 0.408007 0.916848 0.693263
C19   C     C_R   0.447961 0.046000 0.083000 0.698663
C20   C     C_R   0.588808 0.995757 0.917005 0.677781
C21   C     C_R   0.008094 0.411573 0.083135 0.672440
C22   C     C_R   0.954908 0.550454 0.917207 0.700079
C23   C     C_R   0.577918 0.972619 0.082831 0.700270
C24   C     C_R   0.153585 0.486600 0.452949 0.325053
C25   C     C_R   0.446158 0.039759 0.916909 0.673810
C26   C     C_R   0.433366 0.961426 0.629753 0.264212
C27   C     C_R   0.557353 0.051335 0.370222 0.328170
C28   C     C_R   0.051289 0.557421 0.629762 0.328328
C29   C     C_R   0.961438 0.433318 0.370262 0.264160
C30   C     C_R   0.566964 0.038749 0.629732 0.264924
C31   C     C_R   0.441152 0.949011 0.370157 0.328064
C32   C     C_R   0.949022 0.441168 0.629858 0.328015
C33   C     C_R   0.038722 0.566947 0.370254 0.264882
C34   C     C_R   0.932362 0.452935 0.130152 0.264124
C35   C     C_R   0.513033 0.846485 0.546960 0.325112
C36   C     C_R   0.052845 0.530080 0.871771 0.331935
C37   C     C_R   0.563725 0.057909 0.130605 0.325677
C38   C     C_R   0.467395 0.945295 0.871407 0.262689
C39   C     C_R   0.067468 0.527351 0.129274 0.261415
C40   C     C_R   0.926918 0.441307 0.868602 0.325322
C41   C     C_R   0.454260 0.948488 0.129011 0.328692
C42   C     C_R   0.559538 0.069066 0.868807 0.277039
C43   C     C_R   0.440709 0.950426 0.653063 0.263148
C44   C     C_R   0.549504 0.059368 0.346793 0.249864
C45   C     C_R   0.059325 0.549580 0.653191 0.249835
C46   C     C_R   0.438712 0.141691 0.453126 0.366000
C47   C     C_R   0.950453 0.440647 0.346951 0.263096
C48   C     C_R   0.559633 0.049623 0.653061 0.262886
C49   C     C_R   0.449627 0.940802 0.346740 0.250138
C50   C     C_R   0.940806 0.449650 0.653274 0.250253
C51   C     C_R   0.049616 0.559602 0.346926 0.262867
C52   C     C_R   0.939828 0.445264 0.153557 0.262085
C53   C     C_R   0.050798 0.543884 0.848405 0.250430
C54   C     C_R   0.567973 0.047514 0.154048 0.249704
C55   C     C_R   0.453998 0.948972 0.848073 0.263736
C56   C     C_R   0.060550 0.542093 0.152472 0.264397
C57   C     C_R   0.141610 0.438682 0.546860 0.366179
C58   C     C_R   0.940398 0.435894 0.845330 0.250759
C59   C     C_R   0.443959 0.954721 0.152454 0.249420
C60   C     C_R   0.564710 0.056905 0.845472 0.259106
C61   C     C_R   0.500164 0.000110 0.617982 -0.059996
C62   C     C_R   0.499107 0.000195 0.381923 -0.064098
C63   C     C_R   0.000176 0.499146 0.618077 -0.064181
C64   C     C_R   0.000094 0.500140 0.382018 -0.059970
C65   C     C_R   0.999673 0.488662 0.117944 -0.059404
C66   C     C_R   0.986879 0.483693 0.881922 -0.062640
C67   C     C_R   0.510257 0.004437 0.118071 -0.063230
C68   C     C_R   0.846453 0.513043 0.453054 0.325099
C69   C     C_R   0.515050 0.009615 0.881843 -0.060436
C70   C     C_R   0.499767 0.000060 0.547450 -0.093112
C71   C     C_R   0.498835 0.999933 0.452505 -0.111854
C72   C     C_R   0.999871 0.498825 0.547495 -0.111936
C73   C     C_R   0.000016 0.499797 0.452549 -0.093120
C74   C     C_R   0.993796 0.482457 0.047381 -0.091935
C75   C     C_R   0.974907 0.477216 0.952458 -0.111455
C76   C     C_R   0.515128 0.013800 0.047463 -0.111264
C77   C     C_R   0.517786 0.020361 0.952382 -0.097138
C78   C     C_R   0.491264 0.077131 0.559298 -0.134224
C79   C     C_R   0.986740 0.636484 0.046241 0.327882
C80   C     C_R   0.529187 0.928639 0.440632 -0.154670
C81   C     C_R   0.928577 0.529155 0.559375 -0.154662
C82   C     C_R   0.077087 0.491310 0.440695 -0.134178
C83   C     C_R   0.508532 0.923031 0.559255 -0.133592
C84   C     C_R   0.468313 0.071221 0.440721 -0.154722
C85   C     C_R   0.071164 0.468315 0.559272 -0.154535
C86   C     C_R   0.922996 0.508542 0.440751 -0.133607
C87   C     C_R   0.989483 0.560775 0.058856 -0.132565
C88   C     C_R   0.995087 0.402980 0.940413 -0.159324
C89   C     C_R   0.445921 0.048482 0.059389 -0.157928
C90   C     C_R   0.012029 0.328050 0.952519 0.336740
C91   C     C_R   0.592934 0.001574 0.940539 -0.134988
C92   C     C_R   0.002147 0.406268 0.059594 -0.139102
C93   C     C_R   0.951099 0.551267 0.940800 -0.153023
C94   C     C_R   0.583028 0.976394 0.059235 -0.155951
C95   C     C_R   0.442919 0.039810 0.940518 -0.130282
C96   C     C_R   0.378912 0.085462 0.047142 0.376570
C97   C     C_R   0.500442 0.000032 0.189666 1.082708
C98   C     C_R   0.668424 0.988993 0.952779 0.316118
C99   C     C_R   0.003412 0.328596 0.047729 0.329930
C100  C     C_R   0.924498 0.622433 0.953319 0.371535
C101  C     C_R   0.651832 0.943155 0.046827 0.365348
C102  C     C_R   0.368331 0.057349 0.952808 0.345829
C103  C     C_R   0.500159 0.000003 0.664934 -0.376272
C104  C     C_R   0.499734 0.000031 0.334987 -0.379913
C105  C     C_R   0.000013 0.499783 0.665012 -0.379952
C106  C     C_R   0.000016 0.500112 0.335066 -0.376201
C107  C     C_R   0.999999 0.495851 0.164900 -0.375557
C108  C     C_R   0.999715 0.499072 0.810369 1.066119
C109  C     C_R   0.997774 0.492611 0.835044 -0.380055
C110  C     C_R   0.504170 0.000511 0.165011 -0.378387
C111  C     C_R   0.506661 0.001539 0.834979 -0.375533
C112  C     C_R   0.963244 0.552288 0.988142 0.019862
C113  C     C_R   0.996508 0.403669 0.011953 0.017424
C114  C     C_R   0.444823 0.042761 0.988085 0.023412
C115  C     C_R   0.586772 0.987257 0.011693 0.017754
C116  C     C_R   0.997409 0.403318 0.988094 0.020230
C117  C     C_R   0.976442 0.555321 0.011579 0.022315
C118  C     C_R   0.590232 0.996355 0.988036 0.021033
C119  C     C_R   0.000031 0.499453 0.189624 1.048300
C120  C     C_R   0.447040 0.048273 0.011809 0.017838
C121  C     C_R   0.476122 0.072649 0.488223 0.018696
C122  C     C_R   0.513825 0.925027 0.511794 0.020811
C123  C     C_R   0.924974 0.513829 0.488213 0.020798
C124  C     C_R   0.072586 0.476145 0.511770 0.018722
C125  C     C_R   0.522095 0.927248 0.488148 0.018926
C126  C     C_R   0.484907 0.074963 0.511850 0.020422
C127  C     C_R   0.074905 0.484952 0.488143 0.020456
C128  C     C_R   0.927185 0.522081 0.511859 0.018945
C129  C     C_R   0.978307 0.477457 0.976246 0.107138
C130  C     C_R   0.000009 0.500038 0.310360 1.051068
C131  C     C_R   0.989207 0.480441 0.023625 0.101056
C132  C     C_R   0.517637 0.019945 0.976173 0.101747
C133  C     C_R   0.516317 0.016394 0.023657 0.107139
C134  C     C_R   0.499006 0.999938 0.476284 0.108755
C135  C     C_R   0.499509 0.000019 0.523700 0.102652
C136  C     C_R   0.999967 0.499537 0.476300 0.102646
C137  C     C_R   0.999874 0.499003 0.523715 0.108769
C138  C     C_R   0.932100 0.621655 0.976453 -0.260522
C139  C     C_R   0.000546 0.329158 0.024463 -0.232582
C140  C     C_R   0.370837 0.057445 0.976036 -0.260015
C141  C     C_R   0.000004 0.499951 0.689671 1.077298
C142  C     C_R   0.651420 0.948278 0.023607 -0.247427
C143  C     C_R   0.016248 0.330727 0.975742 -0.244511
C144  C     C_R   0.979939 0.632014 0.023124 -0.245898
C145  C     C_R   0.665196 0.985328 0.976015 -0.240355
C146  C     C_R   0.382061 0.086056 0.023928 -0.249273
C147  C     C_R   0.443258 0.140649 0.476341 -0.251829
C148  C     C_R   0.516773 0.849302 0.523737 -0.243890
C149  C     C_R   0.849260 0.516774 0.476277 -0.243831
C150  C     C_R   0.140577 0.443264 0.523645 -0.251910
C151  C     C_R   0.554534 0.859131 0.476167 -0.251839
C152  C     C_R   0.499934 0.000005 0.310328 1.077378
C153  C     C_R   0.482205 0.150735 0.523820 -0.242036
C154  C     C_R   0.150677 0.482286 0.476166 -0.242126
C155  C     C_R   0.859056 0.554478 0.523846 -0.251867
C156  C     C_R   0.660389 0.839654 0.749997 0.867933
C157  C     C_R   0.339615 0.160350 0.250005 0.868851
C158  C     C_R   0.160265 0.660256 0.749995 0.838294
C159  C     C_R   0.839743 0.339736 0.250002 0.836893
C160  C     C_R   0.339656 0.160383 0.750005 0.864060
C161  C     C_R   0.660346 0.839622 0.249993 0.871009
C162  C     C_R   0.839713 0.339720 0.750001 0.836875
C163  C     C_R   0.500056 0.000006 0.689641 1.051198
C164  C     C_R   0.160288 0.660278 0.250000 0.839105
C165  C     C_R   0.660261 0.160260 0.249997 0.837101
C166  C     C_R   0.339747 0.839732 0.750000 0.838139
C167  C     C_R   0.160385 0.339649 0.249995 0.865393
C168  C     C_R   0.839610 0.660346 0.750003 0.866178
C169  C     C_R   0.339717 0.839716 0.250002 0.839373
C170  C     C_R   0.660291 0.160275 0.750002 0.837201
C171  C     C_R   0.839655 0.660382 0.250006 0.863151
C172  C     C_R   0.160343 0.339618 0.749994 0.869896
C173  C     C_1   0.723402 0.223370 0.750006 -0.099318
C174  C     C_R   0.486514 0.153636 0.547036 0.325063
C175  C     C_1   0.276619 0.776609 0.250006 -0.097223
C176  C     C_1   0.776528 0.723426 0.750006 -0.099924
C177  C     C_1   0.223470 0.276571 0.249992 -0.100449
C178  C     C_1   0.276637 0.776602 0.749995 -0.104745
C179  C     C_1   0.723382 0.223380 0.249995 -0.092885
C180  C     C_1   0.223423 0.276529 0.749992 -0.100835
C181  C     C_1   0.776575 0.723474 0.250007 -0.099721
C182  C     C_1   0.723426 0.776533 0.249991 -0.100584
C183  C     C_1   0.276574 0.223472 0.750008 -0.099945
C184  C     C_1   0.776630 0.276609 0.249999 -0.104475
H1    H     H_    0.909355 0.675488 0.985409 0.203736
H2    H     H_    0.517707 0.790284 0.514993 0.202815
H3    H     H_    0.790243 0.517697 0.485026 0.202815
H4    H     H_    0.192955 0.416827 0.514807 0.202635
H5    H     H_    0.581039 0.806693 0.484914 0.201945
H6    H     H_    0.481040 0.209717 0.515091 0.202811
H7    H     H_    0.209651 0.481144 0.484890 0.202803
H8    H     H_    0.806608 0.580966 0.515105 0.201927
H9    H     H_    0.602156 0.205049 0.696802 0.374545
H10   H     H_    0.427068 0.789075 0.301118 0.368289
H11   H     H_    0.789090 0.427068 0.698916 0.368148
H12   H     H_    0.997771 0.269132 0.016350 0.200911
H13   H     H_    0.204808 0.602159 0.303119 0.374572
H14   H     H_    0.398268 0.794813 0.696710 0.374711
H15   H     H_    0.573127 0.210855 0.301210 0.368342
H16   H     H_    0.210820 0.573245 0.698746 0.368542
H17   H     H_    0.795084 0.398085 0.303287 0.374561
H18   H     H_    0.107543 0.702154 0.194636 0.376940
H19   H     H_    0.919584 0.288094 0.798705 0.367587
H20   H     H_    0.288238 0.932771 0.197168 0.369646
H21   H     H_    0.711535 0.077825 0.798612 0.367764
H22   H     H_    0.897679 0.293629 0.198243 0.374547
H23   H     H_    0.312237 0.065875 0.984630 0.201979
H24   H     H_    0.096436 0.704102 0.806213 0.375566
H25   H     H_    0.712658 0.059461 0.201435 0.364813
H26   H     H_    0.294535 0.908478 0.805366 0.374217
H27   H     H_    0.690588 0.949896 0.599935 0.380175
H28   H     H_    0.341456 0.778649 0.401552 0.408479
H29   H     H_    0.778796 0.341425 0.598462 0.408403
H30   H     H_    0.949811 0.690578 0.400033 0.380186
H31   H     H_    0.309737 0.050522 0.600159 0.380074
H32   H     H_    0.655737 0.221609 0.401946 0.407982
H33   H     H_    0.222047 0.656334 0.598304 0.408724
H34   H     H_    0.701695 0.917876 0.014832 0.202540
H35   H     H_    0.050530 0.309710 0.399870 0.380088
H36   H     H_    0.187489 0.430232 0.100413 0.381719
H37   H     H_    0.798357 0.282019 0.896549 0.412129
H38   H     H_    0.280848 0.864921 0.095685 0.406351
H39   H     H_    0.495767 0.209294 0.898554 0.381994
H40   H     H_    0.809649 0.540427 0.100072 0.379686
H41   H     H_    0.163153 0.680857 0.907416 0.402760
H42   H     H_    0.745016 0.146379 0.101198 0.411220
H43   H     H_    0.543941 0.818567 0.902649 0.379970
H44   H     H_    0.359099 0.236181 0.567513 0.368601
H45   H     H_    0.036757 0.274484 0.983890 0.200222
H46   H     H_    0.478883 0.712803 0.432886 0.368063
H47   H     H_    0.712693 0.478677 0.567165 0.368126
H48   H     H_    0.236254 0.359194 0.432502 0.368590
H49   H     H_    0.641416 0.763363 0.566846 0.367508
H50   H     H_    0.516328 0.288253 0.433302 0.368145
H51   H     H_    0.288359 0.516092 0.566611 0.368420
H52   H     H_    0.763361 0.641443 0.433154 0.367561
H53   H     H_    0.863078 0.729774 0.065681 0.369404
H54   H     H_    0.892174 0.213807 0.931374 0.362032
H55   H     H_    0.228242 0.010836 0.066075 0.369566
H56   H     H_    0.981118 0.690351 0.014088 0.201555
H57   H     H_    0.737313 0.854421 0.932239 0.370270
H58   H     H_    0.134077 0.255703 0.068868 0.373673
H59   H     H_    0.997083 0.777488 0.937007 0.368084
H60   H     H_    0.799159 0.013282 0.068315 0.369365
H61   H     H_    0.295295 0.211160 0.936174 0.353387
H62   H     H_    0.723761 0.977743 0.984668 0.202560
H63   H     H_    0.333486 0.119692 0.015391 0.200123
H64   H     H_    0.416816 0.193032 0.485173 0.202624
N1    N     N_R   0.500160 0.000124 0.593887 -0.302147
N2    N     N_R   0.498919 0.000091 0.406039 -0.315766
N3    N     N_R   0.000064 0.498951 0.593961 -0.315819
N4    N     N_R   0.000097 0.500151 0.406113 -0.302166
N5    N     N_R   0.998727 0.486533 0.093839 -0.302007
N6    N     N_R   0.980173 0.480489 0.905982 -0.314765
N7    N     N_R   0.512094 0.007652 0.093952 -0.315464
N8    N     N_R   0.516889 0.015330 0.905911 -0.303176
O1    O     O_3   0.500000 1.000000 0.750000 -0.537794
O2    O     O_R   0.500000 0.069020 0.200420 -0.597458
O3    O     O_2   0.375441 0.823459 0.174027 -0.220081
O4    O     O_3   0.326462 0.969016 0.188312 -0.591668
O5    O     O_2   0.616645 0.187085 0.820346 -0.215879
O6    O     O_2   0.723583 0.120568 0.843603 -0.136505
O7    O     O_3   0.675312 0.042339 0.808237 -0.592251
O8    O     O_2   0.802137 0.406201 0.177499 -0.212039
O9    O     O_2   0.857074 0.295224 0.153336 -0.138439
O10   O     O_3   0.937560 0.328518 0.189519 -0.585867
O11   O     O_2   0.124063 0.698179 0.852352 -0.130592
O12   O     O_2   0.191345 0.595810 0.827708 -0.215607
O13   O     O_R   0.069020 0.500000 0.799580 -0.592901
O14   O     O_3   0.055139 0.668826 0.814348 -0.584654
O15   O     O_2   0.732851 0.093521 0.155704 -0.139093
O16   O     O_2   0.633208 0.174155 0.178202 -0.221938
O17   O     O_3   0.675785 0.025534 0.191602 -0.593584
O18   O     O_2   0.399225 0.810395 0.826954 -0.218561
O19   O     O_2   0.297868 0.879376 0.851563 -0.135693
O20   O     O_3   0.329991 0.948826 0.813766 -0.586241
O21   O     O_2   0.651464 0.156982 0.606680 -0.136918
O22   O     O_2   0.735424 0.065036 0.630241 -0.169798
O23   O     O_3   0.677887 0.005274 0.593297 -0.539650
O24   O     O_R   0.930980 0.500000 0.200420 -0.592971
O25   O     O_2   0.332364 0.948645 0.405027 -0.291681
O26   O     O_2   0.281936 0.887422 0.370348 -0.145625
O27   O     O_3   0.390191 0.803299 0.393574 -0.446727
O28   O     O_2   0.948744 0.332335 0.595012 -0.291769
O29   O     O_2   0.887496 0.281912 0.629702 -0.145546
O30   O     O_3   0.803375 0.390130 0.606460 -0.446676
O31   O     O_2   0.156897 0.651511 0.393282 -0.136855
O32   O     O_2   0.064956 0.735428 0.369711 -0.169798
O33   O     O_3   0.005181 0.677900 0.406670 -0.539625
O34   O     O_2   0.348784 0.843374 0.606661 -0.136647
O35   O     O_R   1.000000 0.569020 0.299580 -0.594077
O36   O     O_2   0.264898 0.935182 0.630390 -0.169744
O37   O     O_3   0.322376 0.995177 0.593454 -0.539590
O38   O     O_2   0.665285 0.051972 0.405196 -0.292868
O39   O     O_2   0.716494 0.113150 0.370586 -0.145095
O40   O     O_3   0.607523 0.197197 0.393724 -0.446274
O41   O     O_2   0.051896 0.665357 0.594769 -0.292060
O42   O     O_2   0.113004 0.716599 0.629370 -0.145925
O43   O     O_3   0.197119 0.607662 0.606236 -0.446723
O44   O     O_2   0.843398 0.348723 0.393378 -0.136319
O45   O     O_2   0.935228 0.264831 0.369656 -0.169727
O46   O     O_R   0.000000 0.430980 0.700420 -0.596569
O47   O     O_3   0.995185 0.322351 0.406577 -0.539637
O48   O     O_2   0.155385 0.639414 0.104995 -0.128914
O49   O     O_2   0.236556 0.548415 0.129491 -0.170762
O50   O     O_3   0.176822 0.485037 0.093204 -0.535641
O51   O     O_2   0.809288 0.450084 0.901249 -0.294475
O52   O     O_2   0.762046 0.400813 0.864935 -0.152257
O53   O     O_3   0.851013 0.300011 0.889110 -0.425185
O54   O     O_2   0.449759 0.844970 0.093024 -0.290984
O55   O     O_2   0.382804 0.793567 0.126851 -0.143812
O56   O     O_3   0.307730 0.910563 0.104400 -0.451157
O57   O     O_R   0.430980 1.000000 0.299580 -0.596525
O58   O     O_2   0.692835 0.139951 0.888993 -0.147376
O59   O     O_2   0.607502 0.232745 0.866045 -0.170361
O60   O     O_3   0.549831 0.188599 0.904460 -0.549603
O61   O     O_2   0.845495 0.333443 0.108161 -0.139618
O62   O     O_2   0.763556 0.429107 0.131289 -0.168266
O63   O     O_3   0.820913 0.484079 0.093794 -0.539429
O64   O     O_2   0.152720 0.510273 0.907894 -0.298606
O65   O     O_2   0.217232 0.573269 0.875081 -0.158699
O66   O     O_3   0.113945 0.663755 0.898375 -0.451728
O67   O     O_2   0.577413 0.168437 0.096282 -0.292452
O68   O     O_R   0.569020 1.000000 0.700420 -0.594106
O69   O     O_2   0.636489 0.212493 0.131783 -0.138001
O70   O     O_3   0.716083 0.099459 0.108923 -0.444441
O71   O     O_2   0.342810 0.881843 0.896691 -0.139806
O72   O     O_2   0.420780 0.781243 0.874028 -0.168212
O73   O     O_3   0.491475 0.839790 0.909432 -0.544594
O74   O     O_2   0.565165 0.262886 0.574217 -0.151636
O75   O     O_2   0.496299 0.322996 0.541720 -0.219515
O76   O     O_3   0.402542 0.272758 0.574333 -0.356325
O77   O     O_2   0.678532 0.787321 0.427894 -0.182124
O78   O     O_2   0.623722 0.702007 0.458425 -0.262289
O79   O     O_R   0.000000 0.430980 0.299580 -0.594033
O80   O     O_3   0.530016 0.720355 0.423672 -0.372193
O81   O     O_2   0.787107 0.678405 0.572105 -0.182156
O82   O     O_2   0.701825 0.623421 0.541608 -0.262125
O83   O     O_3   0.720359 0.529780 0.576378 -0.372351
O84   O     O_2   0.262783 0.565302 0.425741 -0.151595
O85   O     O_2   0.322922 0.496512 0.458247 -0.219553
O86   O     O_3   0.272763 0.402669 0.425660 -0.356308
O87   O     O_2   0.435264 0.737127 0.574297 -0.150258
O88   O     O_2   0.503510 0.677070 0.541618 -0.220184
O89   O     O_3   0.597923 0.727739 0.574004 -0.357258
O90   O     O_R   0.000000 0.569020 0.700420 -0.595971
O91   O     O_2   0.317884 0.210765 0.428158 -0.183257
O92   O     O_2   0.370868 0.296476 0.458834 -0.264978
O93   O     O_3   0.465398 0.280152 0.424076 -0.372182
O94   O     O_2   0.210515 0.317804 0.571854 -0.183232
O95   O     O_2   0.296232 0.370529 0.541132 -0.265261
O96   O     O_3   0.280166 0.465216 0.575861 -0.372011
O97   O     O_2   0.737091 0.435271 0.425744 -0.150245
O98   O     O_2   0.677047 0.503580 0.458415 -0.220178
O99   O     O_3   0.727752 0.597945 0.426003 -0.357230
O100  O     O_2   0.071173 0.744411 0.072617 -0.144280
O101  O     O_R   0.569020 1.000000 0.299580 -0.595904
O102  O     O_2   0.004104 0.804837 0.039907 -0.223655
O103  O     O_3   0.909172 0.761487 0.072963 -0.361163
O104  O     O_2   0.104867 0.222915 0.927810 -0.108353
O105  O     O_2   0.021900 0.158860 0.957542 -0.217195
O106  O     O_3   0.943828 0.208426 0.922290 -0.388505
O107  O     O_2   0.311795 0.206237 0.072777 -0.176693
O108  O     O_2   0.226331 0.157795 0.041563 -0.290525
O109  O     O_3   0.238584 0.060228 0.075753 -0.377613
O110  O     O_2   0.783105 0.056067 0.925033 -0.151713
O111  O     O_2   0.837893 0.985236 0.957909 -0.211766
O112  O     O_3   0.500000 1.000000 0.250000 -0.538059
O113  O     O_R   0.430980 1.000000 0.700420 -0.593860
O114  O     O_3   0.779911 0.893142 0.925871 -0.350840
O115  O     O_2   0.930961 0.219523 0.076135 -0.162221
O116  O     O_2   0.998786 0.158400 0.043535 -0.227149
O117  O     O_3   0.093851 0.214306 0.075131 -0.357325
O118  O     O_2   0.806209 0.688729 0.926850 -0.177186
O119  O     O_2   0.845119 0.770909 0.959598 -0.284093
O120  O     O_3   0.949816 0.767376 0.926620 -0.370568
O121  O     O_2   0.715592 0.816504 0.070789 -0.182368
O122  O     O_2   0.805280 0.872203 0.041249 -0.261413
O123  O     O_3   0.788326 0.961350 0.076950 -0.375858
O124  O     O_R   0.597490 0.833170 0.762730 -0.624108
O125  O     O_2   0.242814 0.007554 0.925740 -0.111886
O126  O     O_2   0.202044 0.090380 0.958115 -0.233135
O127  O     O_3   0.275572 0.167756 0.925534 -0.413110
O128  O     O_R   0.402510 0.166830 0.237270 -0.624843
O129  O     O_R   0.166830 0.597490 0.762730 -0.620584
O130  O     O_R   0.833170 0.402510 0.237270 -0.612254
O131  O     O_R   0.402510 0.166830 0.762730 -0.626034
O132  O     O_R   0.597490 0.833170 0.237270 -0.623834
O133  O     O_R   0.833170 0.402510 0.762730 -0.609940
O134  O     O_R   0.166830 0.597490 0.237270 -0.616795
O135  O     O_R   0.597490 0.166830 0.237270 -0.613445
O136  O     O_3   0.000000 0.500000 0.750000 -0.538183
O137  O     O_R   0.402510 0.833170 0.762730 -0.618641
O138  O     O_R   0.166830 0.402510 0.237270 -0.624825
O139  O     O_R   0.833170 0.597490 0.762730 -0.626339
O140  O     O_R   0.402510 0.833170 0.237270 -0.618337
O141  O     O_R   0.597490 0.166830 0.762730 -0.609286
O142  O     O_R   0.833170 0.597490 0.237270 -0.625332
O143  O     O_R   0.166830 0.402510 0.762730 -0.624471
O144  O     O_R   0.097490 0.333170 0.262730 -0.624835
O145  O     O_R   0.902510 0.666830 0.737270 -0.624395
O146  O     O_R   0.666830 0.097490 0.262730 -0.616970
O147  O     O_3   0.000000 0.500000 0.250000 -0.538130
O148  O     O_R   0.333170 0.902510 0.737270 -0.614325
O149  O     O_R   0.902510 0.666830 0.262730 -0.625321
O150  O     O_R   0.097490 0.333170 0.737270 -0.624589
O151  O     O_R   0.333170 0.902510 0.262730 -0.615707
O152  O     O_R   0.666830 0.097490 0.737270 -0.616513
O153  O     O_R   0.097490 0.666830 0.737270 -0.614186
O154  O     O_R   0.902510 0.333170 0.262730 -0.614631
O155  O     O_R   0.666830 0.902510 0.737270 -0.625365
O156  O     O_R   0.333170 0.097490 0.262730 -0.625161
O157  O     O_R   0.902510 0.333170 0.737270 -0.616213
O158  O     O_R   0.500000 0.069020 0.799580 -0.597430
O159  O     O_R   0.097490 0.666830 0.262730 -0.614407
O160  O     O_R   0.333170 0.097490 0.737270 -0.625150
O161  O     O_R   0.666830 0.902510 0.262730 -0.624960
O162  O     O_2   0.470443 0.142638 0.594976 -0.453307
O163  O     O_2   0.562237 0.869453 0.404772 -0.398301
O164  O     O_2   0.869422 0.562241 0.595239 -0.398262
O165  O     O_2   0.142606 0.470460 0.405015 -0.453275
O166  O     O_2   0.530027 0.857642 0.594869 -0.452325
O167  O     O_2   0.435816 0.130841 0.404928 -0.398085
O168  O     O_2   0.130858 0.435957 0.595061 -0.398017
O169  O     O_R   0.500000 0.930980 0.200420 -0.595800
O170  O     O_2   0.857621 0.529979 0.405139 -0.452267
O171  O     O_2   0.972702 0.629836 0.094190 -0.451596
O172  O     O_2   0.027441 0.342860 0.904651 -0.400363
O173  O     O_2   0.387771 0.082541 0.095299 -0.400499
O174  O     O_2   0.654507 0.968141 0.905039 -0.454282
O175  O     O_2   0.024183 0.343403 0.095564 -0.453781
O176  O     O_2   0.935154 0.618835 0.905236 -0.398995
O177  O     O_2   0.636754 0.933297 0.094909 -0.397775
O178  O     O_2   0.380210 0.064495 0.904662 -0.436532
O179  O     O_2   0.697488 0.092312 0.676385 -0.213829
O180  O     O_R   0.930980 0.500000 0.799580 -0.597241
O181  O     O_2   0.641330 0.200164 0.651533 -0.137127
O182  O     O_3   0.561850 0.170511 0.688130 -0.584694
O183  O     O_2   0.393284 0.778983 0.347044 -0.135194
O184  O     O_2   0.318288 0.879776 0.323662 -0.218734
O185  O     O_3   0.463410 0.825747 0.310385 -0.591212
O186  O     O_2   0.779017 0.393263 0.652995 -0.135239
O187  O     O_2   0.879809 0.318291 0.676378 -0.218981
O188  O     O_3   0.825749 0.463419 0.689638 -0.591176
O189  O     O_2   0.092315 0.697456 0.323576 -0.213866
O190  O     O_2   0.200137 0.641318 0.348431 -0.136938
O191  O     O_R   0.069020 0.500000 0.200420 -0.594169
O192  O     O_3   0.170523 0.561794 0.311853 -0.584470
O193  O     O_2   0.302837 0.907473 0.676436 -0.213678
O194  O     O_2   0.359188 0.799812 0.651456 -0.137191
O195  O     O_3   0.438551 0.829399 0.688030 -0.584508
O196  O     O_2   0.605832 0.221193 0.347160 -0.135208
O197  O     O_2   0.681379 0.120251 0.323837 -0.218475
O198  O     O_3   0.536576 0.174210 0.310437 -0.591362
O199  O     O_2   0.221111 0.605991 0.652794 -0.135750
O200  O     O_2   0.120150 0.681481 0.676127 -0.218186
O201  O     O_3   0.174180 0.536683 0.689531 -0.591290
O202  O     O_R   0.500000 0.930980 0.799580 -0.593987
O203  O     O_2   0.907578 0.302752 0.323598 -0.214006
O204  O     O_2   0.799885 0.359046 0.348582 -0.136749
O205  O     O_3   0.829441 0.438443 0.311997 -0.584356
O206  O     O_2   0.199574 0.584730 0.175287 -0.215178
O207  O     O_2   0.146150 0.690045 0.149264 -0.135399
O208  O     O_3   0.066109 0.668255 0.186162 -0.580870
O209  O     O_2   0.873145 0.278588 0.843393 -0.129103
O210  O     O_2   0.810753 0.386522 0.819657 -0.215358
O211  O     O_3   0.954945 0.324416 0.808327 -0.590741
O212  O     O_2   0.279879 0.905713 0.150820 -0.136092
S1    S     S_3+6 0.618581 0.129782 0.667104 0.138628
S2    S     S_3+6 0.891447 0.354368 0.829274 0.137018
S3    S     S_3+6 0.354134 0.910328 0.166182 0.131753
S4    S     S_3+6 0.647126 0.105008 0.829530 0.132662
S5    S     S_3+6 0.880604 0.367191 0.168328 0.138847
S6    S     S_3+6 0.108615 0.628467 0.835956 0.140312
S7    S     S_3+6 0.654862 0.088107 0.169745 0.128655
S8    S     S_3+6 0.368391 0.893652 0.835330 0.135081
S9    S     S_3+6 0.660308 0.068841 0.615166 0.152289
S10   S     S_3+6 0.357701 0.898105 0.384993 0.146372
S11   S     S_3+6 0.898170 0.357674 0.615042 0.146375
S12   S     S_3+6 0.403072 0.854128 0.332136 0.133143
S13   S     S_3+6 0.068769 0.660320 0.384801 0.152321
S14   S     S_3+6 0.339984 0.931458 0.615242 0.152280
S15   S     S_3+6 0.640373 0.102407 0.385151 0.146320
S16   S     S_3+6 0.102317 0.640468 0.614814 0.146231
S17   S     S_3+6 0.931482 0.339933 0.384791 0.152362
S18   S     S_3+6 0.161514 0.552359 0.114393 0.155645
S19   S     S_3+6 0.833793 0.399474 0.881152 0.147518
S20   S     S_3+6 0.399462 0.870637 0.113071 0.145766
S21   S     S_3+6 0.604871 0.159609 0.881836 0.140612
S22   S     S_3+6 0.838177 0.422596 0.116052 0.153357
S23   S     S_3+6 0.854147 0.403074 0.667894 0.132995
S24   S     S_3+6 0.137720 0.567940 0.888526 0.137255
S25   S     S_3+6 0.622659 0.138368 0.116689 0.150386
S26   S     S_3+6 0.428022 0.859914 0.887756 0.147127
S27   S     S_3+6 0.489900 0.255900 0.559256 0.167816
S28   S     S_3+6 0.600730 0.765016 0.440857 0.136436
S29   S     S_3+6 0.764892 0.600542 0.559167 0.136482
S30   S     S_3+6 0.255843 0.490045 0.440719 0.167815
S31   S     S_3+6 0.510149 0.744259 0.559153 0.167262
S32   S     S_3+6 0.395146 0.234117 0.441174 0.134774
S33   S     S_3+6 0.233970 0.394984 0.558802 0.134757
S34   S     S_3+6 0.129778 0.618551 0.332870 0.138760
S35   S     S_3+6 0.744240 0.510178 0.440872 0.167266
S36   S     S_3+6 0.995252 0.739520 0.057843 0.166695
S37   S     S_3+6 0.022963 0.226827 0.940168 0.169754
S38   S     S_3+6 0.287239 0.130593 0.059220 0.123177
S39   S     S_3+6 0.770320 0.982825 0.940452 0.172153
S40   S     S_3+6 0.004638 0.227373 0.060595 0.162395
S41   S     S_3+6 0.878119 0.713932 0.941663 0.129976
S42   S     S_3+6 0.742009 0.895200 0.058807 0.134779
S43   S     S_3+6 0.268723 0.079060 0.940631 0.160511
S44   S     S_3+6 0.381814 0.870143 0.667074 0.138786
S45   S     S_3+6 0.596397 0.145954 0.332238 0.133130
S46   S     S_3+6 0.145888 0.596510 0.667728 0.133148
S47   S     S_3+6 0.870206 0.381714 0.332955 0.138829
S48   S     S_3+6 0.121644 0.622795 0.165605 0.140495
Zn1   Zn    Zn3+2 0.599000 1.000000 0.730930 1.077808
Zn2   Zn    Zn3+2 0.901000 0.500000 0.769070 1.080229
Zn3   Zn    Zn3+2 0.500000 0.099000 0.230930 1.079476
Zn4   Zn    Zn3+2 0.500000 0.901000 0.769070 1.076274
Zn5   Zn    Zn3+2 0.901000 0.500000 0.230930 1.078507
Zn6   Zn    Zn3+2 0.099000 0.500000 0.769070 1.075461
Zn7   Zn    Zn3+2 0.500000 0.901000 0.230930 1.077843
Zn8   Zn    Zn3+2 0.500000 0.099000 0.769070 1.080089
Zn9   Zn    Zn3+2 0.401000 0.000000 0.269070 1.077834
Zn10  Zn    Zn3+2 0.000000 0.599000 0.730930 1.078191
Zn11  Zn    Zn3+2 0.000000 0.401000 0.269070 1.078046
Zn12  Zn    Zn3+2 0.401000 1.000000 0.730930 1.076597
Zn13  Zn    Zn3+2 0.599000 0.000000 0.269070 1.078065
Zn14  Zn    Zn3+2 0.000000 0.401000 0.730930 1.079371
Zn15  Zn    Zn3+2 0.000000 0.599000 0.269070 1.076853
Zn16  Zn    Zn3+2 0.099000 0.500000 0.230930 1.076329

loop_
_geom_bond_atom_site_label_1
_geom_bond_atom_site_label_2
_ccdc_geom_bond_type
C125  C134  A    
C156  O155  A    
C154  H7    S    
C19   O173  S    
C120  C146  A    
C38   S26   S    
C73   C82   A    
O75   S27   D    
O142  Zn5   S    
C4    C177  T    
C99   C139  A    
C79   C87   A    
C16   N4    A    
C167  O138  A    
O121  S42   D    
C41   C67   A    
H30   O33   S    
C75   C93   A    
O149  Zn15  S    
H13   O192  S    
C108  O13   A    
O34   S14   D    
C163  O113  A    
H9    O182  S    
C29   C64   A    
H28   O27   S    
C36   C66   A    
O124  Zn4   S    
C148  H2    S    
C100  S41   S    
C108  C109  S    
O56   S20   S    
O184  S12   D    
C120  C133  A    
O128  Zn3   S    
C74   C92   A    
C161  C182  S    
O201  S46   S    
C68   C149  A    
C76   C94   A    
O130  Zn5   S    
C38   C55   A    
H32   O40   S    
O185  S12   S    
C65   N5    S    
C3    C158  S    
C121  C147  A    
C171  C181  S    
C122  C148  A    
C112  C129  A    
O147  Zn16  S    
C95   C102  A    
C15   C85   A    
O48   S18   D    
C101  S42   S    
C38   C69   A    
C29   S17   S    
O4    S3    S    
O20   S8    S    
C31   C62   A    
C2    S28   S    
O90   Zn10  S    
C26   S14   S    
O68   Zn1   S    
C25   N8    A    
O203  S47   D    
O133  Zn2   S    
C8    N1    A    
O109  S38   S    
O160  Zn12  S    
O158  Zn8   S    
O136  Zn2   S    
O193  S44   D    
C16   O170  S    
C124  C137  A    
C138  H1    S    
H11   O188  S    
O197  S45   D    
H17   O205  S    
O151  Zn9   S    
O115  S40   D    
O116  S40   D    
O210  S2    D    
O5    S4    D    
C146  H63   S    
O67   S25   D    
O79   Zn11  S    
C12   N1    A    
O138  Zn16  S    
O100  S36   D    
O87   S31   D    
C39   C56   A    
C96   S38   S    
C115  C118  A    
C54   S7    S    
O112  Zn7   S    
H36   O50   S    
C124  C127  A    
C46   C84   A    
C19   N7    A    
C119  O191  A    
C25   C95   A    
H24   O14   S    
O31   S13   D    
C5    C176  T    
O154  Zn11  S    
C140  H23   S    
C167  O144  A    
H40   O63   S    
O186  S23   D    
C53   C109  A    
C106  C130  S    
O206  S48   D    
C77   C91   A    
O36   S14   D    
C55   C111  A    
C17   C87   A    
C26   C61   A    
C160  O131  A    
O136  Zn14  S    
O103  S36   S    
C47   S47   S    
H16   O201  S    
C76   C133  A    
O47   S17   S    
O209  S2    D    
O143  Zn6   S    
C104  C152  S    
O40   S15   S    
O98   S35   D    
O132  Zn7   S    
O80   S28   S    
H31   O37   S    
H38   O56   S    
C89   C96   A    
C57   C85   A    
C30   S9    S    
C68   S35   S    
O196  S45   D    
C161  O132  A    
C90   S37   S    
O112  Zn3   S    
C28   C63   A    
C62   N2    S    
C51   S34   S    
O32   S13   D    
C39   S18   S    
C30   C61   A    
C77   C132  A    
O187  S23   D    
C21   C92   A    
C165  O135  A    
O62   S22   D    
C31   S10   S    
O134  Zn16  S    
C171  O149  A    
C41   S20   S    
O147  Zn5   S    
O13   Zn6   S    
C49   C104  A    
C72   C85   A    
C18   N6    A    
C40   S19   S    
O21   S9    D    
C29   C47   A    
C169  O151  A    
C30   C48   A    
H59   O120  S    
C150  H4    S    
H58   O117  S    
O111  S39   D    
C34   S22   S    
O74   S27   D    
C32   S11   S    
C54   C110  A    
H51   O96   S    
C53   S6    S    
C142  H34   S    
C10   O164  S    
C125  C151  A    
C162  O133  A    
C64   N4    S    
H37   O53   S    
C27   C44   A    
C79   C144  A    
C99   S40   S    
C130  O35   A    
C50   C105  A    
C22   O176  S    
C17   O171  S    
O126  S43   D    
C36   C53   A    
H60   O123  S    
C114  C140  A    
C74   C87   A    
C76   C89   A    
C91   C98   A    
C74   C131  A    
O61   S22   D    
C166  O148  A    
O45   S17   D    
O119  S41   D    
C127  C154  A    
O12   S6    D    
C45   C105  A    
C97   O2    A    
C11   C82   A    
C50   S23   S    
O22   S9    D    
O141  Zn8   S    
C117  C144  A    
O102  S36   D    
H33   O43   S    
C152  O101  A    
C130  O79   A    
C14   O167  S    
C48   C103  A    
C18   C88   A    
O108  S38   D    
C152  O57   A    
C144  H56   S    
O137  Zn4   S    
H53   O103  S    
C27   C62   A    
O182  S1    S    
O1    Zn4   S    
C101  C142  A    
C4    C157  S    
C28   S16   S    
O140  Zn7   S    
O53   S19   S    
O37   S14   S    
H52   O99   S    
C147  H64   S    
C33   S13   S    
C12   O166  S    
C121  C134  A    
C59   S3    S    
O96   S33   S    
C97   O169  A    
C108  O180  A    
C102  S43   S    
H10   O185  S    
C168  C176  S    
C1    O158  A    
O27   S10   S    
O78   S28   D    
O55   S20   D    
C118  C145  A    
C13   S29   S    
C90   C143  A    
O202  Zn4   S    
O97   S35   D    
C24   S30   S    
C98   C145  A    
O110  S39   D    
C96   C146  A    
H25   O17   S    
C11   N4    A    
O159  Zn15  S    
C122  C125  A    
C9    N2    A    
C60   C111  A    
H18   O208  S    
H43   O73   S    
O199  S46   D    
O92   S32   D    
O1    Zn8   S    
O28   S11   D    
C165  C179  S    
O114  S39   S    
C37   C67   A    
C22   C93   A    
H27   O23   S    
C35   C148  A    
C117  C131  A    
C115  C142  A    
C118  C132  A    
C155  H8    S    
C21   N5    A    
C168  O139  A    
C57   S33   S    
H57   O114  S    
C25   O178  S    
O14   S6    S    
C8    O162  S    
O69   S25   D    
O198  S45   S    
O147  Zn15  S    
C92   C99   A    
H14   O195  S    
O152  Zn1   S    
C63   N3    S    
C39   C65   A    
O65   S24   D    
C37   S25   S    
O153  Zn10  S    
C14   C84   A    
C27   S15   S    
O88   S31   D    
C156  O124  A    
C181  C182  T    
O46   Zn14  S    
O208  S48   S    
C58   S2    S    
C3    C178  T    
C179  C184  T    
O33   S13   S    
C112  C117  A    
C165  O146  A    
C15   O168  S    
H50   O93   S    
C6    C175  T    
O3    S3    D    
C13   C81   A    
O192  S34   S    
O16   S7    D    
C9    O163  S    
O54   S20   D    
O49   S18   D    
O125  S43   D    
O123  S42   S    
C172  O150  A    
C66   N6    S    
C52   C107  A    
C24   C154  A    
O183  S12   D    
C161  O161  A    
C55   S8    S    
C166  C178  S    
O70   S25   S    
C159  C184  S    
C160  C183  S    
C72   C81   A    
O17   S7    S    
C79   S36   S    
C172  C180  S    
O41   S16   D    
C40   C66   A    
C174  S27   S    
C16   C86   A    
O101  Zn13  S    
C31   C49   A    
C107  C119  S    
C20   N8    A    
C141  O46   A    
C20   C91   A    
O169  Zn7   S    
O71   S26   D    
C40   C58   A    
O112  Zn13  S    
H15   O198  S    
C119  O24   A    
C11   O165  S    
C35   C83   A    
C115  C133  A    
C153  C174  A    
C12   C83   A    
H41   O66   S    
C35   S31   S    
C112  C138  A    
O180  Zn2   S    
C46   C147  A    
C73   C136  A    
O57   Zn9   S    
O86   S30   S    
C47   C106  A    
C159  O154  A    
C169  C175  S    
C45   S46   S    
C102  C140  A    
C143  H45   S    
C70   C83   A    
O11   S6    D    
C52   S5    S    
H55   O109  S    
O161  Zn13  S    
C128  C137  A    
O1    Zn1   S    
C145  H62   S    
C167  C177  S    
C88   C90   A    
C126  C135  A    
C149  H3    S    
C70   C135  A    
O15   S7    D    
O191  Zn16  S    
C139  H12   S    
O205  S47   S    
C2    C151  A    
C124  C150  A    
C171  O142  A    
O107  S38   D    
C44   S45   S    
C103  C163  S    
O60   S21   S    
O150  Zn14  S    
C160  O160  A    
O93   S32   S    
O112  Zn9   S    
O200  S46   D    
O30   S11   S    
C14   N2    A    
C67   N7    S    
C33   C51   A    
C5    C156  S    
H21   O7    S    
C10   C81   A    
C34   C52   A    
O73   S26   S    
C1    C111  S    
O63   S22   S    
H20   O4    S    
C56   S48   S    
C168  O145  A    
O207  S48   D    
O85   S30   D    
O194  S44   D    
H39   O60   S    
C159  O130  A    
O156  Zn9   S    
O94   S33   D    
C43   C103  A    
C122  C135  A    
H42   O70   S    
O105  S37   D    
C126  C153  A    
O211  S2    S    
O6    S4    D    
O91   S32   D    
O139  Zn2   S    
O66   S24   S    
C114  C120  A    
O129  Zn6   S    
O38   S15   D    
C170  C173  S    
C123  C149  A    
O135  Zn3   S    
O24   Zn5   S    
C70   C78   A    
C58   C109  A    
C68   C86   A    
O148  Zn12  S    
O146  Zn13  S    
O18   S8    D    
C44   C104  A    
H35   O47   S    
O1    Zn12  S    
C17   N5    A    
C163  O68   A    
O76   S27   S    
O127  S43   S    
O64   S24   D    
O190  S34   D    
C51   C106  A    
C49   S12   S    
C105  C141  S    
O204  S47   D    
H29   O30   S    
C1    O202  A    
C127  C136  A    
H22   O10   S    
C59   C110  A    
O136  Zn6   S    
C10   N3    A    
C157  O128  A    
O81   S29   D    
C24   C82   A    
O120  S41   S    
C13   C155  A    
O147  Zn11  S    
O8    S5    D    
C128  C155  A    
C48   S1    S    
C116  C129  A    
O23   S9    S    
C94   C101  A    
O84   S30   D    
O26   S10   D    
O77   S28   D    
O212  S3    D    
C46   S32   S    
C36   S24   S    
O39   S15   D    
C180  C183  T    
C113  C116  A    
C170  O141  A    
C60   S4    S    
O35   Zn15  S    
C8    C78   A    
O59   S21   D    
C157  O156  A    
H61   O127  S    
C34   C65   A    
C71   C80   A    
O117  S40   S    
C26   C43   A    
O7    S4    S    
C153  H6    S    
C7    C162  S    
C28   C45   A    
C23   O177  S    
O51   S19   D    
O144  Zn11  S    
C41   C59   A    
C23   N7    A    
C42   C60   A    
O157  Zn14  S    
O131  Zn8   S    
H46   O80   S    
C77   C95   A    
C42   C69   A    
O82   S29   D    
O145  Zn10  S    
C9    C80   A    
C164  O134  A    
C43   S44   S    
C158  O129  A    
O44   S17   D    
C56   C107  A    
C19   C89   A    
O118  S41   D    
C116  C143  A    
H26   O20   S    
O2    Zn3   S    
C93   C100  A    
C57   C150  A    
O179  S1    D    
C113  C139  A    
O25   S10   D    
C32   C50   A    
O188  S23   S    
C100  C138  A    
C172  O143  A    
C37   C54   A    
C61   N1    S    
C72   C137  A    
C166  O137  A    
C18   O172  S    
C141  O90   A    
C42   S21   S    
O72   S26   D    
C162  O157  A    
C170  O152  A    
O43   S16   S    
C71   C84   A    
O9    S5    D    
O29   S11   D    
O104  S37   D    
C113  C131  A    
O189  S34   D    
C114  C132  A    
C20   O174  S    
C32   C63   A    
C6    C164  S    
O42   S16   D    
C21   O175  S    
O122  S42   D    
O58   S21   D    
O136  Zn10  S    
O52   S19   D    
O89   S31   S    
O83   S29   S    
H49   O89   S    
C23   C94   A    
C123  C136  A    
H48   O86   S    
C121  C126  A    
O95   S33   D    
C71   C134  A    
C97   C110  S    
H44   O76   S    
H19   O211  S    
C123  C128  A    
C98   S39   S    
C15   N3    A    
C33   C64   A    
C7    C173  T    
O50   S18   S    
O113  Zn12  S    
C73   C86   A    
C22   N6    A    
C2    C80   A    
O155  Zn1   S    
H54   O106  S    
C75   C88   A    
C151  H5    S    
C69   N8    S    
H47   O83   S    
C78   C174  A    
C169  O140  A    
O181  S1    D    
O19   S8    D    
C164  O159  A    
O106  S37   S    
O195  S44   S    
O99   S35   S    
C158  O153  A    
C75   C129  A    
O10   S5    S    
