data_mof_unit_44594.cif
_audit_creation_date              2013-03-05T15:48:18-0500
_audit_creation_method            fapswitch 2.2
_symmetry_space_group_name_H-M    P1
_symmetry_Int_Tables_number       1
_space_group_crystal_system       triclinic
_cell_length_a                    15.654991
_cell_length_b                    15.749378
_cell_length_c                    34.398541
_cell_angle_alpha                 89.734116
_cell_angle_beta                  90.629985
_cell_angle_gamma                 119.812319
_cell_volume                      7358.31995062

loop_
_atom_site_label
_atom_site_type_symbol
_atom_site_description
_atom_site_fract_x
_atom_site_fract_y
_atom_site_fract_z
_atom_type_partial_charge
O1    O     O_R   0.498680 0.159540 0.541860 -0.515276
O2    O     O_R   0.840460 0.339140 0.541860 -0.521820
O3    O     O_R   0.660860 0.501320 0.541860 -0.516237
O4    O     O_R   0.159540 0.498680 0.041860 -0.527853
O5    O     O_R   0.339140 0.840460 0.041860 -0.519966
O6    O     O_R   0.501320 0.660860 0.041860 -0.527413
O7    O     O_R   0.532760 0.358060 0.540030 -0.504631
O8    O     O_R   0.641940 0.174700 0.540030 -0.496049
O9    O     O_R   0.825300 0.467240 0.540030 -0.501959
O10   O     O_R   0.358060 0.532760 0.040030 -0.500740
O11   O     O_R   0.174700 0.641940 0.040030 -0.504750
O12   O     O_R   0.467240 0.825300 0.040030 -0.496318
C1    C     C_R   0.578354 0.441476 0.554824 0.558428
C2    C     C_R   0.559309 0.137480 0.555191 0.564902
C3    C     C_R   0.863304 0.421655 0.554959 0.550786
C4    C     C_R   0.441805 0.578815 0.055134 0.548024
C5    C     C_R   0.137422 0.558632 0.055042 0.547860
C6    C     C_R   0.421883 0.862721 0.055154 0.564367
O13   O     O_R   0.498590 0.161190 0.456930 -0.471084
O14   O     O_R   0.838810 0.337400 0.456930 -0.480832
O15   O     O_R   0.662600 0.501410 0.456930 -0.478759
O16   O     O_R   0.161190 0.498590 0.956930 -0.471469
O17   O     O_R   0.337400 0.838810 0.956930 -0.469686
O18   O     O_R   0.501410 0.662600 0.956930 -0.485357
O19   O     O_R   0.532680 0.359580 0.461300 -0.520521
O20   O     O_R   0.640420 0.173100 0.461300 -0.511679
O21   O     O_R   0.826900 0.467320 0.461300 -0.524242
O22   O     O_R   0.359580 0.532680 0.961300 -0.512729
O23   O     O_R   0.173100 0.640420 0.961300 -0.516626
O24   O     O_R   0.467320 0.826900 0.961300 -0.511201
C7    C     C_R   0.576912 0.442679 0.445835 0.566496
C8    C     C_R   0.581256 0.189241 0.440346 0.583552
C9    C     C_R   0.864618 0.422229 0.445744 0.550340
C10   C     C_R   0.442307 0.577877 0.945604 0.547654
C11   C     C_R   0.134186 0.557110 0.945815 0.551286
C12   C     C_R   0.391939 0.810633 0.940339 0.586196
Cr1   Cr    Cr6+3 0.522350 0.263930 0.500020 1.025116
Cr2   Cr    Cr6+3 0.736070 0.258420 0.500020 1.024710
Cr3   Cr    Cr6+3 0.741580 0.477650 0.500020 1.013882
Cr4   Cr    Cr6+3 0.263930 0.522350 0.000020 1.015994
Cr5   Cr    Cr6+3 0.258420 0.736070 0.000020 1.021567
Cr6   Cr    Cr6+3 0.477650 0.741580 0.000020 1.022645
O25   O     O_3   0.666667 0.333333 0.499990 -0.273055
O26   O     O_3   0.333333 0.666667 0.999990 -0.271943
N1    N     N_R   0.003269 0.435957 0.769254 -0.233061
N2    N     N_R   0.567886 0.566953 0.769547 -0.231936
N3    N     N_R   0.369003 0.859082 0.751254 -0.229921
N4    N     N_R   0.508364 0.140079 0.251576 -0.238163
N5    N     N_R   0.517085 0.587741 0.276871 -0.245165
N6    N     N_R   0.054931 0.467242 0.276034 -0.241334
N7    N     N_R   0.000509 0.434093 0.730660 -0.155128
N8    N     N_R   0.572084 0.565507 0.731034 -0.144436
N9    N     N_R   0.384369 0.886389 0.714184 -0.151900
N10   N     N_R   0.496448 0.113500 0.214424 -0.176688
N11   N     N_R   0.518222 0.594178 0.238391 -0.183266
N12   N     N_R   0.062845 0.467937 0.237633 -0.179405
C13   C     C_R   0.920442 0.458484 0.591148 -0.028063
C14   C     C_R   0.542874 0.463230 0.590682 -0.023133
C15   C     C_R   0.536741 0.073325 0.589282 -0.023801
C16   C     C_R   0.463184 0.927358 0.089190 -0.016773
C17   C     C_R   0.460850 0.548827 0.093254 -0.017506
C18   C     C_R   0.088496 0.539258 0.092847 -0.020010
C19   C     C_R   0.968796 0.412424 0.607850 -0.112634
C20   C     C_R   0.597308 0.555282 0.608281 -0.114235
C21   C     C_R   0.439190 0.006155 0.598868 -0.110263
C22   C     C_R   0.430489 0.992658 0.098945 -0.119683
C23   C     C_R   0.544823 0.614106 0.114512 -0.117422
C24   C     C_R   0.068043 0.453816 0.113087 -0.114406
C25   C     C_R   0.007065 0.436275 0.645667 0.265199
C26   C     C_R   0.576852 0.570545 0.646235 0.262954
C27   C     C_R   0.417910 0.949645 0.632746 0.267792
C28   C     C_R   0.462226 0.047263 0.133619 0.267901
C29   C     C_R   0.549887 0.603150 0.154758 0.270844
C30   C     C_R   0.050485 0.446304 0.153100 0.268571
C31   C     C_R   0.991350 0.502753 0.667776 0.019250
C32   C     C_R   0.503239 0.491349 0.667441 0.027513
C33   C     C_R   0.494962 0.964835 0.658798 0.023003
C34   C     C_R   0.529154 0.036927 0.158549 0.048777
C35   C     C_R   0.472423 0.521193 0.173374 0.050166
C36   C     C_R   0.045735 0.522726 0.172510 0.044686
C37   C     C_R   0.951095 0.554894 0.649612 -0.175977
C38   C     C_R   0.442730 0.402262 0.648301 -0.179906
C39   C     C_R   0.592748 0.029365 0.648023 -0.175891
C40   C     C_R   0.565528 0.975206 0.147286 -0.171950
C41   C     C_R   0.393956 0.450112 0.151067 -0.179813
C42   C     C_R   0.056128 0.603583 0.151156 -0.166918
C43   C     C_R   0.916920 0.533697 0.611522 -0.152421
C44   C     C_R   0.462170 0.388413 0.610193 -0.152056
C45   C     C_R   0.613404 0.082120 0.613464 -0.148933
C46   C     C_R   0.532976 0.921135 0.113028 -0.156865
C47   C     C_R   0.387503 0.464388 0.111416 -0.153162
C48   C     C_R   0.078533 0.612393 0.111759 -0.150413
N13   N     N_R   0.012802 0.588068 0.729910 -0.238020
N14   N     N_R   0.413813 0.429660 0.728878 -0.259229
N15   N     N_R   0.548662 0.926437 0.721004 -0.260638
N16   N     N_R   0.623809 0.077722 0.220290 -0.239415
N17   N     N_R   0.415122 0.425044 0.233793 -0.245861
N18   N     N_R   0.004750 0.578356 0.232618 -0.234272
N19   N     N_R   0.015771 0.590040 0.768577 -0.221285
N20   N     N_R   0.409444 0.431209 0.767449 -0.228088
N21   N     N_R   0.533293 0.898866 0.758115 -0.226813
N22   N     N_R   0.635915 0.104465 0.257538 -0.222558
N23   N     N_R   0.413968 0.418513 0.272408 -0.229959
N24   N     N_R   0.996757 0.577677 0.271096 -0.226210
C49   C     C_R   0.010087 0.513494 0.788997 0.341303
C50   C     C_R   0.486705 0.499616 0.788541 0.341608
C51   C     C_R   0.443364 0.865869 0.774125 0.342391
C52   C     C_R   0.577321 0.134823 0.274065 0.348671
C53   C     C_R   0.465637 0.499798 0.294681 0.348145
C54   C     C_R   0.021338 0.521749 0.293542 0.345572
C55   C     C_R   0.005624 0.510209 0.710215 0.346978
C56   C     C_R   0.494984 0.497339 0.709878 0.353144
C57   C     C_R   0.474720 0.921625 0.698327 0.344143
C58   C     C_R   0.552996 0.080663 0.198032 0.369464
C59   C     C_R   0.469099 0.512966 0.216062 0.371785
C60   C     C_R   0.036554 0.522227 0.215106 0.370590
C61   C     C_R   0.011142 0.436167 0.851994 -0.091684
C62   C     C_R   0.563104 0.572800 0.852547 -0.094192
C63   C     C_R   0.346339 0.842676 0.833992 -0.102049
C64   C     C_R   0.503285 0.156857 0.334080 -0.103130
C65   C     C_R   0.553313 0.571356 0.357001 -0.105193
C66   C     C_R   0.012907 0.442034 0.357208 -0.100097
C67   C     C_R   0.036134 0.443754 0.891311 0.267173
C68   C     C_R   0.554755 0.589430 0.891758 0.263991
C69   C     C_R   0.335635 0.835604 0.874474 0.260348
C70   C     C_R   0.499674 0.163815 0.374553 0.259339
C71   C     C_R   0.584071 0.558422 0.393843 0.263903
C72   C     C_R   0.976382 0.417936 0.394914 0.248194
C73   C     C_R   0.067040 0.610958 0.891315 -0.169216
C74   C     C_R   0.380995 0.466519 0.888749 -0.178165
C75   C     C_R   0.486778 0.828218 0.879818 -0.178874
C76   C     C_R   0.658204 0.171143 0.379825 -0.178750
C77   C     C_R   0.450894 0.389530 0.393196 -0.170229
C78   C     C_R   0.922751 0.538405 0.390521 -0.184461
C79   C     C_R   0.040078 0.602125 0.852180 -0.132713
C80   C     C_R   0.390752 0.448563 0.849946 -0.136643
C81   C     C_R   0.498872 0.839693 0.839591 -0.133543
C82   C     C_R   0.658802 0.159800 0.339578 -0.133536
C83   C     C_R   0.423799 0.401906 0.355836 -0.135894
C84   C     C_R   0.960402 0.562869 0.353170 -0.142439
C85   C     C_R   0.017984 0.516690 0.831672 -0.016059
C86   C     C_R   0.480623 0.505109 0.831019 -0.014561
C87   C     C_R   0.428791 0.847291 0.816330 -0.008463
C88   C     C_R   0.581186 0.152468 0.316352 -0.008287
C89   C     C_R   0.478067 0.491665 0.336728 -0.010702
C90   C     C_R   0.001378 0.511491 0.335495 -0.007831
C91   C     C_R   0.073828 0.535332 0.910164 0.005229
C92   C     C_R   0.461064 0.541031 0.909300 0.010505
C93   C     C_R   0.405839 0.826935 0.897819 0.021559
C94   C     C_R   0.578642 0.172572 0.397853 0.020918
C95   C     C_R   0.534879 0.465189 0.411406 0.026157
C96   C     C_R   0.925185 0.462075 0.410818 0.021991
H1    H     H_    0.974496 0.356060 0.592100 0.138110
H2    H     H_    0.659078 0.614405 0.593436 0.140986
H3    H     H_    0.379249 0.997196 0.580080 0.137266
H4    H     H_    0.380552 0.001372 0.079493 0.123914
H5    H     H_    0.603866 0.677208 0.100335 0.127412
H6    H     H_    0.071717 0.395094 0.098381 0.130754
H7    H     H_    0.881062 0.571400 0.599120 0.150816
H8    H     H_    0.418235 0.316902 0.597060 0.145298
H9    H     H_    0.689438 0.133495 0.606607 0.147979
H10   H     H_    0.559648 0.871468 0.105960 0.126240
H11   H     H_    0.322248 0.412335 0.095531 0.129980
H12   H     H_    0.093435 0.678848 0.096693 0.136760
H13   H     H_    0.940237 0.607898 0.665529 0.159583
H14   H     H_    0.384254 0.340885 0.663529 0.147153
H15   H     H_    0.653646 0.042410 0.667052 0.150559
H16   H     H_    0.616392 0.965370 0.165751 0.133303
H17   H     H_    0.334231 0.386439 0.164677 0.118910
H18   H     H_    0.052818 0.663066 0.165385 0.142078
H19   H     H_    0.990425 0.368026 0.837139 0.155280
H20   H     H_    0.633878 0.615670 0.838754 0.152874
H21   H     H_    0.290482 0.846679 0.816532 0.145343
H22   H     H_    0.443425 0.153032 0.316671 0.141885
H23   H     H_    0.592687 0.642584 0.343424 0.138148
H24   H     H_    0.045881 0.402526 0.344448 0.147413
H25   H     H_    0.089392 0.679475 0.906012 0.182186
H26   H     H_    0.308737 0.426993 0.901688 0.161144
H27   H     H_    0.541022 0.820332 0.896850 0.166937
H28   H     H_    0.720335 0.178963 0.396845 0.165354
H29   H     H_    0.409392 0.318881 0.406955 0.184071
H30   H     H_    0.885709 0.574828 0.402396 0.122573
H31   H     H_    0.042693 0.664347 0.837524 0.150578
H32   H     H_    0.326215 0.394770 0.834212 0.156278
H33   H     H_    0.562859 0.842142 0.826700 0.156163
H34   H     H_    0.720308 0.157368 0.326648 0.155607
H35   H     H_    0.363341 0.339989 0.341313 0.144146
H36   H     H_    0.951982 0.617956 0.337382 0.142448
O27   O     O_3   0.034903 0.364324 0.909250 -0.544174
C97   C     C_3   0.954550 0.320046 0.935073 0.004116
H37   H     H_    0.939732 0.373580 0.950458 0.111918
H38   H     H_    0.973126 0.281793 0.957985 0.159774
C98   C     C_3   0.861714 0.244081 0.913902 -0.393819
H39   H     H_    0.876255 0.190284 0.898910 0.170163
H40   H     H_    0.801674 0.204746 0.935143 0.111826
H41   H     H_    0.837462 0.280250 0.892157 0.145379
O28   O     O_3   0.636657 0.661678 0.911002 -0.547480
C99   C     C_3   0.675364 0.618122 0.936515 0.005697
H42   H     H_    0.617797 0.549335 0.950342 0.113649
H43   H     H_    0.714314 0.670414 0.960613 0.159359
C100  C     C_3   0.749917 0.599229 0.915681 -0.396689
H44   H     H_    0.807601 0.667853 0.902174 0.163871
H45   H     H_    0.785402 0.572659 0.936844 0.103337
H46   H     H_    0.712667 0.542781 0.892773 0.146933
O29   O     O_3   0.252128 0.828661 0.890969 -0.561118
C101  C     C_3   0.248984 0.916352 0.885657 -0.008947
H47   H     H_    0.309535 0.973197 0.867647 0.119823
H48   H     H_    0.254754 0.949544 0.914675 0.163493
C102  C     C_3   0.150660 0.892620 0.867305 -0.388106
H49   H     H_    0.089232 0.840256 0.885887 0.147565
H50   H     H_    0.146372 0.960618 0.864214 0.116282
H51   H     H_    0.142990 0.859702 0.838102 0.157196
O30   O     O_3   0.423194 0.170881 0.391072 -0.561081
C103  C     C_3   0.332184 0.083396 0.385593 -0.007138
H52   H     H_    0.304847 0.049702 0.414522 0.161592
H53   H     H_    0.335610 0.026804 0.367277 0.116014
C104  C     C_3   0.257677 0.107680 0.367573 -0.393776
H54   H     H_    0.283153 0.141660 0.338564 0.152824
H55   H     H_    0.185410 0.039763 0.364136 0.105125
H56   H     H_    0.248439 0.159337 0.386562 0.147285
O31   O     O_3   0.658942 0.637460 0.413556 -0.539974
C105  C     C_3   0.749894 0.673511 0.394122 -0.000065
H57   H     H_    0.746973 0.632558 0.367238 0.114540
H58   H     H_    0.802630 0.668030 0.414373 0.154298
C106  C     C_3   0.790798 0.781037 0.384109 -0.380976
H59   H     H_    0.799290 0.823653 0.410928 0.166683
H60   H     H_    0.863915 0.810327 0.370309 0.098390
H61   H     H_    0.740488 0.789736 0.363591 0.152400
O32   O     O_3   0.982582 0.344148 0.414291 -0.543486
C107  C     C_3   0.068324 0.387228 0.437791 -0.002194
H62   H     H_    0.065963 0.438734 0.459316 0.124980
H63   H     H_    0.135417 0.427069 0.419624 0.123908
C108  C     C_3   0.075433 0.307319 0.460095 -0.359284
H64   H     H_    0.079199 0.255246 0.439462 0.154687
H65   H     H_    0.142768 0.340369 0.478676 0.090437
H66   H     H_    0.009989 0.266997 0.478881 0.166434
O33   O     O_3   0.053960 0.389310 0.661438 -0.536217
C109  C     C_3   0.156518 0.452553 0.658308 -0.015945
H67   H     H_    0.180645 0.522143 0.674477 0.132879
H68   H     H_    0.178180 0.469511 0.627248 0.112499
C110  C     C_3   0.210325 0.403176 0.675704 -0.334587
H69   H     H_    0.189808 0.334341 0.659793 0.157471
H70   H     H_    0.290908 0.452992 0.673366 0.107235
H71   H     H_    0.191194 0.386261 0.706852 0.196634
O34   O     O_3   0.635735 0.660369 0.663610 -0.534932
C111  C     C_3   0.600767 0.723982 0.652364 -0.015350
H72   H     H_    0.523290 0.695056 0.661876 0.128932
H73   H     H_    0.604997 0.734901 0.620258 0.116697
C112  C     C_3   0.664457 0.823004 0.671497 -0.331606
H74   H     H_    0.742571 0.853084 0.663115 0.163508
H75   H     H_    0.639531 0.874448 0.661812 0.105642
H76   H     H_    0.658544 0.815559 0.703624 0.197628
O35   O     O_3   0.320938 0.883187 0.640945 -0.532180
C113  C     C_3   0.298124 0.792386 0.624367 -0.010204
H77   H     H_    0.347496 0.766018 0.636122 0.118696
H78   H     H_    0.304456 0.798135 0.592104 0.118527
C114  C     C_3   0.192796 0.716831 0.634232 -0.349807
H79   H     H_    0.141395 0.740838 0.623026 0.169396
H80   H     H_    0.173596 0.645627 0.620653 0.077772
H81   H     H_    0.184753 0.707196 0.666244 0.184183
O36   O     O_3   0.435142 0.116788 0.141697 -0.533315
C115  C     C_3   0.332516 0.070776 0.147735 -0.000165
H82   H     H_    0.307349 0.008365 0.168465 0.134771
H83   H     H_    0.291473 0.044206 0.119774 0.117525
C116  C     C_3   0.307871 0.144881 0.164877 -0.345687
H84   H     H_    0.330731 0.207594 0.144676 0.160761
H85   H     H_    0.227318 0.109906 0.169614 0.084086
H86   H     H_    0.346741 0.172365 0.193169 0.195780
O37   O     O_3   0.631970 0.669827 0.175815 -0.532855
C117  C     C_3   0.638266 0.762631 0.175203 -0.005254
H87   H     H_    0.565763 0.757044 0.181300 0.134252
H88   H     H_    0.665442 0.798883 0.146623 0.114957
C118  C     C_3   0.711082 0.827283 0.206358 -0.344398
H89   H     H_    0.784770 0.835925 0.200856 0.161261
H90   H     H_    0.717169 0.900605 0.205980 0.104635
H91   H     H_    0.685701 0.794023 0.235489 0.186752
O38   O     O_3   0.034117 0.362881 0.173009 -0.532163
C119  C     C_3   0.122036 0.358135 0.174346 -0.002301
H92   H     H_    0.186224 0.429167 0.183805 0.141248
H93   H     H_    0.137542 0.337635 0.145459 0.111981
C120  C     C_3   0.110521 0.280141 0.203424 -0.344779
H94   H     H_    0.048038 0.207890 0.194611 0.157852
H95   H     H_    0.178891 0.275285 0.204539 0.099872
H96   H     H_    0.096441 0.298997 0.232839 0.191451

loop_
_geom_bond_atom_site_label_1
_geom_bond_atom_site_label_2
_geom_bond_distance
_ccdc_geom_bond_type
O19   C7    1.255332 A    
N24   C54   1.358049 A    
Cr6   O26   1.961086 S    
C30   O38   1.386233 S    
O20   C8    1.288320 A    
C97   H37   1.116282 S    
C119  H93   1.112073 S    
C35   C59   1.472715 S    
C28   C34   1.417118 A    
C63   C87   1.401441 A    
C100  H44   1.110657 S    
C103  H52   1.110725 S    
C77   C95   1.404258 A    
C79   H31   1.082640 S    
N16   C58   1.359898 A    
C118  H91   1.110558 S    
C115  C116  1.522444 S    
C41   C47   1.392051 A    
O23   Cr5   1.950942 S    
C65   H23   1.081857 S    
O29   C101  1.417119 S    
O21   C9    1.251693 A    
C104  H56   1.110626 S    
N4    N10   1.328641 A    
O16   C11   1.246962 A    
C68   C92   1.414194 A    
C109  C110  1.519323 S    
C112  H74   1.110614 S    
O32   C107  1.411093 S    
N11   C59   1.354780 A    
O8    Cr2   1.974842 S    
C113  H78   1.114573 S    
C46   H10   1.083558 S    
C75   C81   1.397379 A    
C64   C88   1.401616 A    
C82   H34   1.082892 S    
C76   C94   1.407649 A    
C111  H73   1.114528 S    
C114  H79   1.110592 S    
N16   N22   1.332395 A    
C78   C84   1.390286 A    
O36   C115  1.413431 S    
C103  H53   1.117000 S    
C12   C93   1.483408 S    
C83   C89   1.400589 A    
N1    N7    1.327788 A    
C24   C30   1.399464 A    
N2    N8    1.328013 A    
C78   C96   1.404009 A    
O9    Cr3   1.952103 S    
C106  H61   1.109679 S    
C7    C95   1.473852 S    
C107  C108  1.520958 S    
O10   Cr4   1.951875 S    
C110  H69   1.110591 S    
C15   C45   1.401877 A    
C69   O29   1.384379 S    
C17   C23   1.400658 A    
C27   O35   1.380736 S    
C36   C42   1.405558 A    
C74   H26   1.083313 S    
C97   C98   1.526364 S    
C71   C95   1.411296 A    
C73   C79   1.393048 A    
C10   C92   1.471971 S    
N10   C58   1.355720 A    
C72   C96   1.411402 A    
C22   C28   1.407361 A    
C19   C25   1.398542 A    
O21   Cr3   1.960026 S    
C98   H40   1.110408 S    
C119  C120  1.521271 S    
C18   C48   1.400736 A    
C63   H21   1.082702 S    
N15   N21   1.331839 A    
C80   C86   1.401908 A    
N22   C52   1.357685 A    
C99   H42   1.116207 S    
C23   C29   1.400576 A    
C20   C26   1.397666 A    
C67   O27   1.383912 S    
O13   Cr1   2.089323 S    
C108  H64   1.110952 S    
N13   N19   1.330370 A    
Cr4   O26   1.972580 S    
C80   H32   1.082866 S    
O3    C1    1.246506 A    
C70   C94   1.413997 A    
O1    Cr1   2.072611 S    
N3    N9    1.329519 A    
O19   Cr1   1.952776 S    
C48   H12   1.083185 S    
C44   H8    1.083177 S    
C81   C87   1.403048 A    
C16   C22   1.400931 A    
C30   C36   1.413324 A    
O37   C117  1.415263 S    
C20   H2    1.083531 S    
C61   H19   1.083211 S    
C3    C13   1.467136 S    
C117  C118  1.521162 S    
C47   H11   1.083249 S    
O1    C2    1.244464 A    
C34   C58   1.483349 S    
C40   C46   1.392206 A    
C100  H45   1.110442 S    
C78   H30   1.081840 S    
N6    C54   1.355315 A    
C24   H6    1.082773 S    
O13   C8    1.280944 A    
N15   C57   1.359278 A    
N13   C55   1.358032 A    
C45   H9    1.083477 S    
C116  H86   1.110735 S    
N1    C49   1.356592 A    
C102  H51   1.110203 S    
C50   C86   1.471073 S    
C81   H33   1.082939 S    
C14   C20   1.401014 A    
C39   C45   1.392916 A    
C109  H68   1.114949 S    
C112  H75   1.108466 S    
C118  H90   1.110510 S    
C38   H14   1.082957 S    
C79   C85   1.403015 A    
O12   Cr6   1.973499 S    
C84   H36   1.082958 S    
O30   C103  1.417202 S    
O4    Cr4   2.078955 S    
C19   H1    1.083414 S    
C102  H49   1.110648 S    
C25   O33   1.381219 S    
C32   C38   1.404528 A    
C116  H85   1.110514 S    
C65   C89   1.403280 A    
C75   H27   1.083078 S    
C101  H47   1.117051 S    
C31   C37   1.401085 A    
C115  H83   1.111685 S    
O5    C6    1.243714 A    
C83   H35   1.082922 S    
C105  C106  1.522401 S    
C120  H94   1.110625 S    
C21   C27   1.401856 A    
C74   C92   1.404876 A    
C68   O28   1.383678 S    
C9    C96   1.470593 S    
C33   C39   1.405608 A    
O18   C10   1.248055 A    
Cr2   O25   1.961405 S    
C13   C43   1.403894 A    
C110  H70   1.109495 S    
Cr1   O25   1.960524 S    
C98   H39   1.110871 S    
C61   C85   1.402431 A    
O24   C12   1.288603 A    
C66   H24   1.083116 S    
O22   Cr4   1.960171 S    
O31   C105  1.417821 S    
C40   H16   1.082632 S    
C70   O30   1.384485 S    
C37   H13   1.083021 S    
C5    C18   1.468582 S    
O14   Cr2   2.092176 S    
N14   N20   1.330256 A    
O2    Cr2   2.063434 S    
N9    C57   1.356399 A    
N18   C60   1.356981 A    
C54   C90   1.471005 S    
O15   Cr3   2.068913 S    
C62   H20   1.083199 S    
C32   C56   1.474463 S    
C98   H41   1.110407 S    
O16   Cr4   2.068390 S    
Cr5   O26   1.960823 S    
O15   C7    1.248593 A    
C99   C100  1.526434 S    
C106  H59   1.110665 S    
N12   C60   1.355598 A    
C119  H92   1.116047 S    
C23   H5    1.082536 S    
C62   C68   1.395060 A    
C31   C55   1.470785 S    
C114  H80   1.110300 S    
C107  H63   1.114877 S    
O2    C3    1.248828 A    
C108  H65   1.110572 S    
N17   N23   1.331428 A    
C64   C70   1.400980 A    
C69   C93   1.414274 A    
N7    C55   1.355000 A    
O4    C5    1.244806 A    
C63   C69   1.401700 A    
C74   C80   1.391328 A    
C77   H29   1.080397 S    
C33   C57   1.482867 S    
C52   C88   1.477099 S    
C76   H28   1.083080 S    
C77   C83   1.391879 A    
N3    C51   1.357379 A    
C26   C32   1.413058 A    
C100  H46   1.110083 S    
C117  H88   1.111711 S    
C75   C93   1.407503 A    
C104  H55   1.110415 S    
C4    C17   1.468704 S    
O14   C9    1.248263 A    
C84   C90   1.401829 A    
C72   O32   1.381216 S    
C27   C33   1.416566 A    
N5    C53   1.355032 A    
C116  H84   1.110920 S    
C6    C16   1.471417 S    
O27   C97   1.415722 S    
O5    Cr5   2.070617 S    
C109  H67   1.114753 S    
O11   C5    1.252072 A    
C112  H76   1.110795 S    
O8    C2    1.243786 A    
O22   C10   1.253260 A    
C105  H58   1.109934 S    
C42   H18   1.083027 S    
C120  H96   1.110574 S    
C97   H38   1.110609 S    
O38   C119  1.415256 S    
C36   C60   1.473463 S    
C13   C19   1.400674 A    
C67   C91   1.415280 A    
C99   H43   1.110446 S    
C62   C86   1.403479 A    
N5    N11   1.326696 A    
C14   C44   1.402198 A    
C103  C104  1.521996 S    
Cr3   O25   1.972562 S    
C65   C71   1.400385 A    
C115  H82   1.115575 S    
C1    C14   1.468196 S    
C53   C89   1.470764 S    
C16   C46   1.400631 A    
O35   C113  1.411763 S    
C120  H95   1.110589 S    
C29   C35   1.414143 A    
N17   C59   1.357757 A    
O23   C11   1.257369 A    
N20   C50   1.357326 A    
O17   Cr5   2.091107 S    
C18   C24   1.402097 A    
N23   C53   1.358673 A    
C114  H81   1.110833 S    
O20   Cr2   1.947789 S    
C110  H71   1.110750 S    
C113  H77   1.115385 S    
C102  H50   1.110385 S    
C61   C67   1.392770 A    
C107  H62   1.115186 S    
C21   H3    1.083508 S    
O10   C4    1.248130 A    
N6    N12   1.327582 A    
C15   C21   1.400542 A    
C51   C87   1.477292 S    
C22   H4    1.082619 S    
C111  H72   1.115193 S    
C37   C43   1.387593 A    
C101  C102  1.521946 S    
C39   H15   1.082756 S    
N4    C52   1.356682 A    
C73   H25   1.080829 S    
C82   C88   1.402879 A    
C38   C44   1.391390 A    
O33   C109  1.412156 S    
N2    C50   1.355876 A    
C104  H54   1.110301 S    
N14   C56   1.357598 A    
C106  H60   1.110517 S    
C35   C41   1.403878 A    
C43   H7    1.083288 S    
C25   C31   1.415175 A    
C11   C91   1.473305 S    
N19   C49   1.356997 A    
C66   C90   1.404587 A    
C66   C72   1.396163 A    
O28   C99   1.415610 S    
C64   H22   1.082717 S    
C108  H66   1.111013 S    
C41   H17   1.082580 S    
C73   C91   1.402671 A    
O18   Cr6   2.090909 S    
C71   O31   1.386649 S    
C26   O34   1.381059 S    
O6    C4    1.246207 A    
C34   C40   1.406402 A    
C113  C114  1.519086 S    
O7    C1    1.249083 A    
C29   O37   1.386901 S    
C8    C94   1.482789 S    
O17   C12   1.281186 A    
O6    Cr6   2.065088 S    
O11   Cr5   1.974454 S    
O12   C6    1.244696 A    
N21   C51   1.357299 A    
N8    C56   1.355925 A    
C117  H87   1.116141 S    
O24   Cr6   1.949484 S    
O7    Cr1   1.972883 S    
C42   C48   1.392537 A    
C49   C85   1.470807 S    
C2    C15   1.471091 S    
O34   C111  1.410718 S    
C101  H48   1.110719 S    
C76   C82   1.397485 A    
C105  H57   1.117379 S    
N18   N24   1.330351 A    
C28   O36   1.386726 S    
O3    Cr3   2.078612 S    
C17   C47   1.402502 A    
O9    C3    1.244057 A    
C111  C112  1.519355 S    
C118  H89   1.110646 S    
