data_mof_unit_14727.cif
_audit_creation_date              2013-03-05T15:47:25-0500
_audit_creation_method            fapswitch 2.2
_symmetry_space_group_name_H-M    P1
_symmetry_Int_Tables_number       1
_space_group_crystal_system       triclinic
_cell_length_a                    18.236479
_cell_length_b                    18.697412
_cell_length_c                    11.725083
_cell_angle_alpha                 90.000079
_cell_angle_beta                  74.695094
_cell_angle_gamma                 90.001483
_cell_volume                      3856.17136181

loop_
_atom_site_label
_atom_site_type_symbol
_atom_site_description
_atom_site_fract_x
_atom_site_fract_y
_atom_site_fract_z
_atom_type_partial_charge
O1    O     O_R   0.430030 0.075530 0.417420 -0.557598
O2    O     O_R   0.569970 0.924470 0.582580 -0.557563
O3    O     O_R   0.569970 0.075530 0.582580 -0.557593
O4    O     O_R   0.430030 0.924470 0.417420 -0.557471
O5    O     O_R   0.930030 0.575530 0.417420 -0.557529
O6    O     O_R   0.069970 0.424470 0.582580 -0.557638
O7    O     O_R   0.069970 0.575530 0.582580 -0.557544
O8    O     O_R   0.930030 0.424470 0.417420 -0.557538
O9    O     O_R   0.416860 0.075510 0.614610 -0.554537
O10   O     O_R   0.583140 0.924490 0.385390 -0.554547
O11   O     O_R   0.583140 0.075510 0.385390 -0.554521
O12   O     O_R   0.416860 0.924490 0.614610 -0.554625
O13   O     O_R   0.916860 0.575510 0.614610 -0.554511
O14   O     O_R   0.083140 0.424490 0.385390 -0.554585
O15   O     O_R   0.083140 0.575510 0.385390 -0.554503
O16   O     O_R   0.916860 0.424490 0.614610 -0.554662
C1    C     C_R   0.399883 0.100817 0.522557 0.883150
C2    C     C_R   0.600081 0.899145 0.477445 0.882811
C3    C     C_R   0.600167 0.100768 0.477434 0.882920
C4    C     C_R   0.399876 0.899190 0.522561 0.882695
C5    C     C_R   0.899929 0.600863 0.522556 0.882753
C6    C     C_R   0.100122 0.399189 0.477445 0.883247
C7    C     C_R   0.100127 0.600810 0.477437 0.882528
C8    C     C_R   0.899834 0.399234 0.522562 0.883126
C9    C     C_R   0.409872 0.999899 0.868519 0.134767
C10   C     C_R   0.590129 0.999974 0.131481 0.134828
C11   C     C_R   0.909868 0.500002 0.868518 0.134767
C12   C     C_R   0.090131 0.500057 0.131483 0.134787
Cu1   Cu    Cu3+1 0.507800 1.000000 0.383250 1.094065
Cu2   Cu    Cu3+1 0.492200 0.000000 0.616750 1.094021
Cu3   Cu    Cu3+1 0.007800 0.500000 0.383250 1.094052
Cu4   Cu    Cu3+1 0.992200 0.500000 0.616750 1.094018
C13   C     C_R   0.400116 0.999890 0.991488 -0.177698
C14   C     C_R   0.599885 0.000017 0.008511 -0.177733
C15   C     C_R   0.900110 0.499969 0.991491 -0.177667
C16   C     C_R   0.099888 0.500068 0.008513 -0.177719
H1    H     H_    0.639519 0.999882 0.165978 0.219807
H2    H     H_    0.360483 0.999863 0.834022 0.219862
H3    H     H_    0.139523 0.500070 0.165979 0.219843
H4    H     H_    0.860475 0.500084 0.834020 0.219858
C17   C     C_R   0.543858 0.000147 0.836323 0.499063
C18   C     C_R   0.456144 0.999938 0.163673 0.499110
C19   C     C_R   0.043856 0.500111 0.836321 0.499028
C20   C     C_R   0.956143 0.499912 0.163673 0.499106
C21   C     C_R   0.657126 0.157989 0.461920 -0.147349
C22   C     C_R   0.342988 0.841895 0.538090 -0.147479
C23   C     C_R   0.343000 0.158115 0.538080 -0.147347
C24   C     C_R   0.656907 0.841781 0.461907 -0.147435
C25   C     C_R   0.157023 0.658100 0.461904 -0.147513
C26   C     C_R   0.842874 0.342019 0.538068 -0.147342
C27   C     C_R   0.843126 0.658251 0.538106 -0.147448
C28   C     C_R   0.157017 0.341902 0.461934 -0.147316
C29   C     C_R   0.219928 0.796021 0.644922 -0.190838
C30   C     C_R   0.780384 0.203596 0.355429 -0.190981
C31   C     C_R   0.779721 0.795580 0.354629 -0.191255
C32   C     C_R   0.220000 0.204069 0.645022 -0.191222
C33   C     C_R   0.719619 0.296410 0.644555 -0.190753
C34   C     C_R   0.280093 0.703964 0.355073 -0.191032
C35   C     C_R   0.280029 0.295971 0.355013 -0.191126
C36   C     C_R   0.720331 0.704480 0.645399 -0.191316
C37   C     C_R   0.281725 0.839887 0.640957 0.331806
C38   C     C_R   0.718574 0.159756 0.359305 0.331424
C39   C     C_R   0.717897 0.839423 0.358668 0.332110
C40   C     C_R   0.281796 0.160200 0.641034 0.331732
C41   C     C_R   0.781391 0.340300 0.640630 0.331434
C42   C     C_R   0.218266 0.660136 0.359007 0.331806
C43   C     C_R   0.218233 0.339840 0.359005 0.331754
C44   C     C_R   0.782150 0.660633 0.641365 0.332113
C45   C     C_R   0.345527 0.793106 0.445040 -0.058941
C46   C     C_R   0.654459 0.206931 0.554804 -0.058581
C47   C     C_R   0.654604 0.793261 0.555242 -0.058955
C48   C     C_R   0.345490 0.206852 0.444965 -0.058712
C49   C     C_R   0.845582 0.293027 0.445232 -0.058680
C50   C     C_R   0.154522 0.706848 0.554993 -0.058835
C51   C     C_R   0.154532 0.293167 0.555051 -0.058684
C52   C     C_R   0.845441 0.706779 0.444775 -0.058967
C53   C     C_R   0.281851 0.749091 0.449682 0.030170
C54   C     C_R   0.718097 0.250985 0.550197 0.030229
C55   C     C_R   0.718311 0.749279 0.550512 0.030070
C56   C     C_R   0.281818 0.250873 0.449647 0.030088
C57   C     C_R   0.781935 0.248983 0.449820 0.030187
C58   C     C_R   0.218189 0.750873 0.550331 0.030207
C59   C     C_R   0.218208 0.249154 0.550375 0.030090
C60   C     C_R   0.781738 0.750769 0.449505 0.030087
N1    N     N_R   0.519530 1.000000 0.207810 -0.261390
N2    N     N_R   0.480470 1.000000 0.792190 -0.261404
N3    N     N_R   0.019530 0.500000 0.207810 -0.261403
N4    N     N_R   0.980470 0.500000 0.792190 -0.261405
H5    H     H_    0.673235 0.298408 0.723851 0.167549
H6    H     H_    0.326294 0.702215 0.275522 0.167673
H7    H     H_    0.326202 0.297697 0.275419 0.167618
H8    H     H_    0.674346 0.703016 0.725251 0.167752
H9    H     H_    0.173713 0.797784 0.724455 0.167652
H10   H     H_    0.826746 0.201633 0.276106 0.167589
H11   H     H_    0.825711 0.797063 0.274788 0.167720
H12   H     H_    0.173834 0.202355 0.724630 0.167650
H13   H     H_    0.342724 0.999841 0.048224 0.229948
H14   H     H_    0.657280 0.999988 0.951774 0.229933
H15   H     H_    0.842711 0.499975 0.048225 0.229944
H16   H     H_    0.157287 0.500073 0.951772 0.229941
C61   C     C_R   0.536417 0.000015 0.960707 -0.098935
C62   C     C_R   0.463585 0.999955 0.039291 -0.098908
C63   C     C_R   0.036415 0.500023 0.960710 -0.098939
C64   C     C_R   0.963581 0.499970 0.039295 -0.098899
N5    N     N_R   0.381595 0.999801 0.242962 0.124298
O17   O     O_R   0.343790 0.059549 0.262203 -0.368440
O18   O     O_R   0.343937 0.939955 0.261695 -0.368549
N6    N     N_R   0.618403 0.000608 0.757039 0.124278
O19   O     O_R   0.656379 0.940968 0.737107 -0.368461
O20   O     O_R   0.655898 0.060553 0.738934 -0.368680
N7    N     N_R   0.881594 0.499679 0.242960 0.124303
O21   O     O_R   0.843732 0.559390 0.262341 -0.368574
O22   O     O_R   0.843997 0.439796 0.261554 -0.368391
N8    N     N_R   0.118402 0.500480 0.757036 0.124267
O23   O     O_R   0.156335 0.440800 0.737242 -0.368270
O24   O     O_R   0.155962 0.560380 0.738797 -0.368821
C65   C     C_2   0.584136 0.213674 0.653905 0.474603
H17   H     H_    0.587128 0.214215 0.745032 0.087527
O25   O     O_2   0.521975 0.218766 0.633727 -0.488049
C66   C     C_2   0.415775 0.786442 0.345775 0.474934
H18   H     H_    0.412700 0.785968 0.254692 0.087375
O26   O     O_2   0.477987 0.781361 0.365780 -0.487976
C67   C     C_2   0.415672 0.213448 0.345568 0.474627
H19   H     H_    0.412498 0.213792 0.254528 0.087012
O27   O     O_2   0.477922 0.218595 0.365434 -0.487829
C68   C     C_2   0.584551 0.786804 0.654911 0.474903
H20   H     H_    0.587873 0.786718 0.745879 0.087010
O28   O     O_2   0.522229 0.781474 0.635354 -0.487687
C69   C     C_2   0.084323 0.713457 0.654350 0.475021
H21   H     H_    0.087462 0.713770 0.745408 0.087713
O29   O     O_2   0.022091 0.718686 0.634457 -0.487889
C70   C     C_2   0.915951 0.286229 0.346224 0.474501
H22   H     H_    0.913024 0.285546 0.255074 0.087186
O30   O     O_2   0.978090 0.281270 0.366516 -0.488119
C71   C     C_2   0.915514 0.713252 0.345146 0.475031
H23   H     H_    0.912218 0.713424 0.254170 0.087183
O31   O     O_2   0.977829 0.718503 0.364745 -0.487776
C72   C     C_2   0.084356 0.286580 0.654467 0.474461
H24   H     H_    0.087540 0.286282 0.745507 0.086801
O32   O     O_2   0.022105 0.281384 0.634613 -0.487803
N9    N     N_R   0.719214 0.118153 0.256544 0.118833
O33   O     O_R   0.776723 0.076470 0.211927 -0.290681
O34   O     O_R   0.675441 0.137362 0.190487 -0.319384
N10   N     N_R   0.281274 0.881254 0.743891 0.118957
O35   O     O_R   0.223724 0.922765 0.789119 -0.290505
O36   O     O_R   0.325329 0.861950 0.809448 -0.319037
N11   N     N_R   0.281391 0.118902 0.744026 0.119065
O37   O     O_R   0.223803 0.077479 0.789493 -0.290482
O38   O     O_R   0.325604 0.138157 0.809363 -0.319174
N12   N     N_R   0.718009 0.880358 0.255412 0.119226
O39   O     O_R   0.775646 0.921520 0.208983 -0.290700
O40   O     O_R   0.673328 0.860989 0.190893 -0.318669
N13   N     N_R   0.218655 0.618862 0.255996 0.119049
O41   O     O_R   0.276254 0.577468 0.210463 -0.290513
O42   O     O_R   0.174442 0.638159 0.190687 -0.318850
N14   N     N_R   0.780649 0.382059 0.743260 0.118708
O43   O     O_R   0.723231 0.423949 0.787350 -0.290592
O44   O     O_R   0.824149 0.362844 0.809745 -0.319629
N15   N     N_R   0.782054 0.619735 0.744655 0.119324
O45   O     O_R   0.724352 0.578690 0.791269 -0.290472
O46   O     O_R   0.826829 0.639075 0.809039 -0.318553
N16   N     N_R   0.218656 0.381180 0.256052 0.118984
O47   O     O_R   0.276194 0.422695 0.210770 -0.290611
O48   O     O_R   0.174539 0.361897 0.190578 -0.319331

loop_
_geom_bond_atom_site_label_1
_geom_bond_atom_site_label_2
_geom_bond_distance
_ccdc_geom_bond_type
O6    Cu4   1.966328 S    
C36   C55   1.400857 A    
C61   C62   1.402508 A    
C17   N6    1.430098 S    
C46   C54   1.412480 A    
O13   Cu4   1.974823 S    
C45   C53   1.412531 A    
N11   O37   1.300536 A    
C43   N16   1.431692 S    
O14   Cu3   1.974823 S    
C14   H14   1.081901 S    
C28   C51   1.413618 A    
C52   C60   1.412533 A    
C47   C55   1.412494 A    
N8    O23   1.301090 A    
C20   C64   1.428540 A    
C67   H19   1.084184 S    
C17   N2    1.385575 A    
N5    O18   1.300874 A    
O11   C3    1.288825 A    
C68   H20   1.084172 S    
C33   H5    1.079895 S    
C16   C63   1.412975 A    
C19   N4    1.385535 A    
N14   O43   1.300541 A    
N11   O38   1.301027 A    
N16   O47   1.300495 A    
C41   N14   1.431528 S    
C65   O25   1.221343 D    
C19   N8    1.430101 S    
C55   C60   1.420601 A    
C67   O27   1.221412 D    
O2    C2    1.299228 A    
C46   C65   1.491328 S    
O6    C6    1.299062 A    
C21   C38   1.411626 A    
N6    O19   1.300900 A    
C71   O31   1.221366 D    
C22   C45   1.413491 A    
C34   C53   1.400811 A    
C35   C43   1.384615 A    
C29   C37   1.384616 A    
C34   C42   1.384709 A    
Cu3   Cu4   2.676816 S    
C17   C61   1.428610 A    
C70   H22   1.084127 S    
C31   C39   1.384662 A    
N15   O46   1.301073 A    
C47   C68   1.491361 S    
O3    C3    1.299012 A    
Cu2   N2    2.011198 S    
C20   N3    1.385588 A    
Cu1   N1    2.011196 S    
O4    Cu1   1.966276 S    
C54   C57   1.420762 A    
O15   C7    1.288809 A    
C49   C70   1.491370 S    
O16   C8    1.288840 A    
C10   C14   1.405393 A    
C50   C58   1.412467 A    
C56   C59   1.420675 A    
C15   H15   1.081950 S    
C18   C62   1.428575 A    
C49   C57   1.412538 A    
C18   N5    1.430160 S    
C52   C71   1.491361 S    
C66   O26   1.221352 D    
N16   O48   1.301032 A    
C36   H8    1.079872 S    
C8    C26   1.468576 S    
C14   C61   1.412906 A    
Cu3   N3    2.011196 S    
C25   C42   1.411763 A    
C22   C37   1.411724 A    
C29   H9    1.079872 S    
C13   C62   1.412916 A    
C71   H23   1.084124 S    
C27   C52   1.413573 A    
N10   O36   1.301003 A    
C15   C64   1.412966 A    
C26   C49   1.413502 A    
C23   C40   1.411818 A    
C24   C39   1.411931 A    
C30   C38   1.384709 A    
C12   H3    1.080395 S    
C11   C15   1.405413 A    
C3    C21   1.468627 S    
C29   C58   1.400804 A    
O3    Cu2   1.966274 S    
C39   N12   1.431868 S    
Cu1   Cu2   2.676816 S    
C9    H2    1.080364 S    
C37   N10   1.431671 S    
N15   O45   1.300516 A    
C11   H4    1.080427 S    
O12   C4    1.288802 A    
C12   N3    1.360262 A    
O1    Cu1   1.966326 S    
O13   C5    1.288780 A    
N7    O22   1.300884 A    
C18   N1    1.385572 A    
C35   H7    1.079898 S    
C34   H6    1.079852 S    
O11   Cu1   1.974771 S    
C28   C43   1.411747 A    
C72   O32   1.221445 D    
O9    Cu2   1.974823 S    
C31   H11   1.079847 S    
C48   C67   1.491339 S    
N12   O40   1.301059 A    
N13   O42   1.301001 A    
C24   C47   1.413559 A    
C44   N15   1.431893 S    
C5    C27   1.469006 S    
C66   H18   1.084139 S    
C32   C59   1.400833 A    
C6    C28   1.468788 S    
C69   H21   1.084196 S    
O9    C1    1.288838 A    
C32   H12   1.079927 S    
C68   O28   1.221386 D    
O7    Cu4   1.966274 S    
N7    O21   1.300789 A    
O12   Cu2   1.974774 S    
C21   C46   1.413466 A    
C25   C50   1.413459 A    
O8    Cu3   1.966276 S    
C33   C54   1.400836 A    
C1    C23   1.468802 S    
C33   C41   1.384607 A    
N10   O35   1.300509 A    
C51   C72   1.491366 S    
C2    C24   1.468983 S    
C35   C56   1.400859 A    
C42   N13   1.431742 S    
N8    O24   1.300719 A    
C16   H16   1.081979 S    
C10   H1    1.080362 S    
O15   Cu3   1.974771 S    
O16   Cu4   1.974774 S    
N5    O17   1.300816 A    
C45   C66   1.491384 S    
O1    C1    1.299098 A    
O2    Cu2   1.966328 S    
C36   C44   1.384630 A    
O14   C6    1.288860 A    
N9    O34   1.300966 A    
C31   C60   1.400865 A    
C48   C56   1.412484 A    
N9    O33   1.300537 A    
O10   Cu1   1.974823 S    
C51   C59   1.412480 A    
C32   C40   1.384624 A    
C53   C58   1.420696 A    
O10   C2    1.288818 A    
C10   N1    1.360246 A    
O7    C7    1.299140 A    
N14   O44   1.300967 A    
C9    N2    1.360227 A    
O8    C8    1.298953 A    
N6    O20   1.300823 A    
C13   H13   1.081859 S    
C27   C44   1.411956 A    
C11   N4    1.360284 A    
C26   C41   1.411566 A    
C19   C63   1.428666 A    
C23   C48   1.413602 A    
C30   H10   1.079851 S    
C7    C25   1.468794 S    
C72   H24   1.084242 S    
O4    C4    1.299108 A    
C20   N7    1.430153 S    
O5    C5    1.299265 A    
C12   C16   1.405389 A    
C70   O30   1.221346 D    
C50   C69   1.491315 S    
C63   C64   1.402547 A    
N12   O39   1.300524 A    
C38   N9    1.431629 S    
O5    Cu3   1.966326 S    
N13   O41   1.300523 A    
C65   H17   1.084189 S    
C40   N11   1.431739 S    
C30   C57   1.400845 A    
C4    C22   1.468761 S    
C9    C13   1.405374 A    
C69   O29   1.221348 D    
Cu4   N4    2.011198 S    
