data_mof_unit_65482.cif
_audit_creation_date              2012-12-10T16:48:42-0500
_audit_creation_method            fapswitch 2.2
_symmetry_space_group_name_H-M    P1
_symmetry_Int_Tables_number       1
_space_group_crystal_system       triclinic
_cell_length_a                    7.860756
_cell_length_b                    8.541418
_cell_length_c                    10.20433
_cell_angle_alpha                 87.660996
_cell_angle_beta                  98.84269
_cell_angle_gamma                 93.62836
_cell_volume                      675.302923549

loop_
_atom_site_label
_atom_site_type_symbol
_atom_type_description
_atom_site_fract_x
_atom_site_fract_y
_atom_site_fract_z
_atom_type_partial_charge
C1    C     C_R   0.548612 0.793084 0.513876 0.855044
C2    C     C_R   0.460311 0.205729 0.519014 0.870753
C3    C     C_R   0.573207 0.491529 0.741198 0.884687
C4    C     C_R   0.431418 0.528938 0.261788 0.851355
C5    C     C_2   0.628104 0.509301 0.885989 -0.007163
C6    C     C_2   0.411306 0.646615 0.150394 -0.024773
C7    C     C_2   0.514737 0.509961 0.972003 0.045508
C8    C     C_2   0.506729 0.651436 0.051122 0.139909
C9    C     C_2   0.579810 0.953091 0.554326 0.081848
C10   C     C_2   0.446242 0.042909 0.559345 0.094444
H1    H     H_    0.982840 0.384605 0.403631 0.226754
H2    H     H_    0.017283 0.614480 0.596976 0.269180
N1    N     N_2   0.940600 0.458860 0.467170 -0.122666
N2    N     N_2   0.059400 0.541140 0.532830 -0.106010
O1    O     O_R   0.391630 0.738350 0.508060 -0.560404
O2    O     O_R   0.608370 0.261650 0.491940 -0.564042
O3    O     O_R   0.674540 0.711990 0.487010 -0.565319
O4    O     O_R   0.325460 0.288010 0.512990 -0.549294
O5    O     O_R   0.411370 0.508250 0.688780 -0.566894
O6    O     O_R   0.588630 0.491750 0.311220 -0.597605
O7    O     O_R   0.694270 0.481880 0.667740 -0.571119
O8    O     O_R   0.305730 0.518120 0.332260 -0.588543
Zn1   Zn    Zn3+2 0.311100 0.517600 0.514050 1.108687
Zn2   Zn    Zn3+2 0.688900 0.482400 0.485950 1.091861
I1    I     I_    0.585024 0.875753 0.969154 -0.170579
I2    I     I_    0.302754 0.341040 0.955159 -0.196179
I3    I     I_    0.271245 0.844887 0.184196 -0.171530
I4    I     I_    0.892545 0.568353 0.954848 -0.197684
S1    S     S_3+6 0.790839 0.016222 0.622481 0.089687
O9    O     O_2   0.877603 0.091135 0.512631 -0.189888
O10   O     O_2   0.787616 0.134986 0.726927 -0.298276
O11   O     O_3   0.896513 0.860729 0.690720 -0.508400
H3    H     H_    0.910848 0.874691 0.787656 0.385912
S2    S     S_3+6 0.255016 0.973493 0.620325 0.103191
O12   O     O_2   0.127810 0.917445 0.504186 -0.194221
O13   O     O_2   0.288424 0.839279 0.719061 -0.297695
O14   O     O_3   0.176439 0.119720 0.694008 -0.454745
H4    H     H_    0.154933 0.075203 0.781428 0.404208

loop_
_geom_bond_atom_site_label_1
_geom_bond_atom_site_label_2
_ccdc_geom_bond_type
N2    Zn1   S    
O5    Zn1   S    
C3    O5    A    
O14   H4    S    
C1    O1    A    
S2    O14   S    
C2    O4    A    
C5    I4    S    
C2    O2    A    
C9    C10   D    
C1    O3    A    
C6    I3    S    
C9    S1    S    
S1    O10   D    
O11   H3    S    
O1    Zn1   S    
C1    C9    S    
C7    C8    S    
O2    Zn2   S    
N1    N2    D    
C8    I1    S    
H1    N1    S    
S1    O9    D    
C7    I2    S    
C4    C6    S    
H2    N2    S    
S1    O11   S    
S2    O13   D    
C3    O7    A    
O3    Zn2   S    
O4    Zn1   S    
C4    O6    A    
C4    O8    A    
C10   S2    S    
S2    O12   D    
O7    Zn2   S    
C5    C7    D    
O8    Zn1   S    
C6    C8    D    
O6    Zn2   S    
N1    Zn2   S    
C3    C5    S    
C2    C10   S    
