data_mof_unit_43882.cif
_audit_creation_date              2013-03-05T16:32:26-0500
_audit_creation_method            fapswitch 2.2
_symmetry_space_group_name_H-M    P1
_symmetry_Int_Tables_number       1
_space_group_crystal_system       triclinic
_cell_length_a                    10.62971
_cell_length_b                    10.82915
_cell_length_c                    9.594745
_cell_angle_alpha                 89.306109
_cell_angle_beta                  89.001251
_cell_angle_gamma                 90.572323
_cell_volume                      1104.15180229

loop_
_atom_site_label
_atom_site_type_symbol
_atom_site_description
_atom_site_fract_x
_atom_site_fract_y
_atom_site_fract_z
_atom_type_partial_charge
O1    O     O_R   0.500000 0.319640 0.618810 -0.553680
O2    O     O_R   0.500010 0.319680 0.381230 -0.600965
C1    C     C_R   0.500971 0.262670 0.500453 0.826817
O3    O     O_R   0.316850 0.499950 0.618770 -0.546878
O4    O     O_R   0.316860 0.499990 0.381190 -0.569711
C2    C     C_R   0.259429 0.500940 0.501022 0.831354
Cu1   Cu    Cu3+1 0.499990 0.499980 0.640670 1.000409
Cu2   Cu    Cu3+1 0.500010 0.500020 0.359330 0.984221
O5    O     O_R   0.499990 0.680320 0.618770 -0.595071
O6    O     O_R   0.500000 0.680360 0.381190 -0.531265
O7    O     O_R   0.683140 0.500010 0.618810 -0.559013
O8    O     O_R   0.683150 0.500050 0.381230 -0.600927
C3    C     C_R   0.496926 0.737320 0.499032 0.836461
C4    C     C_R   0.740586 0.498750 0.499001 0.775051
C5    C     C_3   0.037207 0.520126 0.631056 -0.048034
C6    C     C_3   0.955927 0.409145 0.585125 -0.083429
H1    H     H_    0.917342 0.334277 0.653871 0.159773
H2    H     H_    0.068775 0.539544 0.738103 0.203122
C7    C     C_3   0.877616 0.498101 0.497434 0.001027
C8    C     C_3   0.956669 0.608909 0.543334 -0.202772
C9    C     C_3   0.044127 0.590105 0.415078 -0.138582
C10   C     C_3   0.962968 0.479195 0.369169 -0.149697
C11   C     C_3   0.043440 0.390412 0.456882 -0.189249
C12   C     C_3   0.122443 0.501234 0.502693 -0.012574
H3    H     H_    0.918079 0.698383 0.578646 0.139932
H4    H     H_    0.081908 0.664363 0.345111 0.198125
H5    H     H_    0.933571 0.460506 0.261304 0.158634
H6    H     H_    0.081988 0.300881 0.421710 0.151417
C13   C     C_R   0.567057 0.061290 0.598707 0.090454
C14   C     C_R   0.504528 0.129538 0.497781 -0.125661
C15   C     C_R   0.452988 0.067635 0.384008 -0.269363
H7    H     H_    0.408695 0.119360 0.301119 0.193674
C16   C     C_R   0.447060 0.938615 0.382309 0.326291
C17   C     C_R   0.498229 0.870842 0.495095 -0.205938
C18   C     C_R   0.564031 0.934438 0.596917 0.045483
C19   C     C_3   0.559175 0.923895 0.752202 -0.390369
C20   C     C_3   0.562924 0.064198 0.754346 -0.420824
H8    H     H_    0.468822 0.883779 0.792787 0.231934
H9    H     H_    0.645336 0.880993 0.794493 0.180530
H10   H     H_    0.475194 0.104349 0.797432 0.257603
H11   H     H_    0.651501 0.101447 0.797873 0.170628
C21   C     C_R   0.580616 0.575343 0.070988 0.206306
N1    N     N_R   0.500800 0.500930 0.147930 -0.203721
C22   C     C_R   0.409639 0.439365 0.078359 -0.094832
H12   H     H_    0.338592 0.387728 0.137230 0.174174
C23   C     C_R   0.407312 0.440531 0.930195 0.392664
N2    N     N_R   0.500800 0.500890 0.852020 -0.254994
C24   C     C_R   0.583238 0.571788 0.924516 0.071776
C25   C     C_3   0.725106 0.573650 0.921557 0.334602
C26   C     C_3   0.720526 0.582487 0.079987 -0.528168
H13   H     H_    0.762589 0.659770 0.871312 0.090760
H14   H     H_    0.761464 0.502376 0.134677 0.218483
H15   H     H_    0.752876 0.673679 0.118373 0.168594
N3    N     N_R   0.303169 0.380474 0.866154 0.132999
O9    O     O_R   0.189880 0.405299 0.910175 -0.398404
O10   O     O_R   0.320553 0.278778 0.798594 -0.373474
O11   O     O_3   0.791061 0.468173 0.871847 -0.545199
C27   C     C_3   0.733327 0.352541 0.903512 -0.248323
H16   H     H_    0.665037 0.328609 0.822149 0.194735
H17   H     H_    0.686953 0.346985 0.007831 0.140805
H18   H     H_    0.807071 0.280837 0.901494 0.169913
N4    N     N_R   0.379518 0.879907 0.272468 0.136608
O12   O     O_R   0.290582 0.800073 0.302514 -0.384178
O13   O     O_R   0.391052 0.921764 0.145115 -0.370065

loop_
_geom_bond_atom_site_label_1
_geom_bond_atom_site_label_2
_geom_bond_distance
_ccdc_geom_bond_type
C5    H2    1.107957 S    
C26   H14   1.105353 S    
C11   C12   1.531077 S    
C15   C16   1.398271 A    
C23   N2    1.388000 A    
N4    O12   1.300918 A    
C1    C14   1.443107 S    
C13   C18   1.374074 A    
N4    O13   1.301472 A    
C15   H7    1.084180 S    
Cu2   N1    2.028105 S    
Cu2   O8    1.961668 S    
C14   C15   1.404424 A    
C9    H4    1.108900 S    
C2    C12   1.455967 S    
C23   N3    1.430049 S    
C27   H18   1.108955 S    
C19   H8    1.112338 S    
C16   C17   1.419439 A    
C3    C17   1.445887 S    
C21   C24   1.406151 A    
C9    C10   1.544727 S    
C22   H12   1.082190 S    
Cu1   O7    1.954455 S    
O11   C27   1.416286 S    
C13   C14   1.393075 A    
C21   C26   1.492498 S    
O3    Cu1   1.961668 S    
C5    C6    1.546105 S    
C4    C7    1.456496 S    
O3    C2    1.293408 A    
C24   C25   1.507715 S    
O8    C4    1.293687 A    
O6    C3    1.294582 A    
O2    C1    1.293531 A    
C6    C11   1.546100 S    
C10   H5    1.106706 S    
C6    C7    1.532844 S    
N1    C22   1.359950 A    
C20   H11   1.110786 S    
O4    C2    1.292544 A    
O7    C4    1.292508 A    
N3    O10   1.297822 A    
C26   H15   1.111555 S    
C11   H6    1.110330 S    
C21   N1    1.365386 A    
C27   H17   1.108685 S    
C20   H10   1.108420 S    
N2    C24   1.364528 A    
Cu1   O5    1.961668 S    
Cu1   Cu2   2.699376 S    
C7    C10   1.533133 S    
C25   O11   1.428715 S    
C8    C9    1.545976 S    
Cu2   O6    1.966684 S    
C17   C18   1.395876 A    
C8    H3    1.110374 S    
C9    C12   1.531905 S    
C13   C20   1.493918 S    
C25   C26   1.524226 S    
C25   H13   1.111712 S    
O4    Cu2   1.954456 S    
N3    O9    1.300890 A    
C19   C20   1.519888 S    
O5    C3    1.298641 A    
O1    Cu1   1.966684 S    
C27   H16   1.106541 S    
C10   C11   1.544756 S    
C16   N4    1.436604 S    
C5    C12   1.533138 S    
C5    C8    1.545187 S    
C19   H9    1.111839 S    
O2    Cu2   1.961670 S    
C7    C8    1.531515 S    
C22   C23   1.422146 A    
C6    H1    1.109767 S    
O1    C1    1.298843 A    
C18   C19   1.492867 S    
Cu1   N2    2.028162 S    
