data_mof_unit_44647.cif
_audit_creation_date              2012-12-10T20:45:35-0500
_audit_creation_method            fapswitch 2.2
_symmetry_space_group_name_H-M    P1
_symmetry_Int_Tables_number       1
_space_group_crystal_system       triclinic
_cell_length_a                    10.701734
_cell_length_b                    10.643593
_cell_length_c                    9.850704
_cell_angle_alpha                 90.006317
_cell_angle_beta                  91.602064
_cell_angle_gamma                 89.821054
_cell_volume                      1121.59939704

loop_
_atom_site_label
_atom_site_type_symbol
_atom_type_description
_atom_site_fract_x
_atom_site_fract_y
_atom_site_fract_z
_atom_type_partial_charge
C1    C     C_R   0.505073 0.259768 0.499999 0.880363
C2    C     C_R   0.185274 0.709650 0.013221 0.564023
C3    C     C_R   0.928313 0.571197 0.406870 -0.169231
C4    C     C_R   0.871799 0.502339 0.507763 -0.101186
C5    C     C_R   0.941630 0.434245 0.605763 -0.014568
C6    C     C_R   0.069749 0.439153 0.601087 -0.271768
C7    C     C_R   0.126895 0.503565 0.495757 -0.116710
C8    C     C_R   0.055714 0.565982 0.393361 0.039773
C9    C     C_R   0.838324 0.398723 0.825661 -0.083590
C10   C     C_R   0.780633 0.321390 0.919418 -0.108005
C11   C     C_R   0.771914 0.192521 0.896116 -0.202656
C12   C     C_R   0.259816 0.502111 0.498037 0.875846
C13   C     C_R   0.819809 0.140526 0.778238 -0.150596
C14   C     C_R   0.875943 0.217171 0.681059 0.128732
C15   C     C_R   0.884317 0.348408 0.704950 0.071233
C16   C     C_R   0.541205 0.064025 0.622372 0.147873
C17   C     C_R   0.529525 0.128563 0.499928 -0.098474
C18   C     C_R   0.546217 0.064691 0.377136 -0.244065
C19   C     C_R   0.547443 0.934829 0.377287 -0.240449
C20   C     C_R   0.532769 0.870898 0.500366 -0.101097
C21   C     C_R   0.544779 0.935737 0.622892 0.080239
C22   C     C_3   0.468246 0.927815 0.747102 -0.428306
C23   C     C_R   0.506456 0.740080 0.500082 0.863399
C24   C     C_3   0.461996 0.069726 0.744559 -0.496468
C25   C     C_R   0.456442 0.398464 0.070270 0.201192
C26   C     C_R   0.554818 0.594356 0.073684 -0.114258
C27   C     C_R   0.555345 0.594040 0.929651 -0.109627
C28   C     C_R   0.454098 0.399526 0.927416 0.231001
C29   C     C_3   0.322575 0.353233 0.921499 -0.522813
C30   C     C_3   0.327773 0.348161 0.075304 -0.526548
C31   C     C_R   0.739728 0.498413 0.502314 0.870050
C32   C     C_R   0.234498 0.755647 0.136859 -0.197904
C33   C     C_R   0.193325 0.709502 0.260716 -0.270080
C34   C     C_R   0.105161 0.612384 0.263240 0.006920
C35   C     C_R   0.057388 0.562373 0.139240 0.489991
C36   C     C_R   0.097322 0.610836 0.015980 -0.389987
H1    H     H_    0.727961 0.132707 0.969604 0.129503
H2    H     H_    0.812242 0.040137 0.762006 0.131142
H3    H     H_    0.547584 0.113575 0.280714 0.169020
H4    H     H_    0.548876 0.885876 0.280908 0.163724
H5    H     H_    0.376559 0.882723 0.726806 0.244188
H6    H     H_    0.522570 0.890268 0.836007 0.195233
H7    H     H_    0.366415 0.105787 0.720008 0.195349
H8    H     H_    0.510854 0.114448 0.832954 0.207533
H9    H     H_    0.597138 0.671605 0.129283 0.138221
H10   H     H_    0.303366 0.829990 0.136947 0.159240
H11   H     H_    0.598749 0.670564 0.876595 0.135926
H12   H     H_    0.255888 0.424869 0.880547 0.222786
H13   H     H_    0.313420 0.259138 0.874425 0.192993
H14   H     H_    0.264485 0.415665 0.124143 0.225388
H15   H     H_    0.326071 0.251067 0.116771 0.197361
H16   H     H_    0.229626 0.749959 0.354658 0.162180
H17   H     H_    0.059014 0.570098 0.923415 0.157671
H18   H     H_    0.871944 0.622990 0.332331 0.167279
H19   H     H_    0.124925 0.387333 0.676314 0.155624
H20   H     H_    0.844705 0.498615 0.845604 0.138950
H21   H     H_    0.743306 0.361401 0.010860 0.161636
N1    N     N_R   0.499160 0.499140 0.142800 -0.104289
N2    N     N_R   0.499160 0.499180 0.857150 -0.098102
O1    O     O_R   0.500020 0.316790 0.614690 -0.611962
O2    O     O_R   0.500000 0.316760 0.385350 -0.626263
O3    O     O_R   0.316770 0.500030 0.614670 -0.613666
O4    O     O_R   0.316750 0.499990 0.385330 -0.612247
O5    O     O_R   0.500000 0.683240 0.614650 -0.610901
O6    O     O_R   0.499980 0.683210 0.385310 -0.629929
O7    O     O_R   0.683250 0.500010 0.614670 -0.626131
O8    O     O_R   0.683230 0.499970 0.385330 -0.610787
Zn1   Zn    Zn3+2 0.500010 0.500020 0.653130 0.956892
Zn2   Zn    Zn3+2 0.499990 0.499980 0.346870 0.943956
O9    O     O_3   0.230046 0.761363 0.894195 -0.612062
C37   C     C_3   0.139816 0.760152 0.786677 -0.347648
H22   H     H_    0.046044 0.791233 0.820056 0.154196
H23   H     H_    0.135277 0.665938 0.738885 0.194521
H24   H     H_    0.168699 0.826655 0.707089 0.178408
C38   C     C_3   0.925743 0.156089 0.554566 -0.444205
C39   C     C_3   0.051001 0.090372 0.586331 -0.338651
C40   C     C_3   0.104823 0.031129 0.459433 -0.899676
H25   H     H_    0.039833 0.959097 0.416867 0.263874
H26   H     H_    0.120975 0.104258 0.381425 0.261848
H27   H     H_    0.195578 0.985130 0.486033 0.245100
H28   H     H_    0.119439 0.159291 0.628696 0.218566
H29   H     H_    0.037717 0.015772 0.663416 0.215312
H30   H     H_    0.856475 0.086499 0.514922 0.202455
H31   H     H_    0.937908 0.225928 0.472300 0.214848
O10   O     O_3   0.962193 0.474581 0.137492 -0.616017
C41   C     C_3   0.014221 0.353195 0.149869 -0.334156
H32   H     H_    0.937558 0.285488 0.166314 0.193416
H33   H     H_    0.080153 0.344561 0.238831 0.164365
H34   H     H_    0.060281 0.325880 0.054478 0.185738

loop_
_geom_bond_atom_site_label_1
_geom_bond_atom_site_label_2
_ccdc_geom_bond_type
C31   O7    A    
O7    Zn1   S    
C30   H15   S    
C16   C21   A    
C11   C13   A    
C35   C36   A    
C6    H19   S    
C18   H3    S    
C7    C8    A    
C29   H13   S    
C40   H25   S    
C25   C28   A    
C31   O8    A    
C26   C27   A    
O5    Zn1   S    
C21   C22   S    
C28   C29   S    
C18   C19   A    
C5    C6    A    
C3    H18   S    
C41   H33   S    
C38   H31   S    
C28   N2    A    
C22   H5    S    
C2    C36   A    
C2    C32   A    
C34   C35   A    
C11   H1    S    
C36   H17   S    
C26   H9    S    
C19   C20   A    
C16   C17   A    
O9    C37   S    
C9    C10   A    
C30   H14   S    
C16   C24   S    
C13   C14   A    
C33   C34   A    
C40   H26   S    
C7    C12   S    
C29   H12   S    
O4    Zn2   S    
C10   H21   S    
C39   C40   S    
C3    C8    A    
C10   C11   A    
C1    O1    A    
C39   H29   S    
C37   H23   S    
C12   O4    A    
C41   H32   S    
O10   C41   S    
C33   H16   S    
C38   C39   S    
C29   C30   S    
N2    Zn1   S    
C12   O3    A    
C20   C23   S    
C17   C18   A    
C9    H20   S    
C8    C34   S    
C26   N1    A    
C13   H2    S    
C23   O5    A    
C24   H8    S    
C22   C24   S    
C25   N1    A    
C3    C4    A    
C40   H27   S    
C27   H11   S    
C25   C30   S    
C32   H10   S    
C4    C5    A    
C41   H34   S    
C1    O2    A    
C39   H28   S    
C37   H24   S    
N1    Zn2   S    
C6    C7    A    
C1    C17   S    
O3    Zn1   S    
O2    Zn2   S    
C14   C38   S    
C23   O6    A    
C9    C15   A    
C37   H22   S    
C27   N2    A    
C32   C33   A    
C35   O10   S    
C38   H30   S    
C22   H6    S    
O6    Zn2   S    
C5    C15   S    
C4    C31   S    
C19   H4    S    
C20   C21   A    
O1    Zn1   S    
C24   H7    S    
C14   C15   A    
O8    Zn2   S    
C2    O9    S    
