data_mof_unit_34519.cif
_audit_creation_date              2012-12-10T16:39:34-0500
_audit_creation_method            fapswitch 2.2
_symmetry_space_group_name_H-M    P1
_symmetry_Int_Tables_number       1
_space_group_crystal_system       triclinic
_cell_length_a                    16.88963
_cell_length_b                    16.910331
_cell_length_c                    16.890982
_cell_angle_alpha                 66.493021
_cell_angle_beta                  66.202205
_cell_angle_gamma                 66.229385
_cell_volume                      3875.51892797

loop_
_atom_site_label
_atom_site_type_symbol
_atom_type_description
_atom_site_fract_x
_atom_site_fract_y
_atom_site_fract_z
_atom_type_partial_charge
C1    C     C_R   0.317179 0.992228 0.436676 -0.125808
C2    C     C_R   0.324285 0.461565 0.945451 -0.126631
C3    C     C_R   0.537881 0.418437 0.991005 0.001018
C4    C     C_R   0.029362 0.448571 0.582231 -0.005154
C5    C     C_R   0.024109 0.526647 0.404106 0.002197
C6    C     C_3   0.241023 0.922378 0.242527 -0.188462
C7    C     C_3   0.645625 0.194675 0.703007 -0.277587
C8    C     C_3   0.921599 0.244325 0.242221 -0.191868
C9    C     C_3   0.882712 0.773104 0.779035 -0.250882
C10   C     C_3   0.244394 0.242456 0.918850 -0.185579
C11   C     C_3   0.758837 0.757039 0.076279 -0.170130
C12   C     C_3   0.538118 0.832299 0.810218 -0.283899
C13   C     C_R   0.014297 0.683410 0.551694 -0.113327
C14   C     C_3   0.609918 0.790079 0.288163 -0.287688
C15   C     C_3   0.848120 0.808328 0.501313 -0.279305
C16   C     C_3   0.815614 0.283629 0.655890 -0.325568
C17   C     C_3   0.810778 0.533473 0.824245 -0.318912
C18   C     C_3   0.269814 0.618280 0.792984 -0.313049
C19   C     C_3   0.194559 0.168985 0.450154 -0.291090
C20   C     C_3   0.709064 0.204867 0.389865 -0.291263
C21   C     C_3   0.458879 0.194604 0.163964 -0.287267
C22   C     C_3   0.388093 0.708647 0.204925 -0.293555
C23   C     C_3   0.183728 0.434760 0.182245 -0.307677
C24   C     C_R   0.962058 0.320177 0.457145 -0.116941
C25   C     C_3   0.214316 0.412789 0.711456 -0.288535
C26   C     C_R   0.458363 0.987626 0.448224 -0.049938
C27   C     C_R   0.550883 0.008750 0.541281 -0.047578
C28   C     C_R   0.009245 0.442179 0.450369 -0.048070
C29   C     C_R   0.029995 0.538320 0.540192 -0.049619
C30   C     C_R   0.451169 0.461668 0.980441 -0.049831
C31   C     C_R   0.543570 0.554024 0.003530 -0.049683
C32   C     C_R   0.962448 0.179004 0.438384 0.925584
C33   C     C_R   0.677336 0.044350 0.540789 -0.124358
C34   C     C_R   0.018815 0.824455 0.568457 0.949422
C35   C     C_R   0.179074 0.438718 0.960713 0.924283
C36   C     C_R   0.822560 0.567743 0.024374 0.973595
C37   C     C_R   0.438644 0.961081 0.178826 0.929036
C38   C     C_R   0.568035 0.022838 0.822666 0.953803
C39   C     C_R   0.561784 0.821052 0.037716 0.925396
C40   C     C_R   0.432712 0.178029 0.974033 0.954889
C41   C     C_R   0.031574 0.564493 0.821376 0.951762
C42   C     C_R   0.975724 0.432003 0.177423 0.983214
C43   C     C_R   0.820683 0.037042 0.562134 0.934226
C44   C     C_R   0.005984 0.430221 0.312636 -0.125530
C45   C     C_R   0.177764 0.974211 0.432563 0.956688
C46   C     C_R   0.411708 0.975803 0.402762 -0.074031
C47   C     C_R   0.596196 0.020353 0.588211 -0.072158
C48   C     C_R   0.991663 0.397657 0.406830 -0.081410
C49   C     C_R   0.032174 0.589084 0.587862 -0.071486
C50   C     C_R   0.405377 0.414394 0.969662 -0.075839
C51   C     C_R   0.589902 0.598647 0.017350 -0.076872
C52   C     C_R   0.272943 0.968965 0.395585 -0.229695
C53   C     C_R   0.722454 0.053933 0.590922 -0.212931
C54   C     C_R   0.975068 0.393069 0.271445 -0.231238
C55   C     C_R   0.049399 0.545456 0.672601 -0.132881
C56   C     C_R   0.036049 0.600050 0.726385 -0.232197
C57   C     C_R   0.396728 0.273999 0.967243 -0.231810
C58   C     C_R   0.591426 0.723478 0.054545 -0.186976
C59   C     C_R   0.602833 0.028132 0.726895 -0.252656
C60   C     C_R   0.409278 0.941794 0.276663 -0.189918
C61   C     C_R   0.727862 0.604780 0.027623 -0.228391
C62   C     C_R   0.277562 0.410108 0.939797 -0.196095
C63   C     C_R   0.013872 0.732615 0.604234 -0.227005
C64   C     C_R   0.946864 0.276306 0.409070 -0.174385
C65   C     C_R   0.482198 0.974064 0.726848 0.508501
C66   C     C_R   0.438930 0.319510 0.987853 -0.127667
C67   C     C_R   0.555379 0.936124 0.290704 0.521695
C68   C     C_R   0.994838 0.723361 0.466095 0.506052
C69   C     C_R   0.952294 0.289010 0.552505 0.529177
C70   C     C_R   0.729122 0.486135 0.969209 0.509182
C71   C     C_R   0.291802 0.557729 0.932058 0.523430
C72   C     C_R   0.272449 0.026916 0.513740 0.510615
C73   C     C_R   0.709222 0.058463 0.444935 0.518609
C74   C     C_R   0.516878 0.275996 0.021119 0.504871
C75   C     C_R   0.445732 0.709760 0.057775 0.524188
C76   C     C_R   0.046315 0.502721 0.264888 0.508248
C77   C     C_R   0.541813 0.678309 0.043824 -0.123746
C78   C     C_R   0.072295 0.449063 0.702157 0.520012
C79   C     C_R   0.321436 0.936553 0.319900 0.417066
C80   C     C_R   0.676307 0.062634 0.676864 0.427393
C81   C     C_R   0.939776 0.319788 0.321866 0.413377
C82   C     C_R   0.008983 0.693202 0.694075 0.407620
C83   C     C_R   0.321052 0.321971 0.935170 0.414849
C84   C     C_R   0.678963 0.680169 0.060327 0.406296
C85   C     C_R   0.674819 0.025942 0.404367 -0.018792
C86   C     C_R   0.321695 0.010709 0.571167 0.010212
C87   C     C_R   0.046335 0.404395 0.666057 0.003056
C88   C     C_R   0.561000 0.005676 0.682721 -0.119865
C89   C     C_R   0.036913 0.560123 0.311163 0.011983
C90   C     C_R   0.405880 0.676373 0.023249 -0.006325
C91   C     C_R   0.574425 0.325815 0.003136 0.007597
C92   C     C_R   0.595714 0.969058 0.324932 -0.003647
C93   C     C_R   0.425693 0.990317 0.676555 0.007801
C94   C     C_R   0.327023 0.598101 0.964212 0.001932
C95   C     C_R   0.679296 0.429947 0.983490 0.006210
C96   C     C_R   0.990913 0.321936 0.588886 -0.024544
C97   C     C_R   0.018182 0.669162 0.410782 0.003243
C98   C     C_R   0.719425 0.014302 0.317337 -0.182141
C99   C     C_R   0.459348 0.950469 0.322495 -0.123655
C100  C     C_R   0.280517 0.010802 0.662047 -0.182145
C101  C     C_R   0.037647 0.316808 0.710706 -0.175160
C102  C     C_R   0.041564 0.649029 0.267188 -0.187253
C103  C     C_R   0.318499 0.720372 0.012706 -0.175117
C104  C     C_R   0.665602 0.285236 0.002356 -0.189618
C105  C     C_R   0.682775 0.980396 0.280502 -0.171143
C106  C     C_R   0.333880 0.993350 0.716271 -0.188727
C107  C     C_R   0.281846 0.684183 0.978082 -0.169721
C108  C     C_R   0.719557 0.338664 0.985262 -0.198525
C109  C     C_R   0.004993 0.278124 0.674809 -0.182048
C110  C     C_R   0.684376 0.563990 0.002716 -0.117031
C111  C     C_R   0.025364 0.705232 0.318069 -0.191030
C112  C     C_R   0.548632 0.988196 0.407790 -0.006991
C113  C     C_R   0.463566 0.999763 0.584223 0.000387
C114  C     C_R   0.010713 0.403609 0.540202 -0.004861
C115  C     C_R   0.025714 0.577763 0.451268 0.000347
C116  C     C_R   0.410494 0.551627 0.981846 -0.006425
C117  C     C_R   0.586968 0.467443 0.992881 0.003105
C118  C     C_R   0.591872 0.007245 0.451232 -0.003671
C119  C     C_R   0.414593 0.998564 0.534824 0.001735
C120  C     C_R   0.453498 0.594594 0.002165 -0.007897
H1    H     H_    0.302558 0.987548 0.787574 0.164573
H2    H     H_    0.280238 0.784426 0.027390 0.167693
H3    H     H_    0.050759 0.676752 0.195211 0.168190
H4    H     H_    0.050046 0.280947 0.775836 0.165974
H5    H     H_    0.276866 0.899470 0.180866 0.212899
H6    H     H_    0.221755 0.997396 0.223373 0.135185
H7    H     H_    0.178728 0.900650 0.272528 0.171026
H8    H     H_    0.572992 0.199846 0.720108 0.138613
H9    H     H_    0.667649 0.237483 0.633220 0.150735
H10   H     H_    0.648652 0.221931 0.751082 0.174247
H11   H     H_    0.996961 0.224116 0.221614 0.134656
H12   H     H_    0.720475 0.967322 0.215586 0.168836
H13   H     H_    0.898218 0.275199 0.180971 0.171224
H14   H     H_    0.898318 0.183227 0.277813 0.213906
H15   H     H_    0.856793 0.713514 0.818889 0.121958
H16   H     H_    0.854242 0.812680 0.720951 0.123329
H17   H     H_    0.858297 0.816881 0.823512 0.182415
H18   H     H_    0.183775 0.278953 0.894540 0.215855
H19   H     H_    0.223554 0.223620 0.994016 0.136178
H20   H     H_    0.274583 0.180075 0.897134 0.170571
H21   H     H_    0.723096 0.818291 0.099713 0.213883
H22   H     H_    0.778533 0.776643 0.001131 0.136806
H23   H     H_    0.021267 0.775757 0.284719 0.165599
H24   H     H_    0.820778 0.726839 0.098600 0.168662
H25   H     H_    0.601224 0.838953 0.809604 0.137694
H26   H     H_    0.550861 0.808747 0.752038 0.140438
H27   H     H_    0.517979 0.779381 0.872015 0.187506
H28   H     H_    0.554746 0.775383 0.281612 0.183744
H29   H     H_    0.602755 0.775471 0.360892 0.137035
H30   H     H_    0.674861 0.742835 0.261666 0.219248
H31   H     H_    0.842004 0.803978 0.570863 0.138232
H32   H     H_    0.827583 0.753036 0.502152 0.144948
H33   H     H_    0.800064 0.872527 0.475873 0.190120
H34   H     H_    0.992511 0.213398 0.713300 0.177951
H35   H     H_    0.770490 0.317864 0.611635 0.162731
H36   H     H_    0.821004 0.334284 0.678547 0.147594
H37   H     H_    0.784882 0.236912 0.717847 0.210581
H38   H     H_    0.792725 0.604050 0.825215 0.134846
H39   H     H_    0.762278 0.526346 0.800073 0.152287
H40   H     H_    0.878148 0.518360 0.774989 0.195383
H41   H     H_    0.286555 0.552450 0.781239 0.148213
H42   H     H_    0.331261 0.641514 0.765284 0.154721
H43   H     H_    0.221022 0.667994 0.755208 0.205961
H44   H     H_    0.190678 0.159936 0.390298 0.137627
H45   H     H_    0.790947 0.307656 0.979304 0.166281
H46   H     H_    0.256746 0.188061 0.432986 0.140572
H47   H     H_    0.136666 0.226249 0.468157 0.188263
H48   H     H_    0.638093 0.219173 0.391082 0.141002
H49   H     H_    0.738346 0.252150 0.327302 0.218909
H50   H     H_    0.709432 0.219749 0.448100 0.174124
H51   H     H_    0.395514 0.197939 0.155597 0.135103
H52   H     H_    0.447632 0.251789 0.188124 0.143463
H53   H     H_    0.476795 0.131755 0.217151 0.189132
H54   H     H_    0.446137 0.707796 0.220970 0.180660
H55   H     H_    0.388515 0.638370 0.218018 0.142791
H56   H     H_    0.216302 0.721463 0.966666 0.176337
H57   H     H_    0.325055 0.738159 0.252205 0.219080
H58   H     H_    0.170704 0.375482 0.181991 0.138976
H59   H     H_    0.207571 0.417815 0.241358 0.140830
H60   H     H_    0.239626 0.450700 0.121512 0.193002
H61   H     H_    0.232330 0.431190 0.636389 0.135007
H62   H     H_    0.266860 0.349903 0.731013 0.228945
H63   H     H_    0.217815 0.465875 0.731819 0.162689
H64   H     H_    0.208639 0.019065 0.692075 0.168365
H65   H     H_    0.784441 0.026985 0.279868 0.170907
H66   H     H_    0.695974 0.213616 0.010232 0.169769
O1    O     O_R   0.982940 0.138950 0.510160 -0.555090
O2    O     O_R   0.982940 0.510160 0.138950 -0.587237
O3    O     O_R   0.861050 0.017060 0.489840 -0.588390
O4    O     O_R   0.138950 0.982940 0.510160 -0.585488
O5    O     O_R   0.867700 0.025880 0.612340 -0.579842
O6    O     O_R   0.132300 0.974120 0.387660 -0.644554
O7    O     O_R   0.025880 0.612340 0.867700 -0.569468
O8    O     O_R   0.974120 0.387660 0.132300 -0.647998
O9    O     O_R   0.612340 0.867700 0.025880 -0.649057
O10   O     O_R   0.387660 0.132300 0.974120 -0.643650
O11   O     O_R   0.387660 0.974120 0.132300 -0.650684
O12   O     O_R   0.017060 0.861050 0.489840 -0.588259
O13   O     O_R   0.612340 0.025880 0.867700 -0.591921
O14   O     O_R   0.132300 0.387660 0.974120 -0.654127
O15   O     O_R   0.867700 0.612340 0.025880 -0.642166
O16   O     O_R   0.974120 0.132300 0.387660 -0.654723
O17   O     O_R   0.025880 0.867700 0.612340 -0.584102
O18   O     O_3   0.293977 0.878037 0.303715 -0.621369
O19   O     O_3   0.703491 0.105416 0.711971 -0.565938
O20   O     O_3   0.879075 0.304912 0.296148 -0.618081
O21   O     O_3   0.978166 0.747206 0.750723 -0.562782
O22   O     O_3   0.306696 0.294038 0.875846 -0.630230
O23   O     O_R   0.138950 0.510160 0.982940 -0.548187
O24   O     O_3   0.705680 0.696035 0.119720 -0.622940
O25   O     O_3   0.467729 0.913720 0.812101 -0.584716
O26   O     O_3   0.611970 0.879316 0.237015 -0.617909
O27   O     O_3   0.936144 0.808611 0.443575 -0.587965
O28   O     O_3   0.899509 0.232476 0.611524 -0.574691
O29   O     O_3   0.815254 0.472308 0.909610 -0.583851
O30   O     O_3   0.229014 0.613985 0.885153 -0.586703
O31   O     O_3   0.188811 0.091190 0.524222 -0.582654
O32   O     O_3   0.762187 0.115590 0.388696 -0.611355
O33   O     O_3   0.530461 0.191778 0.083389 -0.582685
O34   O     O_R   0.861050 0.489840 0.017060 -0.582465
O35   O     O_3   0.388592 0.762213 0.115652 -0.614104
O36   O     O_3   0.106467 0.510298 0.179054 -0.582073
O37   O     O_3   0.128626 0.397126 0.756704 -0.614936
O38   O     O_R   0.510160 0.982940 0.138950 -0.570952
O39   O     O_R   0.489840 0.017060 0.861050 -0.585699
O40   O     O_R   0.489840 0.861050 0.017060 -0.569014
O41   O     O_R   0.510160 0.138950 0.982940 -0.576671
O42   O     O_R   0.017060 0.489840 0.861050 -0.576603
Zn1   Zn    Zn3+2 0.004880 0.004880 0.583590 1.070731
Zn2   Zn    Zn3+2 0.995120 0.995120 0.416410 0.968235
Zn3   Zn    Zn3+2 0.004880 0.583590 0.004880 1.027263
Zn4   Zn    Zn3+2 0.995120 0.416410 0.995120 0.963252
Zn5   Zn    Zn3+2 0.583590 0.004880 0.004880 1.008003
Zn6   Zn    Zn3+2 0.416410 0.995120 0.995120 0.966372

loop_
_geom_bond_atom_site_label_1
_geom_bond_atom_site_label_2
_ccdc_geom_bond_type
C78   C87   A    
C74   C91   A    
C20   H50   S    
C62   C83   A    
C60   C79   A    
C26   C112  A    
C89   C102  A    
C104  H66   S    
O42   Zn4   S    
C57   C66   A    
C46   C99   A    
C69   C96   A    
C36   O34   A    
C15   H31   S    
C22   H55   S    
C35   O23   A    
C71   C94   A    
C30   C116  A    
C95   C117  A    
O6    Zn2   S    
C72   O31   S    
C98   C105  A    
C10   H20   S    
O39   Zn6   S    
C12   H27   S    
C4    C114  A    
C24   C69   A    
C6    H7    S    
C98   H65   S    
O13   Zn5   S    
C11   O24   S    
C97   C111  A    
C18   H41   S    
C84   O24   S    
C1    C46   A    
C107  H56   S    
C101  C109  A    
C71   O30   S    
C66   C74   A    
C14   H28   S    
C7    O19   S    
C106  H1    S    
C3    C91   A    
O23   Zn3   S    
C12   H26   S    
C42   O8    A    
C17   H40   S    
C10   O22   S    
C59   C88   A    
C31   C117  A    
C39   O40   A    
C41   O7    A    
C85   C98   A    
C70   C110  A    
C58   C77   A    
C87   C101  A    
C9    H17   S    
C43   C53   S    
O3    Zn2   S    
C23   H58   S    
C74   O33   S    
C16   H36   S    
C57   C83   A    
C86   C119  A    
C19   O31   S    
C19   H46   S    
C37   O11   A    
C7    H8    S    
C97   C115  A    
O2    Zn3   S    
C2    C50   A    
C11   H24   S    
C91   C104  A    
C23   H59   S    
C4    C29   A    
C75   C90   A    
C111  H23   S    
C76   C89   A    
O16   Zn2   S    
C60   C99   A    
C65   C93   A    
C20   H49   S    
C29   C115  A    
C41   O42   A    
C43   O5    A    
C24   C64   A    
C113  C119  A    
C5    C115  A    
C96   C114  A    
C102  C111  A    
C19   H47   S    
C16   H35   S    
C22   H57   S    
C20   H48   S    
C61   C110  A    
C7    H9    S    
C82   O21   S    
C22   H54   S    
C25   H61   S    
C35   O14   A    
C105  H12   S    
C33   C53   A    
O41   Zn5   S    
C22   O35   S    
C94   C107  A    
C101  H4    S    
C15   H33   S    
C30   C50   A    
O34   Zn4   S    
C63   C82   A    
C8    H14   S    
C24   C48   A    
O8    Zn4   S    
C53   C80   A    
C26   C119  A    
C32   C64   S    
C9    O21   S    
C4    C87   A    
C55   C78   A    
C94   C116  A    
C92   C112  A    
C29   C49   A    
C12   O25   S    
C45   C52   S    
C76   O36   S    
C49   C55   A    
C39   C58   S    
C39   O9    A    
C116  C120  A    
C90   C120  A    
C12   H25   S    
C3    C30   A    
C16   O28   S    
O38   Zn5   S    
C51   C77   A    
C41   C56   S    
C6    O18   S    
C83   O22   S    
C17   H38   S    
C58   C84   A    
C93   C106  A    
C5    C28   A    
C11   H21   S    
C18   H43   S    
C34   O12   A    
C45   O6    A    
C13   C63   A    
C23   O36   S    
C34   O17   A    
O5    Zn1   S    
C73   C85   A    
C90   C103  A    
C14   H30   S    
C8    H11   S    
C68   C97   A    
C67   O26   S    
C93   C113  A    
C75   O35   S    
C8    O20   S    
C109  H34   S    
C75   C77   A    
C6    H6    S    
C23   H60   S    
C1    C72   A    
C28   C114  A    
C3    C117  A    
C38   O39   A    
C68   O27   S    
C9    H15   S    
C33   C73   A    
C37   O38   A    
C51   C110  A    
C21   H53   S    
C7    H10   S    
C21   O33   S    
C33   C47   A    
C13   C49   A    
C11   H22   S    
C36   O15   A    
C70   O29   S    
C102  H3    S    
C52   C79   A    
C27   C113  A    
C64   C81   A    
C104  C108  A    
C86   C100  A    
C25   H62   S    
C65   C88   A    
O17   Zn1   S    
C40   O10   A    
C27   C118  A    
C42   O2    A    
C28   C48   A    
C40   C57   S    
C32   O1    A    
C16   H37   S    
C67   C92   A    
C20   O32   S    
C18   O30   S    
C69   O28   S    
C6    H5    S    
C31   C51   A    
C61   C84   A    
C25   H63   S    
C59   C80   A    
C72   C86   A    
O11   Zn6   S    
O12   Zn2   S    
C56   C82   A    
C36   C61   S    
C15   O27   S    
C67   C99   A    
C21   H52   S    
C50   C66   A    
C96   C109  A    
C78   O37   S    
C100  C106  A    
C27   C47   A    
O40   Zn6   S    
C14   O26   S    
O4    Zn1   S    
C47   C88   A    
C40   O41   A    
C70   C95   A    
C8    H13   S    
C44   C48   A    
C21   H51   S    
C42   C54   S    
C112  C118  A    
C18   H42   S    
C108  H45   S    
C15   H32   S    
C45   O4    A    
C14   H29   S    
C34   C63   S    
C73   O32   S    
C25   O37   S    
C35   C62   S    
C19   H44   S    
C32   O16   A    
C85   C118  A    
C100  H64   S    
C1    C52   A    
C80   O19   S    
C31   C120  A    
C65   O25   S    
C37   C60   S    
C17   H39   S    
C95   C108  A    
C26   C46   A    
C55   C56   A    
C38   C59   S    
O1    Zn1   S    
C9    H16   S    
C44   C54   A    
C92   C105  A    
O15   Zn3   S    
O14   Zn4   S    
C43   O3    A    
O10   Zn6   S    
C79   O18   S    
C10   H19   S    
O7    Zn3   S    
C38   O13   A    
O9    Zn5   S    
C103  C107  A    
C10   H18   S    
C44   C76   A    
C17   O29   S    
C103  H2    S    
C2    C62   A    
C54   C81   A    
C5    C89   A    
C2    C71   A    
C81   O20   S    
C13   C68   A    
