data_mof_unit_61395.cif
_audit_creation_date              2012-12-10T21:03:00-0500
_audit_creation_method            fapswitch 2.2
_symmetry_space_group_name_H-M    P1
_symmetry_Int_Tables_number       1
_space_group_crystal_system       triclinic
_cell_length_a                    15.846486
_cell_length_b                    15.08322
_cell_length_c                    19.290606
_cell_angle_alpha                 90.304821
_cell_angle_beta                  89.986539
_cell_angle_gamma                 90.000952
_cell_volume                      4610.6987718

loop_
_atom_site_label
_atom_site_type_symbol
_atom_type_description
_atom_site_fract_x
_atom_site_fract_y
_atom_site_fract_z
_atom_type_partial_charge
C1    C     C_R   0.338962 0.499999 0.500027 0.984859
C2    C     C_R   0.661039 0.500001 0.499973 0.862287
C3    C     C_1   0.824086 0.499993 0.499643 0.065197
C4    C     C_1   0.175918 0.499988 0.499731 0.083835
C5    C     C_1   0.250722 0.499994 0.499888 -0.074633
C6    C     C_1   0.749280 0.499998 0.499804 -0.135459
C7    C     C_R   0.422732 0.952556 0.499673 -0.025498
C8    C     C_R   0.577276 0.047443 0.500352 -0.020908
C9    C     C_R   0.577275 0.952559 0.500319 -0.019751
C10   C     C_R   0.422732 0.047437 0.499872 -0.024796
C11   C     C_R   0.499994 0.905102 0.501378 -0.131353
C12   C     C_R   0.500011 0.094896 0.498711 -0.129454
C13   C     C_1   0.499999 0.806932 0.500516 0.050987
C14   C     C_1   0.500006 0.193067 0.499524 0.036564
C15   C     C_R   0.500559 0.499703 0.365384 0.895244
C16   C     C_R   0.500171 0.500312 0.634679 0.904848
C17   C     C_R   0.452557 0.557640 0.251501 -0.056105
C18   C     C_R   0.455102 0.436595 0.747352 -0.065811
C19   C     C_R   0.557917 0.559012 0.745521 -0.062019
C20   C     C_R   0.558322 0.437808 0.255880 -0.113985
C21   C     C_R   0.458838 0.558629 0.178791 -0.087506
C22   C     C_R   0.466985 0.428253 0.819296 -0.068894
C23   C     C_R   0.565619 0.554550 0.817875 -0.050219
C24   C     C_R   0.559210 0.433811 0.183100 -0.026859
C25   C     C_R   0.511039 0.495692 0.144984 -0.044371
C26   C     C_R   0.520725 0.488565 0.854282 -0.065809
C27   C     C_R   0.503709 0.498490 0.289693 -0.153814
C28   C     C_R   0.502430 0.500538 0.710457 -0.151489
C29   C     C_R   0.519452 0.490348 0.929934 0.258620
C30   C     C_R   0.514338 0.494119 0.069299 0.317673
C31   C     C_R   0.955936 0.581371 0.497928 0.120370
C32   C     C_R   0.044073 0.418597 0.501121 0.130639
C33   C     C_R   0.044081 0.581366 0.497868 0.130817
C34   C     C_R   0.955927 0.418595 0.501000 0.120919
C35   C     C_R   0.913062 0.499985 0.499489 -0.067478
C36   C     C_R   0.086945 0.499982 0.499549 -0.069992
N1    N     N_R   0.589439 0.490737 0.035744 -0.150293
N2    N     N_R   0.444474 0.494107 0.963516 -0.115754
N3    N     N_R   0.591904 0.487851 0.967017 -0.172331
N4    N     N_R   0.441909 0.495094 0.032150 -0.121613
N5    N     N_1   0.500000 0.270550 0.500000 -0.077019
N6    N     N_1   0.500000 0.729450 0.500000 -0.067532
O1    O     O_R   0.378020 0.573650 0.500020 -0.593463
O2    O     O_R   0.621980 0.426350 0.499980 -0.614961
O3    O     O_R   0.621980 0.573650 0.499980 -0.606220
O4    O     O_R   0.378020 0.426350 0.500020 -0.593005
O5    O     O_R   0.499990 0.573690 0.398140 -0.610330
O6    O     O_R   0.500010 0.426310 0.601860 -0.616974
O7    O     O_R   0.500010 0.573690 0.601860 -0.569643
O8    O     O_R   0.499990 0.426310 0.398140 -0.606986
Zn1   Zn    Zn3+2 0.500000 0.598370 0.500000 1.048548
Zn2   Zn    Zn3+2 0.500000 0.401630 0.500000 1.027830
C37   C     C_2   0.393119 0.619352 0.287146 0.539746
H1    H     H_    0.389855 0.688380 0.271838 0.090609
O9    O     O_2   0.345510 0.592795 0.332290 -0.549442
C38   C     C_2   0.393937 0.377577 0.710893 0.544608
H2    H     H_    0.391446 0.307416 0.722816 0.094658
O10   O     O_2   0.344495 0.407473 0.668455 -0.550953
C39   C     C_2   0.614081 0.620035 0.706771 0.515319
H3    H     H_    0.681206 0.606355 0.703894 0.035958
O11   O     O_2   0.586196 0.687834 0.681170 -0.490660
C40   C     C_2   0.615612 0.380154 0.297383 0.413349
H4    H     H_    0.648519 0.407496 0.341977 0.067058
O12   O     O_2   0.623839 0.301414 0.283995 -0.533302
C41   C     C_2   0.412297 0.626049 0.137266 0.407718
H5    H     H_    0.442587 0.656523 0.092901 0.090486
O13   O     O_2   0.339151 0.645391 0.150290 -0.512877
C42   C     C_2   0.423671 0.357028 0.859402 0.415810
H6    H     H_    0.456170 0.325585 0.902272 0.109231
O14   O     O_2   0.350716 0.335923 0.847415 -0.518540
C43   C     C_2   0.617916 0.621533 0.855520 0.410344
H7    H     H_    0.659510 0.602093 0.897219 0.094746
O15   O     O_2   0.614374 0.699928 0.840305 -0.492094
C44   C     C_2   0.611282 0.365186 0.147354 0.534783
H8    H     H_    0.675208 0.352012 0.164596 0.088981
O16   O     O_2   0.582142 0.320949 0.099862 -0.519263
I1    I     I_    0.113673 0.703196 0.495252 -0.140134
I2    I     I_    0.886341 0.296741 0.503078 -0.174788
I3    I     I_    0.886363 0.703228 0.495788 -0.175771
I4    I     I_    0.113653 0.296763 0.503756 -0.140734
C45   C     C_2   0.342590 0.098785 0.504769 0.530838
H9    H     H_    0.336644 0.162064 0.478704 0.071148
O17   O     O_2   0.284044 0.073178 0.540622 -0.485563
C46   C     C_2   0.657422 0.901181 0.495738 0.527280
H10   H     H_    0.663301 0.838080 0.522080 0.080149
O18   O     O_2   0.716044 0.926544 0.459859 -0.489028
C47   C     C_2   0.657369 0.098824 0.505536 0.530117
H11   H     H_    0.663558 0.161929 0.479245 0.075266
O19   O     O_2   0.715570 0.073457 0.541847 -0.487765
C48   C     C_2   0.342647 0.901202 0.494213 0.529912
H12   H     H_    0.336414 0.837922 0.520235 0.072961
O20   O     O_2   0.284496 0.926805 0.457951 -0.487072

loop_
_geom_bond_atom_site_label_1
_geom_bond_atom_site_label_2
_ccdc_geom_bond_type
C16   C28   S    
C7    C10   A    
C47   H11   S    
C4    C36   S    
C15   O5    A    
C3    C6    T    
O1    Zn1   S    
C16   O6    A    
C45   H9    S    
C37   H1    S    
C7    C11   A    
C44   O16   D    
C1    C5    S    
C32   C36   A    
C46   O18   D    
C1    O4    A    
C23   C26   A    
C41   O13   D    
O3    Zn1   S    
C16   O7    A    
O4    Zn2   S    
C33   C36   A    
C38   H2    S    
C34   C35   A    
C15   O8    A    
C40   O12   D    
C48   O20   D    
C1    O1    A    
C20   C24   A    
C2    O2    A    
C8    C9    A    
O7    Zn1   S    
C29   N2    A    
O8    Zn2   S    
C31   C33   A    
N5    Zn2   S    
C18   C38   S    
N6    Zn1   S    
O2    Zn2   S    
C39   H3    S    
C2    C6    S    
C13   N6    T    
C45   O17   D    
C37   O9    D    
C2    O3    A    
C39   O11   D    
C44   H8    S    
C17   C27   A    
C23   C43   S    
C18   C28   A    
C24   C25   A    
C43   O15   D    
C42   H6    S    
O5    Zn1   S    
C19   C39   S    
C7    C48   S    
C17   C21   A    
C30   N1    A    
C32   C34   A    
C19   C23   A    
C40   H4    S    
C32   I4    S    
C15   C27   S    
C3    C35   S    
C8    C12   A    
C29   N3    A    
C30   N4    A    
C46   H10   S    
C19   C28   A    
C9    C11   A    
C22   C42   S    
C10   C12   A    
C14   N5    T    
C12   C14   S    
C47   O19   D    
C31   C35   A    
C17   C37   S    
C25   C30   S    
C21   C25   A    
C21   C41   S    
C18   C22   A    
C4    C5    T    
C24   C44   S    
C31   I3    S    
C20   C27   A    
C10   C45   S    
C8    C47   S    
C43   H7    S    
N1    N3    A    
C34   I2    S    
N2    N4    A    
C11   C13   S    
C33   I1    S    
C48   H12   S    
C38   O10   D    
C20   C40   S    
C9    C46   S    
O6    Zn2   S    
C26   C29   S    
C42   O14   D    
C41   H5    S    
C22   C26   A    
