data_mof_unit_55496.cif
_audit_creation_date              2012-12-10T17:36:35-0500
_audit_creation_method            fapswitch 2.2
_symmetry_space_group_name_H-M    P1
_symmetry_Int_Tables_number       1
_space_group_crystal_system       triclinic
_cell_length_a                    12.030178
_cell_length_b                    12.834048
_cell_length_c                    15.72921
_cell_angle_alpha                 90.166742
_cell_angle_beta                  87.066552
_cell_angle_gamma                 93.675937
_cell_volume                      2420.35304665

loop_
_atom_site_label
_atom_site_type_symbol
_atom_type_description
_atom_site_fract_x
_atom_site_fract_y
_atom_site_fract_z
_atom_type_partial_charge
C1    C     C_R   0.522376 0.700204 0.498717 1.013663
C2    C     C_R   0.540312 0.024831 0.526502 -0.365005
C3    C     C_R   0.953848 0.410257 0.414314 0.358707
C4    C     C_R   0.047694 0.602171 0.576577 0.342742
C5    C     C_R   0.836672 0.414292 0.425646 0.362639
C6    C     C_R   0.163942 0.588805 0.572110 0.377915
C7    C     C_R   0.858631 0.541272 0.534922 0.735607
C8    C     C_R   0.141319 0.459585 0.464703 0.740452
C9    C     C_R   0.976317 0.536702 0.528278 -0.360610
C10   C     C_R   0.024046 0.467238 0.469275 -0.358805
C11   C     C_R   0.500965 0.499391 0.661861 0.882343
C12   C     C_R   0.477543 0.299824 0.501825 1.006562
C13   C     C_R   0.498824 0.498884 0.338063 0.884449
C14   C     C_3   0.477956 0.585414 0.028381 0.416833
C15   C     C_3   0.520001 0.392319 0.970758 0.416870
C16   C     C_3   0.580257 0.558378 0.971818 0.265859
C17   C     C_3   0.417583 0.419194 0.027637 0.269962
C18   C     C_1   0.503203 0.495806 0.750444 -0.128500
C19   C     C_1   0.495587 0.494253 0.249376 -0.104322
C20   C     C_3   0.401073 0.515963 0.973326 0.255481
C21   C     C_3   0.596827 0.461562 0.026104 0.253963
C22   C     C_3   0.503343 0.489445 0.916215 -0.222268
C23   C     C_R   0.621489 0.966897 0.562199 0.661578
C24   C     C_3   0.494335 0.488288 0.083370 -0.225447
C25   C     C_1   0.504505 0.492486 0.825499 0.194281
C26   C     C_1   0.493540 0.490433 0.174250 0.188136
C27   C     C_R   0.462645 0.188535 0.500081 -0.463535
C28   C     C_R   0.536751 0.811535 0.501069 -0.443400
C29   C     C_3   0.716885 0.687003 0.998572 0.157124
C30   C     C_3   0.822915 0.742954 0.960226 -0.794861
C31   C     C_3   0.293085 0.281521 0.997875 0.194253
C32   C     C_3   0.181007 0.228436 0.026625 -0.843498
C33   C     C_3   0.773589 0.406357 0.997495 0.187580
C34   C     C_R   0.378215 0.033261 0.438701 0.671778
C35   C     C_3   0.882960 0.386785 0.037004 -0.881925
C36   C     C_3   0.225295 0.573701 0.001609 0.169422
C37   C     C_3   0.113059 0.585832 0.963712 -0.891538
C38   C     C_3   0.223324 0.635899 0.704271 0.122952
C39   C     C_3   0.308681 0.706218 0.749058 -0.739850
C40   C     C_3   0.766201 0.252532 0.384976 0.144670
C41   C     C_3   0.679829 0.197001 0.330432 -0.770765
C42   C     C_3   0.010478 0.416176 0.274653 0.137229
C43   C     C_3   0.077136 0.360830 0.205724 -0.694681
C44   C     C_3   0.012714 0.773999 0.581455 0.165013
C45   C     C_R   0.619342 0.860203 0.549530 0.443703
C46   C     C_3   0.974785 0.861196 0.639549 -0.629941
C47   C     C_R   0.380657 0.139967 0.450987 0.459751
C48   C     C_R   0.459143 0.868566 0.461672 0.647976
C49   C     C_R   0.539433 0.131416 0.540293 0.617970
C50   C     C_R   0.458871 0.975251 0.474951 -0.376535
F1    F     F_    0.456760 0.682896 0.060667 -0.654496
F2    F     F_    0.809327 0.605519 0.591900 -0.559330
F3    F     F_    0.542242 0.295471 0.937663 -0.655140
F4    F     F_    0.613878 0.180845 0.591597 -0.591686
F5    F     F_    0.383343 0.818992 0.411544 -0.582162
F6    F     F_    0.306934 0.196414 0.411188 -0.551376
F7    F     F_    0.693876 0.803778 0.588383 -0.588213
F8    F     F_    0.701512 0.012329 0.610554 -0.572472
F9    F     F_    0.298708 0.987949 0.389819 -0.554041
F10   F     F_    0.190143 0.392288 0.410064 -0.557950
H1    H     H_    0.740580 0.637385 0.051861 0.158609
H2    H     H_    0.187015 0.189585 0.089078 0.287473
H3    H     H_    0.790116 0.469563 0.949361 0.171761
H4    H     H_    0.743679 0.333264 0.965511 0.215965
H5    H     H_    0.869889 0.322843 0.084603 0.275258
H6    H     H_    0.944803 0.364025 0.986684 0.214889
H7    H     H_    0.915815 0.458774 0.068928 0.252339
H8    H     H_    0.254718 0.650608 0.027662 0.213330
H9    H     H_    0.213055 0.515677 0.054165 0.168863
H10   H     H_    0.081924 0.510579 0.935896 0.264942
H11   H     H_    0.051873 0.609864 0.014094 0.216561
H12   H     H_    0.660934 0.746636 0.024018 0.211948
H13   H     H_    0.121378 0.646304 0.913032 0.262415
H14   H     H_    0.236843 0.553016 0.718997 0.159868
H15   H     H_    0.139613 0.653955 0.730995 0.180588
H16   H     H_    0.292660 0.789373 0.738621 0.247151
H17   H     H_    0.302782 0.690147 0.818435 0.250819
H18   H     H_    0.394285 0.692531 0.723672 0.257032
H19   H     H_    0.744987 0.232969 0.452983 0.195286
H20   H     H_    0.848035 0.221532 0.366624 0.191705
H21   H     H_    0.704904 0.208155 0.261952 0.267385
H22   H     H_    0.673142 0.112163 0.345105 0.205229
H23   H     H_    0.802484 0.795628 0.908141 0.284544
H24   H     H_    0.597070 0.228990 0.343053 0.255765
H25   H     H_    0.055897 0.492828 0.287049 0.137823
H26   H     H_    0.927117 0.429877 0.250726 0.159388
H27   H     H_    0.033200 0.284945 0.190202 0.245469
H28   H     H_    0.086594 0.410158 0.147746 0.183135
H29   H     H_    0.161273 0.346795 0.227530 0.315621
H30   H     H_    0.957885 0.768137 0.526446 0.175753
H31   H     H_    0.100112 0.795371 0.557814 0.165337
H32   H     H_    0.030508 0.870947 0.693570 0.218964
H33   H     H_    0.977724 0.935602 0.603400 0.221714
H34   H     H_    0.865205 0.789994 0.009931 0.209787
H35   H     H_    0.888048 0.842383 0.664979 0.320711
H36   H     H_    0.880412 0.685023 0.934209 0.256587
H37   H     H_    0.352894 0.219862 0.986520 0.217373
H38   H     H_    0.282062 0.323006 0.936957 0.159908
H39   H     H_    0.117194 0.286994 0.032169 0.246202
H40   H     H_    0.154896 0.168862 0.979054 0.223784
N1    N     N_R   0.207800 0.519340 0.515560 -0.212822
N2    N     N_R   0.792200 0.480660 0.484440 -0.210750
O1    O     O_R   0.421700 0.658830 0.504150 -0.541108
O2    O     O_3   0.330993 0.350061 0.062142 -0.595095
O3    O     O_3   0.695940 0.434483 0.062302 -0.591587
O4    O     O_3   0.301204 0.541157 0.937251 -0.612669
O5    O     O_3   0.235958 0.655474 0.615759 -0.567117
O6    O     O_3   0.766640 0.361308 0.370713 -0.575545
O7    O     O_3   0.999158 0.352859 0.348227 -0.540917
O8    O     O_3   0.004963 0.679440 0.627701 -0.566162
O9    O     O_R   0.578300 0.341170 0.495850 -0.585039
O10   O     O_R   0.609310 0.646410 0.494170 -0.562665
O11   O     O_R   0.390690 0.353590 0.505830 -0.548777
O12   O     O_R   0.406210 0.506220 0.628210 -0.635679
O13   O     O_R   0.593790 0.493780 0.371790 -0.591015
O14   O     O_R   0.593830 0.493800 0.618230 -0.544190
O15   O     O_R   0.406170 0.506200 0.381770 -0.566315
O16   O     O_3   0.664594 0.627664 0.934567 -0.575489
Zn1   Zn    Zn3+2 0.374730 0.508290 0.506660 1.084503
Zn2   Zn    Zn3+2 0.625270 0.491710 0.493340 1.086043

loop_
_geom_bond_atom_site_label_1
_geom_bond_atom_site_label_2
_ccdc_geom_bond_type
C48   F5    S    
C11   C18   S    
C16   C21   S    
C23   C45   A    
C23   F8    S    
C44   H30   S    
C45   F7    S    
C43   H29   S    
C43   H28   S    
C39   H17   S    
C36   C37   S    
C17   O2    S    
C24   C26   S    
C7    F2    S    
O15   Zn1   S    
C1    O10   A    
C38   C39   S    
C31   H38   S    
C46   H32   S    
C35   H5    S    
C49   F4    S    
C30   H23   S    
C17   C20   S    
C15   C17   S    
C6    N1    A    
C14   C24   S    
C38   O5    S    
C19   C26   T    
C11   O12   A    
C30   H36   S    
C2    C50   A    
O11   Zn1   S    
C15   C22   S    
C46   H35   S    
C14   F1    S    
C22   C25   S    
C1    C28   S    
C6    O5    S    
C40   H20   S    
C42   H26   S    
C9    C10   A    
C1    O1    A    
O12   Zn1   S    
C40   O6    S    
C29   H12   S    
C48   C50   A    
C37   H10   S    
C18   C25   T    
C44   C46   S    
C20   O4    S    
C38   H15   S    
C29   H1    S    
C28   C45   A    
C34   C50   A    
C17   C24   S    
C13   C19   S    
C12   C27   S    
C36   O4    S    
N1    Zn1   S    
C39   H18   S    
C14   C20   S    
C33   O3    S    
C4    C6    A    
O10   Zn2   S    
C35   H6    S    
C41   H24   S    
C7    N2    A    
O14   Zn2   S    
O9    Zn2   S    
C4    O8    S    
C29   C30   S    
C2    C49   A    
C16   O16   S    
C31   C32   S    
C35   H7    S    
C33   H3    S    
C41   H21   S    
C40   H19   S    
C42   H25   S    
C39   H16   S    
C11   O14   A    
C13   O13   A    
C44   H31   S    
C40   C41   S    
C20   C22   S    
C37   H11   S    
C34   F9    S    
C14   C16   S    
C42   C43   S    
C15   F3    S    
N2    Zn2   S    
C36   H9    S    
C12   O11   A    
C38   H14   S    
C27   C47   A    
C7    C9    A    
C37   H13   S    
C5    N2    A    
C28   C48   A    
C16   C22   S    
C42   O7    S    
O1    Zn1   S    
C3    C5    A    
C13   O15   A    
C36   H8    S    
C8    N1    A    
C29   O16   S    
C32   H39   S    
C43   H27   S    
C31   O2    S    
C32   H2    S    
C30   H34   S    
C3    C10   A    
C8    F10   S    
C46   H33   S    
C3    O7    S    
C33   H4    S    
C41   H22   S    
C33   C35   S    
C31   H37   S    
C32   H40   S    
C15   C21   S    
C8    C10   A    
O13   Zn2   S    
C21   C24   S    
C2    C23   A    
C34   C47   A    
C4    C9    A    
C12   O9    A    
C21   O3    S    
C27   C49   A    
C47   F6    S    
C5    O6    S    
C44   O8    S    
