data_mof_unit_47311.cif
_audit_creation_date              2012-12-10T16:52:39-0500
_audit_creation_method            fapswitch 2.2
_symmetry_space_group_name_H-M    P1
_symmetry_Int_Tables_number       1
_space_group_crystal_system       triclinic
_cell_length_a                    7.839678
_cell_length_b                    8.569199
_cell_length_c                    13.79451
_cell_angle_alpha                 93.318463
_cell_angle_beta                  93.175569
_cell_angle_gamma                 94.247489
_cell_volume                      920.95765485

loop_
_atom_site_label
_atom_site_type_symbol
_atom_type_description
_atom_site_fract_x
_atom_site_fract_y
_atom_site_fract_z
_atom_type_partial_charge
C1    C     C_R   0.045183 0.794677 0.497546 0.964567
C2    C     C_R   0.936221 0.486104 0.318115 0.866355
C3    C     C_R   0.092491 0.517989 0.787019 -0.058719
C4    C     C_R   0.899304 0.452501 0.214661 -0.069169
C5    C     C_R   0.034013 0.620821 0.947184 -0.189838
C6    C     C_R   0.920194 0.285180 0.069649 -0.191201
C7    C     C_R   0.985934 0.595747 0.848579 -0.194861
C8    C     C_R   0.986100 0.342075 0.161891 -0.189990
C9    C     C_R   0.237835 0.454320 0.824826 -0.275326
C10   C     C_R   0.752126 0.509146 0.174499 -0.278020
C11   C     C_R   0.288189 0.476424 0.923433 0.087176
C12   C     C_R   0.954799 0.205315 0.502382 0.965855
C13   C     C_R   0.673004 0.440590 0.087931 0.091629
C14   C     C_R   0.187814 0.567110 0.984196 0.179676
C15   C     C_R   0.762493 0.331730 0.032953 0.174154
C16   C     C_R   0.442790 0.421365 0.961039 0.062524
C17   C     C_R   0.507099 0.476923 0.055510 0.062466
C18   C     C_R   0.401570 0.563044 0.115572 -0.236699
C19   C     C_R   0.535067 0.312965 0.907416 -0.230305
C20   C     C_R   0.244041 0.606107 0.080369 -0.222218
C21   C     C_R   0.691725 0.268363 0.943395 -0.225542
C22   C     C_2   0.068633 0.958446 0.496113 -0.387886
C23   C     C_2   0.931324 0.041541 0.503717 -0.385333
C24   C     C_R   0.063111 0.510908 0.682005 0.867816
H1    H     H_    0.167495 0.673067 0.128201 0.149900
H2    H     H_    0.512894 0.625551 0.572357 0.188740
H3    H     H_    0.100766 0.296545 0.193003 0.159632
H4    H     H_    0.871009 0.643830 0.819847 0.157837
H5    H     H_    0.197958 0.010043 0.488885 0.179156
H6    H     H_    0.801996 0.989945 0.510936 0.178988
H7    H     H_    0.757651 0.183827 0.900877 0.146572
H8    H     H_    0.697960 0.602965 0.214963 0.149625
H9    H     H_    0.316343 0.396826 0.774327 0.159017
H10   H     H_    0.954471 0.686759 0.993731 0.140720
H11   H     H_    0.988633 0.200592 0.028801 0.138388
H12   H     H_    0.434718 0.595079 0.191348 0.157085
H13   H     H_    0.486247 0.255310 0.838873 0.148014
H14   H     H_    0.487101 0.374493 0.427608 0.189487
N1    N     N_2   0.440860 0.456490 0.474790 -0.174633
N2    N     N_2   0.559140 0.543510 0.525210 -0.173887
O1    O     O_R   0.891570 0.738930 0.506190 -0.611468
O2    O     O_R   0.108430 0.261070 0.493810 -0.611945
O3    O     O_R   0.174650 0.711050 0.490030 -0.625069
O4    O     O_R   0.825350 0.288950 0.509970 -0.624256
O5    O     O_R   0.909850 0.521900 0.644940 -0.615910
O6    O     O_R   0.090150 0.478100 0.355060 -0.618964
O7    O     O_R   0.192930 0.494020 0.628780 -0.622130
O8    O     O_R   0.807070 0.505980 0.371220 -0.617040
Zn1   Zn    Zn3+2 0.810990 0.518620 0.510790 0.934352
Zn2   Zn    Zn3+2 0.189010 0.481380 0.489210 0.930681

loop_
_geom_bond_atom_site_label_1
_geom_bond_atom_site_label_2
_ccdc_geom_bond_type
O4    Zn1   S    
C2    C4    S    
O3    Zn2   S    
C3    C9    A    
C22   H5    S    
O5    Zn1   S    
C9    C11   A    
C11   C16   A    
O6    Zn2   S    
C18   C20   A    
C13   C17   A    
C4    C8    A    
C5    H10   S    
C17   C18   A    
C5    C14   A    
C1    C22   S    
C12   O4    A    
C2    O6    A    
C9    H9    S    
C21   H7    S    
C12   C23   S    
H2    N2    S    
C3    C24   S    
O2    Zn2   S    
C16   C19   A    
C6    C8    A    
C24   O5    A    
O1    Zn1   S    
O8    Zn1   S    
C19   C21   A    
O7    Zn2   S    
C3    C7    A    
C13   C15   A    
H14   N1    S    
C11   C14   A    
C20   H1    S    
C4    C10   A    
N2    Zn1   S    
C23   H6    S    
C10   H8    S    
C15   C21   A    
N1    Zn2   S    
C6    H11   S    
C14   C20   A    
C1    O1    A    
N1    N2    D    
C5    C7    A    
C8    H3    S    
C22   C23   D    
C12   O2    A    
C19   H13   S    
C2    O8    A    
C6    C15   A    
C24   O7    A    
C18   H12   S    
C1    O3    A    
C7    H4    S    
C16   C17   A    
C10   C13   A    
