data_mof_unit_18903.cif
_audit_creation_date              2013-03-05T15:51:46-0500
_audit_creation_method            fapswitch 2.2
_symmetry_space_group_name_H-M    P1
_symmetry_Int_Tables_number       1
_space_group_crystal_system       triclinic
_cell_length_a                    7.226749
_cell_length_b                    12.184232
_cell_length_c                    29.295057
_cell_angle_alpha                 90.1768
_cell_angle_beta                  90.845034
_cell_angle_gamma                 90.194463
_cell_volume                      2579.19159607

loop_
_atom_site_label
_atom_site_type_symbol
_atom_site_description
_atom_site_fract_x
_atom_site_fract_y
_atom_site_fract_z
_atom_type_partial_charge
O1    O     O_R   0.647170 0.849180 0.201220 -0.599559
O2    O     O_R   0.352830 0.150820 0.798780 -0.578295
O3    O     O_R   0.352830 0.150820 0.701220 -0.602233
O4    O     O_R   0.647170 0.849180 0.298780 -0.547726
O5    O     O_R   0.147170 0.650820 0.298780 -0.603464
O6    O     O_R   0.852830 0.349180 0.701220 -0.574677
O7    O     O_R   0.852830 0.349180 0.798780 -0.601642
O8    O     O_R   0.147170 0.650820 0.201220 -0.582423
O9    O     O_R   0.317430 0.862210 0.298450 -0.596261
O10   O     O_R   0.682570 0.137790 0.701550 -0.547971
O11   O     O_R   0.682570 0.137790 0.798450 -0.611697
O12   O     O_R   0.317430 0.862210 0.201550 -0.549491
O13   O     O_R   0.817430 0.637790 0.201550 -0.610294
O14   O     O_R   0.182570 0.362210 0.798450 -0.551341
O15   O     O_R   0.182570 0.362210 0.701550 -0.610680
O16   O     O_R   0.817430 0.637790 0.298450 -0.590924
H1    H     H_    0.126370 0.239978 0.455821 0.160662
H2    H     H_    0.020049 0.773628 0.546176 0.164012
H3    H     H_    0.085447 0.772134 0.954039 0.151166
H4    H     H_    0.952206 0.230528 0.044029 0.150963
H5    H     H_    0.420316 0.271735 0.046745 0.150948
H6    H     H_    0.544088 0.730340 0.954920 0.151452
H7    H     H_    0.622836 0.729309 0.546129 0.147071
H8    H     H_    0.533636 0.266844 0.458121 0.142442
C1    C     C_R   0.486771 0.886630 0.313731 0.886613
C2    C     C_R   0.513680 0.112481 0.686481 0.889662
C3    C     C_R   0.515298 0.114374 0.814013 0.989370
C4    C     C_R   0.484466 0.886774 0.186448 0.895479
C5    C     C_R   0.984389 0.614113 0.186025 0.982874
C6    C     C_R   0.015858 0.387096 0.813493 0.888876
C7    C     C_R   0.013558 0.385810 0.686071 0.991117
C8    C     C_R   0.986553 0.613720 0.313711 0.991732
H9    H     H_    0.080913 0.600237 0.688952 0.110942
H10   H     H_    0.123535 0.411345 0.312600 0.116281
H11   H     H_    0.871822 0.406139 0.185438 0.117883
H12   H     H_    0.125181 0.596128 0.811488 0.105842
H13   H     H_    0.624594 0.906300 0.813971 0.116979
H14   H     H_    0.379444 0.096068 0.188856 0.107220
H15   H     H_    0.562234 0.101355 0.313124 0.105773
H16   H     H_    0.633869 0.905144 0.689569 0.105654
O17   O     O_3   0.480630 0.680630 0.250000 -0.306793
O18   O     O_3   0.519370 0.319370 0.750000 -0.287228
O19   O     O_3   0.980630 0.819370 0.250000 -0.271059
O20   O     O_3   0.019370 0.180630 0.750000 -0.288192
V1    V     V_3+5 0.205800 0.762860 0.250000 1.215747
V2    V     V_3+5 0.794200 0.237140 0.750000 1.206635
V3    V     V_3+5 0.705800 0.737140 0.250000 1.196350
V4    V     V_3+5 0.294200 0.262860 0.750000 1.206932
C9    C     C_R   0.999452 0.539261 0.352901 -0.146921
C10   C     C_R   0.004724 0.460877 0.646957 -0.127455
C11   C     C_R   0.016825 0.463844 0.852158 -0.137705
C12   C     C_R   0.986268 0.539659 0.146524 -0.150560
C13   C     C_R   0.484356 0.963287 0.147830 -0.140564
C14   C     C_R   0.512667 0.039868 0.853376 -0.152969
C15   C     C_R   0.509381 0.032819 0.648509 -0.145251
C16   C     C_R   0.497743 0.959527 0.353844 -0.135531
C17   C     C_R   0.096395 0.363390 0.382297 -0.175408
C18   C     C_R   0.039701 0.646458 0.619198 -0.175937
C19   C     C_R   0.096758 0.643679 0.881322 -0.187552
C20   C     C_R   0.918237 0.359216 0.116234 -0.171519
C21   C     C_R   0.407864 0.143312 0.119105 -0.188199
C22   C     C_R   0.578612 0.859254 0.883083 -0.172321
C23   C     C_R   0.598948 0.854244 0.619973 -0.178078
C24   C     C_R   0.539021 0.143089 0.383810 -0.181041
C25   C     C_R   0.079428 0.436427 0.346247 -0.215956
C26   C     C_R   0.047738 0.571352 0.654762 -0.208681
C27   C     C_R   0.085853 0.569660 0.845284 -0.143741
C28   C     C_R   0.917772 0.433329 0.152274 -0.213225
C29   C     C_R   0.417722 0.069354 0.154970 -0.142626
C30   C     C_R   0.579543 0.933470 0.847261 -0.209666
C31   C     C_R   0.586684 0.929073 0.655766 -0.136450
C32   C     C_R   0.538389 0.070330 0.347170 -0.159794
C33   C     C_R   0.940317 0.571010 0.396919 -0.068723
C34   C     C_R   0.957614 0.424239 0.602149 -0.146751
C35   C     C_R   0.964964 0.429977 0.896267 -0.123830
C36   C     C_R   0.048690 0.574073 0.103128 -0.092315
C37   C     C_R   0.534915 0.929140 0.103566 -0.122864
C38   C     C_R   0.451362 0.074160 0.896975 -0.094582
C39   C     C_R   0.446840 0.062081 0.604305 -0.128251
C40   C     C_R   0.462591 0.919805 0.398312 -0.094942
C41   C     C_R   0.985708 0.503829 0.435325 -0.000646
C42   C     C_R   0.983613 0.497322 0.564688 -0.001003
C43   C     C_R   0.010194 0.498466 0.934654 0.095014
C44   C     C_R   0.014407 0.505190 0.064231 -0.001271
C45   C     C_R   0.491010 0.997830 0.065323 0.094566
C46   C     C_R   0.485429 0.005100 0.935655 -0.001272
C47   C     C_R   0.493172 0.994585 0.566270 0.106003
C48   C     C_R   0.491142 0.990947 0.436883 0.088086
C49   C     C_R   0.050938 0.396025 0.426581 0.181148
C50   C     C_R   0.007918 0.610487 0.574347 0.187097
C51   C     C_R   0.058735 0.609250 0.925735 0.167071
C52   C     C_R   0.966516 0.393895 0.072511 0.178738
C53   C     C_R   0.444666 0.108753 0.074572 0.167020
C54   C     C_R   0.531627 0.893819 0.926977 0.178513
C55   C     C_R   0.554745 0.886449 0.575277 0.163535
C56   C     C_R   0.514469 0.104799 0.428367 0.160913
C57   C     C_R   0.978120 0.540254 0.482009 0.058420
C58   C     C_R   0.994222 0.462264 0.518065 0.048349
C59   C     C_R   0.009538 0.462548 0.981303 0.093958
C60   C     C_R   0.023165 0.541242 0.017562 0.033806
C61   C     C_R   0.490803 0.962083 0.018513 0.093413
C62   C     C_R   0.477921 0.040931 0.982481 0.033879
C63   C     C_R   0.489219 0.031704 0.519861 0.079087
C64   C     C_R   0.503000 0.954339 0.483390 0.072947
C65   C     C_R   0.047556 0.354622 0.506953 -0.221235
C66   C     C_R   0.981847 0.652655 0.493968 -0.180724
C67   C     C_R   0.034084 0.653235 0.005635 -0.200920
C68   C     C_R   0.004901 0.350430 0.992936 -0.116833
C69   C     C_R   0.468951 0.152874 0.994754 -0.203271
C70   C     C_R   0.493769 0.850034 0.006478 -0.116638
C71   C     C_R   0.552256 0.845715 0.494505 -0.089423
C72   C     C_R   0.498411 0.144357 0.509175 -0.121923
C73   C     C_R   0.077558 0.322523 0.462307 -0.210232
C74   C     C_R   0.004746 0.686664 0.538996 -0.231061
C75   C     C_R   0.063862 0.685721 0.961069 -0.233003
C76   C     C_R   0.971492 0.317230 0.037231 -0.233105
C77   C     C_R   0.440396 0.185296 0.039450 -0.232357
C78   C     C_R   0.526176 0.817031 0.962029 -0.233840
C79   C     C_R   0.578945 0.812741 0.539441 -0.256361
C80   C     C_R   0.516957 0.179753 0.464469 -0.258081
H17   H     H_    0.151882 0.282344 0.375818 0.129927
H18   H     H_    0.064393 0.732560 0.626581 0.132607
H19   H     H_    0.139845 0.727370 0.874662 0.126127
H20   H     H_    0.875905 0.275113 0.122287 0.132631
H21   H     H_    0.366567 0.227141 0.126003 0.125629
H22   H     H_    0.619603 0.775127 0.876719 0.132348
H23   H     H_    0.652174 0.772804 0.626894 0.125585
H24   H     H_    0.562283 0.229585 0.377376 0.124681
C81   C     C_2   0.856696 0.318453 0.594731 0.499896
H25   H     H_    0.766378 0.309238 0.565088 0.003345
O21   O     O_2   0.874292 0.240675 0.620528 -0.550478
C82   C     C_2   0.808344 0.662957 0.401480 0.459830
H26   H     H_    0.690344 0.652726 0.423418 -0.025274
O22   O     O_2   0.833218 0.750619 0.382418 -0.571441
C83   C     C_2   0.173781 0.670718 0.100075 0.494522
H27   H     H_    0.294356 0.666171 0.078564 -0.030342
O23   O     O_2   0.139738 0.756843 0.119555 -0.553845
C84   C     C_2   0.842005 0.332692 0.899946 0.526572
H28   H     H_    0.864773 0.260084 0.879278 0.014751
O24   O     O_2   0.709316 0.334820 0.925188 -0.575090
C85   C     C_2   0.327039 0.170623 0.900464 0.495263
H29   H     H_    0.207938 0.166205 0.922471 -0.028341
O25   O     O_2   0.359833 0.256397 0.880708 -0.553376
C86   C     C_2   0.655374 0.831263 0.099647 0.526591
H30   H     H_    0.631136 0.758964 0.120269 0.013552
O26   O     O_2   0.787862 0.832577 0.074330 -0.575429
C87   C     C_2   0.372562 0.810476 0.402330 0.522641
H31   H     H_    0.403731 0.744907 0.378537 0.016262
O27   O     O_2   0.255876 0.794244 0.431160 -0.594966
C88   C     C_2   0.307735 0.150026 0.599632 0.513598
H32   H     H_    0.319458 0.225455 0.619252 0.020472
O28   O     O_2   0.173308 0.135784 0.574627 -0.573147
H33   H     H_    0.084656 0.296680 0.532911 0.194893
H34   H     H_    0.985270 0.716721 0.468968 0.210055
H35   H     H_    0.018935 0.718441 0.029961 0.205345
H36   H     H_    0.024516 0.286391 0.968094 0.119376
H37   H     H_    0.484690 0.218062 0.970573 0.204771
H38   H     H_    0.473379 0.785873 0.031098 0.120402
H39   H     H_    0.586783 0.786946 0.468667 0.127272
H40   H     H_    0.508072 0.206600 0.535345 0.109104

loop_
_geom_bond_atom_site_label_1
_geom_bond_atom_site_label_2
_geom_bond_distance
_ccdc_geom_bond_type
C65   H33   1.071044 S    
C6    C11   1.466520 S    
C48   C56   1.420131 A    
O9    V1    2.019813 S    
C61   C62   1.431707 A    
H16   C31   1.083688 S    
C87   H31   1.084997 S    
C1    C16   1.471855 S    
C13   C29   1.396898 A    
C2    C15   1.473969 S    
C36   C44   1.431289 A    
C39   C47   1.427302 A    
C57   C58   1.426726 A    
C3    C14   1.470086 S    
C69   C77   1.385054 A    
C83   H27   1.084342 S    
C59   C68   1.409362 A    
C58   C65   1.406816 A    
C17   C49   1.399731 A    
C66   C74   1.388852 A    
C23   H23   1.084081 S    
O8    C5    1.327332 A    
C65   C73   1.384336 A    
C87   O27   1.218363 D    
C11   C35   1.413160 A    
C62   C69   1.411403 A    
C10   C34   1.421427 A    
H7    C79   1.083499 S    
C21   C53   1.399147 A    
H4    C76   1.084523 S    
C23   C55   1.400756 A    
O3    V4    2.023589 S    
C22   C30   1.387443 A    
C71   C79   1.388454 A    
C22   H22   1.084285 S    
C20   H20   1.084301 S    
C71   H39   1.073017 S    
O8    V1    2.012795 S    
H5    C77   1.084669 S    
C46   C54   1.420551 A    
C19   C27   1.387549 A    
C45   C53   1.419744 A    
C18   C26   1.389515 A    
C40   C87   1.486263 S    
C82   H26   1.082450 S    
C66   H34   1.072491 S    
C47   C55   1.416422 A    
O10   V2    2.019815 S    
O1    C4    1.330230 A    
H15   C32   1.083669 S    
O2    C3    1.328230 A    
O11   C3    1.328638 A    
C72   H40   1.078076 S    
C14   C30   1.397012 A    
C70   H38   1.076492 S    
O5    C8    1.324990 A    
C41   C49   1.420859 A    
O10   C2    1.326793 A    
C24   C32   1.389956 A    
O6    C7    1.325984 A    
H14   C29   1.083796 S    
C69   H37   1.072773 S    
O7    C6    1.329421 A    
C43   C59   1.436331 A    
H13   C30   1.083866 S    
C42   C58   1.433017 A    
C70   C78   1.385117 A    
C53   C77   1.390873 A    
O15   V4    2.028328 S    
C34   C42   1.429515 A    
H10   C25   1.083818 S    
C33   C41   1.428325 A    
C48   C64   1.436325 A    
C36   C83   1.485807 S    
O20   V2    1.769071 S    
H9    C26   1.083840 S    
O4    C1    1.327039 A    
C20   C52   1.398724 A    
C19   H19   1.084301 S    
C5    C12   1.468429 S    
C49   C73   1.391195 A    
C18   H18   1.084150 S    
H8    C80   1.084496 S    
O9    C1    1.329337 A    
C44   C60   1.439505 A    
O7    V2    2.012793 S    
C24   C56   1.401047 A    
C86   O26   1.219820 D    
C38   C85   1.485997 S    
C17   C25   1.387447 A    
O13   V3    2.039719 S    
O16   V3    2.028326 S    
O1    V3    2.020711 S    
O14   V4    2.039718 S    
O2    V4    2.020709 S    
C61   C70   1.409273 A    
O14   C6    1.324750 A    
O5    V1    2.027593 S    
C63   C72   1.410338 A    
C13   C37   1.414119 A    
C15   C39   1.412435 A    
C59   C60   1.430836 A    
C68   H36   1.076481 S    
H3    C75   1.084647 S    
C16   C40   1.417248 A    
C24   H24   1.084175 S    
O17   V3    1.764767 S    
O18   V4    1.764767 S    
C42   C50   1.416535 A    
C17   H17   1.084308 S    
C18   C50   1.399313 A    
C67   C75   1.385051 A    
H1    C73   1.084097 S    
C9    C25   1.395953 A    
C39   C88   1.477051 S    
C47   C63   1.434031 A    
C57   C66   1.412641 A    
C82   O22   1.220781 D    
O12   C4    1.325367 A    
C22   C54   1.398797 A    
C84   O24   1.219826 D    
C9    C33   1.417512 A    
O13   C5    1.328018 A    
C7    C10   1.469098 S    
C46   C62   1.440136 A    
C45   C61   1.437497 A    
H2    C74   1.084588 S    
C72   C80   1.388325 A    
C81   H25   1.083932 S    
C19   C51   1.399096 A    
C21   C29   1.387484 A    
C83   O23   1.220465 D    
H6    C78   1.084517 S    
C60   C67   1.411847 A    
O6    V2    2.027595 S    
C16   C32   1.395631 A    
C56   C80   1.395100 A    
O3    C2    1.331589 A    
C23   C31   1.391416 A    
C86   H30   1.084900 S    
C12   C36   1.419299 A    
C35   C84   1.484149 S    
C12   C28   1.396889 A    
C64   C71   1.409546 A    
C4    C13   1.468148 S    
C10   C26   1.397831 A    
O15   C7    1.329292 A    
O12   V1    2.041667 S    
O16   C8    1.329211 A    
C43   C51   1.419502 A    
C52   C76   1.391897 A    
C55   C79   1.392806 A    
C68   C76   1.384739 A    
C85   O25   1.220417 D    
C37   C86   1.484033 S    
O19   V1    1.769071 S    
C85   H29   1.084271 S    
C54   C78   1.392201 A    
C35   C43   1.431541 A    
C11   C27   1.397084 A    
C41   C57   1.438386 A    
H11   C28   1.083830 S    
C51   C75   1.390548 A    
C88   O28   1.219650 D    
C50   C74   1.392773 A    
C67   H35   1.072592 S    
C8    C9    1.467549 S    
C33   C82   1.480753 S    
C84   H28   1.084854 S    
C37   C45   1.432959 A    
C20   C28   1.387223 A    
C40   C48   1.434083 A    
C38   C46   1.432377 A    
C34   C81   1.492537 S    
C63   C64   1.427446 A    
C88   H32   1.084888 S    
O11   V2    2.041665 S    
C21   H21   1.084305 S    
C44   C52   1.420847 A    
C81   O21   1.219745 D    
H12   C27   1.083808 S    
C15   C31   1.399314 A    
C14   C38   1.420147 A    
O4    V3    2.023587 S    
