data_mof_unit_9343.cif
_audit_creation_date              2012-12-10T16:49:26-0500
_audit_creation_method            fapswitch 2.2
_symmetry_space_group_name_H-M    P1
_symmetry_Int_Tables_number       1
_space_group_crystal_system       triclinic
_cell_length_a                    7.809569
_cell_length_b                    8.563037
_cell_length_c                    12.829322
_cell_angle_alpha                 89.224597
_cell_angle_beta                  87.164284
_cell_angle_gamma                 93.327872
_cell_volume                      855.331982775

loop_
_atom_site_label
_atom_site_type_symbol
_atom_type_description
_atom_site_fract_x
_atom_site_fract_y
_atom_site_fract_z
_atom_type_partial_charge
C1    C     C_R   0.455126 0.205603 0.497386 0.958483
C2    C     C_R   0.544874 0.794397 0.502613 0.958472
C3    C     C_R   0.464385 0.503538 0.699713 0.932270
C4    C     C_R   0.535616 0.496456 0.300287 0.932298
C5    C     C_R   0.560499 0.491101 0.188668 -0.220762
C6    C     C_R   0.439523 0.508900 0.811334 -0.220743
C7    C     C_R   0.321363 0.626545 0.966669 0.312655
C8    C     C_R   0.678717 0.373502 0.033323 0.312647
C9    C     C_R   0.315613 0.600529 0.859697 0.442635
C10   C     C_R   0.684383 0.399441 0.140311 0.442641
C11   C     C_R   0.553978 0.430015 0.869128 -0.246174
C12   C     C_R   0.446112 0.570047 0.130865 -0.246141
C13   C     C_R   0.558119 0.449643 0.975488 -0.028836
C14   C     C_R   0.441980 0.550425 0.024503 -0.028800
C15   C     C_2   0.431472 0.042154 0.495877 -0.317389
C16   C     C_2   0.568528 0.957846 0.504121 -0.317380
H1    H     H_    0.356359 0.643334 0.170815 0.238726
H2    H     H_    0.643749 0.356748 0.829175 0.238732
H3    H     H_    0.301734 0.991732 0.487990 0.218530
H4    H     H_    0.698266 0.008268 0.512007 0.218530
N1    N     N_2   0.054030 0.541640 0.471970 0.122999
N2    N     N_2   0.945970 0.458360 0.528030 0.123030
O1    O     O_R   0.609680 0.261530 0.506880 -0.595863
O2    O     O_R   0.390320 0.738470 0.493120 -0.595854
O3    O     O_R   0.323330 0.288220 0.488910 -0.582806
O4    O     O_R   0.676670 0.711780 0.511090 -0.582765
O5    O     O_R   0.619510 0.488830 0.661140 -0.633111
O6    O     O_R   0.380490 0.511170 0.338860 -0.633109
O7    O     O_R   0.333160 0.515520 0.643180 -0.558305
O8    O     O_R   0.666840 0.484480 0.356820 -0.558398
Zn1   Zn    Zn3+2 0.691200 0.482180 0.511990 1.094629
Zn2   Zn    Zn3+2 0.308800 0.517820 0.488010 1.094646
O9    O     O_3   0.797953 0.322372 0.199355 -0.570246
C17   C     C_3   0.959855 0.405564 0.190782 -0.083059
H5    H     H_    0.950003 0.534397 0.197083 0.184816
H6    H     H_    0.030315 0.379517 0.116340 0.187208
H7    H     H_    0.037717 0.367113 0.255415 0.195680
O10   O     O_3   0.201903 0.677471 0.800677 -0.570197
C18   C     C_3   0.040054 0.594205 0.809380 -0.083110
H8    H     H_    0.969816 0.620114 0.883891 0.187132
H9    H     H_    0.049944 0.465412 0.802998 0.184912
H10   H     H_    0.961968 0.632688 0.744889 0.195700
Cl1   Cl    Cl    0.183524 0.761952 0.024350 -0.552606
Cl2   Cl    Cl    0.816618 0.238151 0.975618 -0.552762
Cl3   Cl    Cl    0.982576 0.684130 0.391500 -0.499497
Cl4   Cl    Cl    0.017421 0.315866 0.608497 -0.499459

loop_
_geom_bond_atom_site_label_1
_geom_bond_atom_site_label_2
_ccdc_geom_bond_type
C12   H1    S    
C1    O3    A    
O2    Zn2   S    
C11   H2    S    
C8    C13   A    
C1    C15   S    
C7    Cl1   S    
O7    Zn2   S    
C17   H7    S    
C2    C16   S    
N1    Cl3   S    
C16   H4    S    
C3    C6    S    
C6    C9    A    
C3    O5    A    
O9    C17   S    
C5    C10   A    
C2    O4    A    
C13   C14   A    
C15   H3    S    
C11   C13   A    
O10   C18   S    
O3    Zn2   S    
C8    C10   A    
C9    O10   S    
C4    O6    A    
C12   C14   A    
C1    O1    A    
C18   H10   S    
C17   H6    S    
C6    C11   A    
C2    O2    A    
O8    Zn1   S    
N1    Zn2   S    
N2    Zn1   S    
O5    Zn1   S    
C15   C16   D    
C7    C9    A    
O6    Zn2   S    
C5    C12   A    
C18   H9    S    
C17   H5    S    
C18   H8    S    
C3    O7    A    
C10   O9    S    
N2    Cl4   S    
N1    N2    D    
O4    Zn1   S    
C7    C14   A    
C4    O8    A    
C8    Cl2   S    
C4    C5    S    
O1    Zn1   S    
