data_mof_unit_13860.cif
_audit_creation_date              2013-03-05T15:58:34-0500
_audit_creation_method            fapswitch 2.2
_symmetry_space_group_name_H-M    P1
_symmetry_Int_Tables_number       1
_space_group_crystal_system       triclinic
_cell_length_a                    15.105208
_cell_length_b                    13.709441
_cell_length_c                    10.696858
_cell_angle_alpha                 90.359538
_cell_angle_beta                  89.928315
_cell_angle_gamma                 90.486465
_cell_volume                      2215.02264932

loop_
_atom_site_label
_atom_site_type_symbol
_atom_site_description
_atom_site_fract_x
_atom_site_fract_y
_atom_site_fract_z
_atom_type_partial_charge
O1    O     O_R   0.370260 0.582280 0.500030 -0.599234
O2    O     O_R   0.629740 0.417720 0.499970 -0.600214
O3    O     O_R   0.629740 0.582280 0.499970 -0.532399
O4    O     O_R   0.370260 0.417720 0.500030 -0.532046
C1    C     C_R   0.328545 0.499512 0.501497 0.874177
C2    C     C_R   0.671479 0.500455 0.499221 0.891395
O5    O     O_R   0.499980 0.582260 0.316850 -0.567122
O6    O     O_R   0.500020 0.417740 0.683150 -0.551335
O7    O     O_R   0.500020 0.582260 0.683150 -0.578163
O8    O     O_R   0.499980 0.417740 0.316850 -0.570322
C3    C     C_R   0.496954 0.499681 0.259960 0.960492
C4    C     C_R   0.501909 0.500499 0.740125 0.947525
Cu1   Cu    Cu3+1 0.500000 0.597420 0.500000 1.076803
Cu2   Cu    Cu3+1 0.500000 0.402580 0.500000 1.083571
C5    C     C_3   0.434607 0.560311 0.039494 0.171021
C6    C     C_3   0.563274 0.441339 0.960847 0.181203
C7    C     C_3   0.515696 0.591778 0.961738 0.176623
C8    C     C_3   0.482146 0.409844 0.038148 0.189415
C9    C     C_3   0.421567 0.470592 0.954085 0.144756
C10   C     C_3   0.576214 0.531045 0.046216 0.146059
C11   C     C_3   0.502586 0.501791 0.875477 -0.381823
C12   C     C_3   0.495214 0.499378 0.124643 -0.381351
C13   C     C_R   0.815737 0.586890 0.469339 0.721975
C14   C     C_R   0.184435 0.413086 0.533797 0.715932
C15   C     C_R   0.768333 0.501386 0.498846 -0.210256
C16   C     C_R   0.231736 0.498499 0.503217 -0.221436
C17   C     C_R   0.813494 0.415918 0.528617 -0.132558
C18   C     C_R   0.186510 0.583954 0.473738 -0.123439
C19   C     C_R   0.905687 0.414689 0.530253 -0.070926
C20   C     C_R   0.094365 0.585272 0.472901 -0.072570
C21   C     C_R   0.953535 0.500483 0.501002 -0.125520
C22   C     C_R   0.046558 0.499505 0.502397 -0.126141
C23   C     C_R   0.908457 0.587169 0.470250 -0.201441
C24   C     C_R   0.091673 0.412851 0.533260 -0.199129
C25   C     C_R   0.950731 0.329100 0.560965 0.578677
C26   C     C_R   0.049344 0.670938 0.442570 0.582635
C27   C     C_R   0.042902 0.328046 0.562657 0.645553
C28   C     C_R   0.957208 0.672048 0.441176 0.645400
H1    H     H_    0.776563 0.350310 0.551754 0.243243
H2    H     H_    0.223365 0.649506 0.450105 0.248437
C29   C     C_R   0.444950 0.792812 0.578817 0.153294
C30   C     C_R   0.556553 0.207174 0.423191 0.143430
C31   C     C_R   0.555128 0.793064 0.421169 0.178326
C32   C     C_R   0.444082 0.206705 0.577548 0.183931
N1    N     N_R   0.500000 0.743810 0.500000 -0.227249
N2    N     N_R   0.500000 0.256190 0.500000 -0.228563
C33   C     C_R   0.557925 0.896317 0.420139 -0.121583
C34   C     C_R   0.443209 0.103454 0.581073 -0.121284
C35   C     C_R   0.442186 0.896015 0.579815 -0.108114
C36   C     C_R   0.557789 0.103851 0.419824 -0.110420
C37   C     C_R   0.500132 0.948115 0.500033 0.022704
C38   C     C_R   0.500245 0.051713 0.500102 0.023438
C39   C     C_R   0.615882 0.948559 0.340352 0.243101
C40   C     C_R   0.385903 0.051181 0.661754 0.242002
C41   C     C_R   0.384581 0.947929 0.660153 0.250886
C42   C     C_R   0.616097 0.051805 0.340545 0.252047
H3    H     H_    0.403594 0.750489 0.641017 0.178303
H4    H     H_    0.600670 0.249549 0.364927 0.178332
H5    H     H_    0.596836 0.750966 0.359341 0.198357
H6    H     H_    0.400063 0.248480 0.636309 0.214671
N3    N     N_R   0.337653 0.435722 0.902493 0.174221
O9    O     O_R   0.263677 0.477086 0.933791 -0.237848
O10   O     O_R   0.336223 0.361061 0.827098 -0.257779
N4    N     N_R   0.660403 0.562511 0.100434 0.173718
O11   O     O_R   0.689523 0.651028 0.084123 -0.202131
O12   O     O_R   0.703843 0.503925 0.172677 -0.312008
N5    N     N_R   0.363212 0.624549 0.079311 0.206910
O13   O     O_R   0.319332 0.673586 0.996554 -0.199239
O14   O     O_R   0.339477 0.628984 0.196053 -0.314841
N6    N     N_R   0.635526 0.378032 0.921850 0.200659
O15   O     O_R   0.680988 0.331754 0.005452 -0.187267
O16   O     O_R   0.659188 0.372840 0.805130 -0.320116
N7    N     N_R   0.536675 0.690157 0.918909 0.186588
O17   O     O_R   0.488560 0.763671 0.953736 -0.238882
O18   O     O_R   0.605895 0.705277 0.849021 -0.254692
N8    N     N_R   0.459758 0.311297 0.078298 0.192590
O19   O     O_R   0.503773 0.237228 0.035376 -0.208361
O20   O     O_R   0.389194 0.296233 0.145451 -0.256219
F1    F     F_    0.771571 0.669145 0.438187 -0.555521
F2    F     F_    0.228683 0.330923 0.565562 -0.560930
F3    F     F_    0.905483 0.246059 0.589453 -0.546666
F4    F     F_    0.094583 0.753994 0.414107 -0.541504
F5    F     F_    0.083833 0.243562 0.592812 -0.481094
F6    F     F_    0.916308 0.756621 0.411397 -0.476572
N9    N     N_R   0.673793 0.897455 0.256606 0.152910
O21   O     O_R   0.669729 0.913028 0.136905 -0.189804
O22   O     O_R   0.736927 0.843803 0.300782 -0.162117
N10   N     N_R   0.328029 0.102453 0.745172 0.164149
O23   O     O_R   0.242737 0.090048 0.737205 -0.146438
O24   O     O_R   0.360947 0.152252 0.838239 -0.218220
N11   N     N_R   0.325217 0.896453 0.741917 0.154916
O25   O     O_R   0.327134 0.913020 0.861781 -0.181685
O26   O     O_R   0.264084 0.839407 0.695666 -0.268717
N12   N     N_R   0.678116 0.103014 0.262636 0.143608
O27   O     O_R   0.762461 0.086225 0.272394 -0.193515
O28   O     O_R   0.649951 0.158457 0.173190 -0.231178

loop_
_geom_bond_atom_site_label_1
_geom_bond_atom_site_label_2
_geom_bond_distance
_ccdc_geom_bond_type
Cu1   N1    2.006925 S    
C6    C11   1.544539 S    
C17   C19   1.392971 A    
C24   C27   1.408105 A    
N7    O17   1.299924 A    
N10   O24   1.300529 A    
O3    C2    1.291439 A    
C30   H4    1.080250 S    
C25   F3    1.358930 S    
Cu2   N2    2.006925 S    
N9    O21   1.301033 A    
C42   N12   1.434998 S    
O1    C1    1.293404 A    
C6    C10   1.538449 S    
C25   C27   1.392607 A    
N8    O20   1.300369 A    
C2    C15   1.462946 S    
C18   H2    1.084185 S    
C7    C10   1.539453 S    
C8    C9    1.537502 S    
C30   N2    1.362861 A    
N3    O10   1.299188 A    
O7    Cu1   1.971419 S    
C41   N11   1.435992 S    
C22   C24   1.415593 A    
C5    C9    1.539026 S    
C14   F2    1.359821 S    
C5    C12   1.546008 S    
C26   F4    1.358973 S    
C35   C37   1.414139 A    
C36   C38   1.413905 A    
C21   C23   1.415413 A    
N6    O15   1.299955 A    
C20   C22   1.411832 A    
N3    O9    1.299885 A    
O3    Cu1   1.972462 S    
C31   H5    1.080622 S    
C33   C39   1.415261 A    
C28   F6    1.358217 S    
Cu1   Cu2   2.671146 S    
C7    N7    1.459267 S    
N7    O18   1.300524 A    
O2    C2    1.293077 A    
C29   C35   1.415801 A    
C32   N2    1.362855 A    
O5    C3    1.282428 A    
N9    O22   1.300456 A    
N5    O13   1.300544 A    
C6    N6    1.459033 S    
N8    O19   1.299542 A    
O8    Cu2   1.971420 S    
C17   H1    1.084147 S    
N11   O25   1.301047 A    
C33   C37   1.413429 A    
C13   C23   1.400561 A    
C35   C41   1.415324 A    
C4    C11   1.447879 S    
C36   C42   1.416064 A    
C37   C38   1.420250 A    
N5    O14   1.299989 A    
N4    O12   1.300324 A    
C10   N4    1.459123 S    
C34   C40   1.415291 A    
N11   O26   1.301211 A    
C21   C22   1.405401 A    
C34   C38   1.412946 A    
O6    C4    1.284660 A    
C5    N5    1.459557 S    
C32   H6    1.079867 S    
N12   O28   1.299937 A    
C31   N1    1.362448 A    
C30   C36   1.417009 A    
C10   C12   1.543452 S    
O1    Cu1   1.968957 S    
C39   C42   1.415407 A    
C5    C7    1.539870 S    
C40   C41   1.415491 A    
O6    Cu2   1.968825 S    
C9    C11   1.542975 S    
C8    C12   1.543946 S    
C14   C16   1.406653 A    
O4    C1    1.290889 A    
C39   N9    1.434969 S    
C15   C17   1.399472 A    
C19   C25   1.402369 A    
C3    C12   1.447722 S    
C16   C18   1.399063 A    
C23   C28   1.408002 A    
C20   C26   1.402109 A    
N4    O11   1.299991 A    
C18   C20   1.392184 A    
C29   H3    1.080375 S    
C19   C21   1.411845 A    
C40   N10   1.433576 S    
C9    N3    1.458731 S    
C26   C28   1.392045 A    
C13   C15   1.405799 A    
O4    Cu2   1.972462 S    
N12   O27   1.301024 A    
O2    Cu2   1.968957 S    
O7    C4    1.279771 A    
C14   C24   1.401194 A    
O8    C3    1.282141 A    
C1    C16   1.462375 S    
O5    Cu1   1.968826 S    
N10   O23   1.300925 A    
C6    C8    1.537805 S    
C29   N1    1.361688 A    
C27   F5    1.358364 S    
N6    O16   1.299944 A    
C13   F1    1.358597 S    
C31   C33   1.415927 A    
C32   C34   1.416192 A    
C8    N8    1.457132 S    
C7    C11   1.547457 S    
