data_mof_unit_5621.cif
_audit_creation_date              2012-10-26T21:24:51-0400
_audit_creation_method            fapswitch 2.2
_symmetry_space_group_name_H-M    P1
_symmetry_Int_Tables_number       1
_space_group_crystal_system       triclinic
_cell_length_a                    9.58318
_cell_length_b                    10.832773
_cell_length_c                    15.836057
_cell_angle_alpha                 89.119047
_cell_angle_beta                  72.781637
_cell_angle_gamma                 90.581394
_cell_volume                      1569.93040803

loop_
_atom_site_label
_atom_site_type_symbol
_atom_type_description
_atom_site_fract_x
_atom_site_fract_y
_atom_site_fract_z
_atom_type_partial_charge
C1    C     C_R   0.997992 0.262474 0.502721 0.544047
C2    C     C_R   0.220805 0.536431 0.049537 0.018836
C3    C     C_R   0.325746 0.525881 0.094679 0.021459
C4    C     C_R   0.916371 0.498071 0.671130 0.546040
C5    C     C_R   0.074504 0.505757 0.093812 -0.127144
C6    C     C_R   0.034009 0.466448 0.182743 0.014197
C7    C     C_R   0.277157 0.520368 0.187234 -0.154385
C8    C     C_R   0.114773 0.065197 0.517660 0.019040
C9    C     C_R   0.991583 0.129328 0.513315 0.007853
C10   C     C_R   0.861306 0.062769 0.521754 -0.166567
C11   C     C_R   0.862338 0.933938 0.521101 -0.169522
C12   C     C_R   0.668589 0.513590 0.904952 0.022763
C13   C     C_R   0.993705 0.870813 0.511774 0.006789
C14   C     C_R   0.116082 0.938044 0.516409 0.023308
C15   C     C_3   0.269364 0.937301 0.457007 -0.274633
C16   C     C_R   0.999323 0.737693 0.501934 0.549464
C17   C     C_3   0.268667 0.076913 0.459731 -0.266773
C18   C     C_R   0.586624 0.604172 0.475988 0.151613
C19   C     C_R   0.556316 0.403191 0.534463 -0.025898
C20   C     C_R   0.407400 0.403730 0.535250 -0.021067
C21   C     C_R   0.441605 0.601890 0.472201 0.161745
C22   C     C_3   0.487786 0.660073 0.381783 -0.281138
C23   C     C_R   0.766088 0.469490 0.950640 0.049116
C24   C     C_3   0.640197 0.674867 0.390986 -0.281416
C25   C     C_R   0.083199 0.494729 0.328857 0.545806
C26   C     C_R   0.867130 0.492325 0.767511 -0.003151
C27   C     C_R   0.130938 0.493170 0.231980 0.002604
C28   C     C_R   0.911560 0.442292 0.905160 -0.144844
C29   C     C_R   0.963520 0.459153 0.814487 -0.140248
C30   C     C_R   0.719972 0.512938 0.812457 -0.141889
C31   C     C_3   0.916689 0.366658 0.213967 -0.256326
C32   C     C_3   0.761841 0.414913 0.249109 -0.434170
C33   C     C_3   0.445048 0.678580 0.833487 -0.254525
C34   C     C_R   0.520668 0.542980 0.953220 0.038014
C35   C     C_3   0.554823 0.783278 0.833264 -0.291653
C36   C     C_3   0.594516 0.856958 0.746219 -0.452329
C37   C     C_R   0.474373 0.516185 0.046119 0.025364
C38   C     C_R   0.573266 0.466831 0.087462 -0.144338
C39   C     C_R   0.715897 0.444431 0.040450 -0.145155
C40   C     C_R   0.413433 0.593746 0.915227 -0.009196
C41   C     C_R   0.264508 0.575254 0.961283 -0.133238
Cu1   Cu    Cu3+1 0.140670 0.499980 0.500000 0.933756
Cu2   Cu    Cu3+1 0.859330 0.500020 0.500000 0.916753
H1    H     H_    0.785308 0.399723 0.073626 0.110580
H2    H     H_    0.337841 0.325114 0.563167 0.114737
H3    H     H_    0.482920 0.593754 0.329835 0.134152
H4    H     H_    0.352599 0.537344 0.224807 0.116713
H5    H     H_    0.435799 0.749127 0.377449 0.120581
H6    H     H_    0.726844 0.629359 0.339555 0.157461
H7    H     H_    0.667701 0.772076 0.402036 0.118104
H8    H     H_    0.181557 0.597156 0.929582 0.104743
H9    H     H_    0.984867 0.404740 0.939029 0.099719
H10   H     H_    0.076604 0.438804 0.780806 0.128578
H11   H     H_    0.646509 0.521749 0.773915 0.136583
H12   H     H_    0.995607 0.503106 0.057879 0.104793
H13   H     H_    0.539548 0.436462 0.155744 0.103246
H14   H     H_    0.732439 0.426019 0.321530 0.187302
H15   H     H_    0.749270 0.503322 0.215920 0.144839
H16   H     H_    0.683762 0.345367 0.237797 0.119822
H17   H     H_    0.922157 0.304303 0.157994 0.124279
H18   H     H_    0.940044 0.306762 0.265686 0.150547
H19   H     H_    0.647347 0.796193 0.690224 0.166339
H20   H     H_    0.495238 0.897715 0.735279 0.147295
H21   H     H_    0.672254 0.932839 0.748118 0.149542
H22   H     H_    0.505760 0.846222 0.888649 0.163265
H23   H     H_    0.760973 0.109584 0.524013 0.124118
H24   H     H_    0.656947 0.747499 0.842860 0.174468
H25   H     H_    0.473429 0.626800 0.771255 0.134125
H26   H     H_    0.342686 0.725198 0.832177 0.138182
H27   H     H_    0.762347 0.884743 0.523293 0.127379
H28   H     H_    0.345630 0.895588 0.489960 0.133276
H29   H     H_    0.275661 0.902369 0.390365 0.130299
H30   H     H_    0.342934 0.115256 0.495305 0.123819
H31   H     H_    0.277789 0.121851 0.394641 0.141259
H32   H     H_    0.597461 0.323712 0.561077 0.112512
N1    N     N_R   0.648210 0.500930 0.499430 -0.239414
N2    N     N_R   0.352300 0.500890 0.499430 -0.231061
O1    O     O_R   0.118810 0.319640 0.500000 -0.508738
O2    O     O_R   0.881230 0.319680 0.499990 -0.518067
O3    O     O_R   0.055580 0.499970 0.629840 -0.503152
O4    O     O_R   0.818000 0.500010 0.629830 -0.509321
O5    O     O_R   0.118770 0.680320 0.500010 -0.494128
O6    O     O_R   0.881190 0.680360 0.500000 -0.508213
O7    O     O_R   0.182000 0.499990 0.370170 -0.508816
O8    O     O_R   0.944420 0.500030 0.370160 -0.500706

loop_
_geom_bond_atom_site_label_1
_geom_bond_atom_site_label_2
_ccdc_geom_bond_type
C22   H5    S    
Cu1   O3    S    
C34   C37   A    
Cu2   O6    S    
C31   H18   S    
C35   C36   S    
Cu1   O5    S    
C32   H15   S    
C11   H27   S    
C15   H29   S    
C30   H11   S    
C12   C23   A    
C20   N2    A    
C34   C40   A    
C21   C22   S    
C19   N1    A    
C4    O3    A    
C3    C7    A    
C5    C6    A    
C23   C39   A    
C35   H22   S    
C2    C41   A    
Cu2   O2    S    
C18   C21   A    
Cu2   N1    S    
C7    C27   A    
C4    O4    A    
C31   C32   S    
C8    C9    A    
C25   O7    A    
C8    C14   A    
C18   C24   S    
C36   H20   S    
C9    C10   A    
C20   H2    S    
C33   H26   S    
C6    C31   S    
C13   C14   A    
C17   H30   S    
C1    O1    A    
C32   H14   S    
C36   H19   S    
C16   O5    A    
C10   H23   S    
C24   H7    S    
C33   C40   S    
Cu2   O8    S    
Cu1   O7    S    
C16   O6    A    
C7    H4    S    
C31   H17   S    
C37   C38   A    
C6    C27   A    
C35   H24   S    
C25   O8    A    
C1    C9    S    
C23   C28   A    
Cu1   N2    S    
C40   C41   A    
C22   H3    S    
Cu1   O1    S    
C17   H31   S    
C1    O2    A    
C22   C24   S    
C2    C5    A    
Cu1   Cu2   S    
C12   C34   A    
C24   H6    S    
C15   C17   S    
C28   C29   A    
C18   N1    A    
C12   C30   A    
C5    H12   S    
C4    C26   S    
C26   C30   A    
C39   H1    S    
C28   H9    S    
C25   C27   S    
C15   H28   S    
C8    C17   S    
C19   C20   A    
C19   H32   S    
C2    C3    A    
C11   C13   A    
C38   C39   A    
C29   H10   S    
Cu2   O4    S    
C33   C35   S    
C10   C11   A    
C38   H13   S    
C3    C37   A    
C26   C29   A    
C13   C16   S    
C21   N2    A    
C14   C15   S    
C32   H16   S    
C36   H21   S    
C41   H8    S    
C33   H25   S    
