data_mof_unit_32802.cif
_audit_creation_date              2012-10-26T20:07:45-0400
_audit_creation_method            fapswitch 2.2
_symmetry_space_group_name_H-M    P1
_symmetry_Int_Tables_number       1
_space_group_crystal_system       triclinic
_cell_length_a                    9.570664
_cell_length_b                    10.785787
_cell_length_c                    17.137524
_cell_angle_alpha                 87.940554
_cell_angle_beta                  94.170224
_cell_angle_gamma                 89.307425
_cell_volume                      1763.04245349

loop_
_atom_site_label
_atom_site_type_symbol
_atom_type_description
_atom_site_fract_x
_atom_site_fract_y
_atom_site_fract_z
_atom_type_partial_charge
C1    C     C_R   0.500411 0.262617 0.498821 0.559745
C2    C     C_R   0.063964 0.570956 0.445360 0.115908
C3    C     C_R   0.517330 0.499056 0.650876 0.566108
C4    C     C_R   0.482670 0.500953 0.349123 0.566110
C5    C     C_R   0.525799 0.499920 0.736880 0.009771
C6    C     C_R   0.474199 0.500116 0.263118 0.009749
C7    C     C_R   0.403081 0.510231 0.777153 0.372404
C8    C     C_R   0.596923 0.489901 0.222841 0.372416
C9    C     C_R   0.411595 0.509697 0.858361 -0.019981
C10   C     C_R   0.588406 0.490452 0.141633 -0.019999
C11   C     C_R   0.542627 0.498963 0.901318 0.173001
C12   C     C_R   0.499590 0.737382 0.501183 0.559736
C13   C     C_R   0.457366 0.501104 0.098680 0.172992
C14   C     C_R   0.664346 0.489763 0.861348 -0.102142
C15   C     C_R   0.335643 0.510218 0.138652 -0.102144
C16   C     C_R   0.656407 0.490284 0.779791 -0.183969
C17   C     C_R   0.343582 0.509681 0.220210 -0.183981
C18   C     C_R   0.427976 0.064672 0.554482 0.390775
C19   C     C_R   0.572037 0.935327 0.445534 0.390740
C20   C     C_2   0.356840 0.867306 0.621078 0.316438
C21   C     C_2   0.643248 0.132682 0.378971 0.316545
C22   C     C_2   0.877144 0.347812 0.615441 0.259657
C23   C     C_R   0.426901 0.935126 0.557723 -0.055801
C24   C     C_2   0.122856 0.652179 0.384555 0.259668
C25   C     C_R   0.573131 0.064871 0.442303 -0.055796
C26   C     C_R   0.499147 0.871351 0.502145 -0.083920
C27   C     C_R   0.500858 0.128647 0.497867 -0.083918
C28   C     C_R   0.084310 0.430274 0.553917 0.102628
C29   C     C_R   0.915690 0.569725 0.446082 0.102629
C30   C     C_R   0.936036 0.429041 0.554639 0.115922
Cu1   Cu    Cu3+1 0.640660 0.500020 0.500000 1.021990
Cu2   Cu    Cu3+1 0.359340 0.499980 0.500000 1.021963
F1    F     F_    0.725853 0.478799 0.261330 -0.594509
F2    F     F_    0.274160 0.521412 0.738661 -0.594539
F3    F     F_    0.363331 0.129657 0.608553 -0.553996
F4    F     F_    0.636671 0.870351 0.391455 -0.554024
H1    H     H_    0.684885 0.482523 0.112762 0.177465
H2    H     H_    0.620375 0.230140 0.365627 0.120308
H3    H     H_    0.770812 0.317136 0.610424 0.173676
H4    H     H_    0.229183 0.682870 0.389577 0.173668
H5    H     H_    0.315122 0.517703 0.887229 0.177465
H6    H     H_    0.765798 0.481800 0.893664 0.165512
H7    H     H_    0.234186 0.518122 0.106336 0.165515
H8    H     H_    0.752455 0.482660 0.750490 0.185289
H9    H     H_    0.247532 0.517233 0.249516 0.185297
H10   H     H_    0.149410 0.374037 0.596062 0.227078
H11   H     H_    0.850591 0.625963 0.403937 0.227108
H12   H     H_    0.379556 0.769801 0.634335 0.120436
N1    N     N_2   0.556679 0.497108 0.984299 -0.225209
N2    N     N_2   0.443314 0.502959 0.015699 -0.225201
N3    N     N_R   0.852070 0.500030 0.499980 -0.290306
N4    N     N_R   0.147930 0.499970 0.500020 -0.290304
O1    O     O_R   0.618740 0.319660 0.500000 -0.556715
O2    O     O_2   0.727514 0.080688 0.340568 -0.370131
O3    O     O_2   0.949823 0.311556 0.673536 -0.472560
O4    O     O_2   0.050184 0.688411 0.326452 -0.472519
O5    O     O_R   0.381260 0.680340 0.500000 -0.556748
O6    O     O_R   0.381170 0.319630 0.500010 -0.447700
O7    O     O_R   0.618830 0.680370 0.499990 -0.447685
O8    O     O_R   0.631780 0.498870 0.613920 -0.551296
O9    O     O_R   0.368220 0.501130 0.386080 -0.551289
O10   O     O_R   0.394210 0.498840 0.613930 -0.429639
O11   O     O_R   0.605790 0.501160 0.386070 -0.429621
O12   O     O_2   0.272817 0.919350 0.659609 -0.370068

loop_
_geom_bond_atom_site_label_1
_geom_bond_atom_site_label_2
_ccdc_geom_bond_type
Cu1   O8    S    
C20   O12   D    
C6    C8    A    
C30   N3    A    
C22   O3    D    
C11   N1    S    
Cu1   O11   S    
C25   C27   A    
C28   N4    A    
C18   F3    S    
C16   H8    S    
C9    H5    S    
Cu1   Cu2   S    
C20   C23   S    
Cu2   O6    S    
C14   H6    S    
C3    O8    A    
C28   C30   A    
Cu2   O10   S    
C1    O6    A    
Cu1   O1    S    
C9    C11   A    
C4    O11   A    
C28   H10   S    
C20   H12   S    
C2    N4    A    
Cu2   O5    S    
C29   H11   S    
C10   H1    S    
C12   O5    A    
C8    C10   A    
Cu1   N3    S    
C7    F2    S    
C17   H9    S    
Cu2   O9    S    
C5    C7    A    
C8    F1    S    
C2    C29   A    
C13   C15   A    
C2    C24   S    
C21   O2    D    
C19   C25   A    
C11   C14   A    
C14   C16   A    
C23   C26   A    
C4    C6    S    
C24   O4    D    
C22   H3    S    
C15   H7    S    
C13   N2    S    
C7    C9    A    
C21   H2    S    
C19   C26   A    
C1    C27   S    
N1    N2    D    
C29   N3    A    
C3    O10   A    
Cu1   O7    S    
C15   C17   A    
C6    C17   A    
C1    O1    A    
Cu2   N4    S    
C5    C16   A    
C21   C25   S    
C22   C30   S    
C24   H4    S    
C19   F4    S    
C12   O7    A    
C4    O9    A    
C18   C27   A    
C18   C23   A    
C12   C26   S    
C3    C5    S    
C10   C13   A    
