data_mof_unit_59325.cif
_audit_creation_date              2012-12-10T17:15:10-0500
_audit_creation_method            fapswitch 2.2
_symmetry_space_group_name_H-M    P1
_symmetry_Int_Tables_number       1
_space_group_crystal_system       triclinic
_cell_length_a                    10.357964
_cell_length_b                    10.513602
_cell_length_c                    12.744014
_cell_angle_alpha                 89.979636
_cell_angle_beta                  89.726848
_cell_angle_gamma                 93.297513
_cell_volume                      1385.5030839

loop_
_atom_site_label
_atom_site_type_symbol
_atom_type_description
_atom_site_fract_x
_atom_site_fract_y
_atom_site_fract_z
_atom_type_partial_charge
C1    C     C_R   0.447631 0.266520 0.493798 0.909671
C2    C     C_R   0.601846 0.366900 0.040523 0.414867
C3    C     C_R   0.401766 0.619119 0.851808 -0.252681
C4    C     C_R   0.607075 0.387420 0.147789 -0.247857
C5    C     C_R   0.521367 0.428586 0.870663 -0.212926
C6    C     C_R   0.480236 0.573424 0.129637 -0.213886
C7    C     C_R   0.532158 0.449006 0.977515 0.036467
C8    C     C_R   0.472690 0.555043 0.022429 0.037865
C9    C     C_2   0.423021 0.129927 0.485357 0.011396
C10   C     C_2   0.580464 0.871836 0.495123 -0.006126
C11   C     C_2   0.504669 0.069111 0.423118 -0.215400
C12   C     C_R   0.552875 0.734254 0.504966 0.892207
C13   C     C_2   0.508496 0.931422 0.424557 -0.229473
C14   C     C_3   0.678126 0.946826 0.564203 -0.413029
C15   C     C_3   0.750800 0.867839 0.642858 -0.808512
C16   C     C_3   0.315135 0.060581 0.548280 -0.423031
C17   C     C_3   0.263665 0.136981 0.640137 -0.844960
C18   C     C_3   0.884245 0.578785 0.386585 -0.360350
C19   C     C_3   0.895210 0.488214 0.293210 -0.808444
C20   C     C_3   0.090123 0.515166 0.638714 -0.392767
C21   C     C_3   0.127233 0.644064 0.688285 -0.781783
C22   C     C_3   0.863722 0.317186 0.564384 -0.266313
C23   C     C_2   0.064830 0.529323 0.522458 0.212530
C24   C     C_3   0.806965 0.274719 0.670432 -0.755337
C25   C     C_3   0.167056 0.660323 0.386825 -0.136869
C26   C     C_3   0.142078 0.786037 0.442250 -0.951703
C27   C     C_2   0.924924 0.516197 0.487227 0.180771
C28   C     C_R   0.473638 0.504440 0.697984 0.887498
C29   C     C_R   0.526684 0.495946 0.302040 0.889068
C30   C     C_R   0.543938 0.488458 0.191333 -0.123430
C31   C     C_R   0.458274 0.513951 0.808775 -0.125138
C32   C     C_R   0.406371 0.639355 0.959031 0.412132
Cl1   Cl    Cl    0.333072 0.774328 0.008933 -0.626036
Cl2   Cl    Cl    0.680440 0.235487 0.989781 -0.625850
H1    H     H_    0.433158 0.651057 0.166999 0.195067
H2    H     H_    0.750450 0.999036 0.513026 0.215850
H3    H     H_    0.626357 0.018547 0.609666 0.233778
H4    H     H_    0.344480 0.174481 0.690473 0.255163
H5    H     H_    0.207863 0.216742 0.611289 0.257255
H6    H     H_    0.197394 0.074085 0.688610 0.262102
H7    H     H_    0.233960 0.035163 0.494497 0.225517
H8    H     H_    0.350825 0.971997 0.582341 0.230275
H9    H     H_    0.996500 0.462662 0.280735 0.243276
H10   H     H_    0.836958 0.397967 0.307460 0.265651
H11   H     H_    0.860357 0.533857 0.220892 0.261785
H12   H     H_    0.565829 0.349212 0.833596 0.196568
H13   H     H_    0.789251 0.614419 0.392166 0.261364
H14   H     H_    0.931296 0.672361 0.371097 0.176998
H15   H     H_    0.217443 0.687519 0.653483 0.276896
H16   H     H_    0.048598 0.710164 0.676614 0.238326
H17   H     H_    0.140258 0.631648 0.773965 0.259569
H18   H     H_    0.002399 0.480458 0.681726 0.202980
H19   H     H_    0.161101 0.442817 0.653058 0.229737
H20   H     H_    0.838193 0.341953 0.733622 0.256738
H21   H     H_    0.699976 0.267725 0.668068 0.275095
H22   H     H_    0.840119 0.179109 0.690182 0.230019
H23   H     H_    0.654292 0.320869 0.197626 0.175062
H24   H     H_    0.818629 0.255775 0.502117 0.195524
H25   H     H_    0.968619 0.299926 0.563669 0.150502
H26   H     H_    0.048966 0.782689 0.485609 0.250859
H27   H     H_    0.220127 0.808544 0.499223 0.270508
H28   H     H_    0.141854 0.863706 0.383239 0.251430
H29   H     H_    0.265643 0.674594 0.354704 0.231832
H30   H     H_    0.112765 0.643009 0.313701 0.164743
H31   H     H_    0.360740 0.689165 0.801687 0.174376
H32   H     H_    0.439850 0.878610 0.374348 0.180206
H33   H     H_    0.580530 0.121715 0.379064 0.162758
H34   H     H_    0.681919 0.809268 0.692570 0.268063
H35   H     H_    0.817923 0.806010 0.601451 0.261909
H36   H     H_    0.809644 0.932672 0.694916 0.248869
N1    N     N_2   0.162330 0.550370 0.457540 -0.087946
N2    N     N_2   0.837670 0.449630 0.542460 -0.077084
O1    O     O_R   0.567930 0.307680 0.508550 -0.632788
O2    O     O_R   0.432070 0.692320 0.491450 -0.641401
O3    O     O_R   0.351090 0.340020 0.481290 -0.597479
O4    O     O_R   0.648910 0.659980 0.518710 -0.620212
O5    O     O_R   0.590490 0.486480 0.665020 -0.593656
O6    O     O_R   0.409510 0.513520 0.334980 -0.627827
O7    O     O_R   0.373660 0.518820 0.637760 -0.617801
O8    O     O_R   0.626340 0.481180 0.362240 -0.631412
Zn1   Zn    Zn3+2 0.644780 0.478400 0.518200 0.915018
Zn2   Zn    Zn3+2 0.355220 0.521600 0.481800 0.913363

loop_
_geom_bond_atom_site_label_1
_geom_bond_atom_site_label_2
_ccdc_geom_bond_type
C12   O2    A    
C2    C7    A    
C18   H13   S    
C21   H15   S    
C7    C8    A    
C24   H21   S    
C26   H27   S    
C17   H5    S    
C24   H20   S    
C6    H1    S    
C18   C19   S    
C25   H29   S    
O1    Zn1   S    
C28   O7    A    
C29   O6    A    
C19   H9    S    
C16   C17   S    
C4    H23   S    
C25   N1    S    
C23   C27   S    
N2    Zn1   S    
N1    Zn2   S    
C2    Cl2   S    
C3    H31   S    
O2    Zn2   S    
C22   N2    S    
C21   H16   S    
C11   H33   S    
C13   H32   S    
C15   H35   S    
C8    C32   A    
C23   N1    D    
C1    C9    S    
C10   C14   S    
C22   H25   S    
C5    C7    A    
O8    Zn1   S    
C6    C8    A    
C25   C26   S    
C25   H30   S    
C1    O3    A    
C2    C4    A    
C29   C30   S    
O6    Zn2   S    
C20   C23   S    
O5    Zn1   S    
C3    C31   A    
C28   O5    A    
C9    C11   D    
C10   C12   S    
C6    C30   A    
C12   O4    A    
C22   C24   S    
C16   H8    S    
C21   H17   S    
C19   H10   S    
C15   H36   S    
C9    C16   S    
C28   C31   S    
C18   C27   S    
C20   H19   S    
C10   C13   D    
C18   H14   S    
O4    Zn1   S    
C22   H24   S    
O7    Zn2   S    
C19   H11   S    
O3    Zn2   S    
C24   H22   S    
C5    H12   S    
C1    O1    A    
C32   Cl1   S    
C26   H28   S    
C20   H18   S    
C14   H3    S    
C14   H2    S    
C11   C13   S    
C29   O8    A    
C15   H34   S    
C17   H4    S    
C3    C32   A    
C20   C21   S    
C14   C15   S    
C26   H26   S    
C16   H7    S    
C17   H6    S    
C4    C30   A    
C27   N2    D    
C5    C31   A    
