data_mof_unit_37072.cif
_audit_creation_date              2012-12-10T17:23:42-0500
_audit_creation_method            fapswitch 2.2
_symmetry_space_group_name_H-M    P1
_symmetry_Int_Tables_number       1
_space_group_crystal_system       triclinic
_cell_length_a                    9.644081
_cell_length_b                    10.864952
_cell_length_c                    17.288942
_cell_angle_alpha                 91.159644
_cell_angle_beta                  87.339695
_cell_angle_gamma                 88.944941
_cell_volume                      1808.91543835

loop_
_atom_site_label
_atom_site_type_symbol
_atom_type_description
_atom_site_fract_x
_atom_site_fract_y
_atom_site_fract_z
_atom_type_partial_charge
C1    C     C_R   0.498684 0.736994 0.492131 0.784931
C2    C     C_R   0.358125 0.544073 0.776954 -0.194324
C3    C     C_R   0.397649 0.450329 0.146899 0.194912
C4    C     C_R   0.397069 0.470518 0.227046 -0.231168
C5    C     C_R   0.648736 0.463147 0.223820 -0.210481
C6    C     C_R   0.651421 0.446055 0.143936 -0.192949
C7    C     C_R   0.527489 0.443326 0.104905 0.139716
C8    C     C_2   0.475382 0.528795 0.980310 -0.254327
C9    C     C_2   0.538887 0.441583 0.020229 -0.245405
C10   C     C_R   0.521628 0.476931 0.265792 -0.076420
C11   C     C_R   0.394589 0.892805 0.349744 0.127516
C12   C     C_R   0.483471 0.501465 0.649735 0.790466
C13   C     C_R   0.374161 0.969351 0.286509 -0.141760
C14   C     C_R   0.400546 0.093042 0.290880 -0.206087
C15   C     C_R   0.440132 0.144471 0.359653 -0.197789
C16   C     C_R   0.462711 0.072194 0.424916 0.084983
C17   C     C_R   0.448852 0.941743 0.420425 0.058381
C18   C     C_R   0.494105 0.872096 0.485932 -0.104149
C19   C     C_R   0.543554 0.933766 0.550805 -0.188504
C20   C     C_R   0.546529 0.060709 0.555148 -0.205517
C21   C     C_R   0.504346 0.129684 0.493551 -0.076850
C22   C     C_R   0.870167 0.338687 0.396223 -0.158217
C23   C     C_R   0.501199 0.263015 0.501883 0.774933
C24   C     C_R   0.950593 0.264346 0.342943 0.160116
C25   C     C_R   0.093006 0.268059 0.344781 -0.286892
C26   C     C_R   0.155630 0.343593 0.396993 -0.177360
C27   C     C_R   0.080306 0.422175 0.449470 0.196038
C28   C     C_R   0.931457 0.421033 0.449378 0.165972
C29   C     C_R   0.920724 0.574733 0.548064 -0.055075
C30   C     C_R   0.068316 0.574609 0.548083 -0.072272
C31   C     C_R   0.516919 0.491594 0.350325 0.732630
C32   C     C_R   0.479633 0.507169 0.734327 -0.029723
C33   C     C_R   0.601102 0.480526 0.772987 -0.210373
C34   C     C_R   0.600917 0.489224 0.853091 -0.150319
C35   C     C_R   0.479185 0.524703 0.895706 0.195902
C36   C     C_R   0.358455 0.553934 0.857429 -0.174504
Cu1   Cu    Cu3+1 0.359340 0.500010 0.500010 0.925355
Cu2   Cu    Cu3+1 0.640660 0.499990 0.499990 0.933027
H1    H     H_    0.696548 0.452693 0.741394 0.154668
H2    H     H_    0.750825 0.438967 0.112072 0.137412
H3    H     H_    0.335977 0.933083 0.232803 0.127077
H4    H     H_    0.387564 0.150248 0.241089 0.149441
H5    H     H_    0.461341 0.241462 0.359559 0.119523
H6    H     H_    0.861441 0.636177 0.587564 0.135206
H7    H     H_    0.761578 0.329643 0.394011 0.211661
H8    H     H_    0.156908 0.212423 0.304195 0.168412
H9    H     H_    0.264070 0.337721 0.393005 0.218501
H10   H     H_    0.118551 0.636069 0.587538 0.135789
H11   H     H_    0.746094 0.466046 0.252546 0.167027
H12   H     H_    0.604681 0.371135 0.991048 0.154777
H13   H     H_    0.263966 0.581890 0.889947 0.120988
H14   H     H_    0.410082 0.598689 0.010565 0.150910
H15   H     H_    0.696134 0.469076 0.881581 0.125253
N1    N     N_R   0.852190 0.498790 0.499250 -0.193238
N2    N     N_R   0.148060 0.498710 0.499220 -0.196608
O1    O     O_R   0.381190 0.680360 0.500010 -0.573410
O2    O     O_R   0.618760 0.680340 0.500000 -0.570526
O3    O     O_R   0.367440 0.500030 0.613600 -0.577887
O4    O     O_R   0.605010 0.500010 0.613590 -0.585018
O5    O     O_R   0.381240 0.319660 0.500000 -0.586179
O6    O     O_R   0.618810 0.319640 0.499990 -0.597917
O7    O     O_R   0.394990 0.499990 0.386410 -0.615106
O8    O     O_R   0.632560 0.499970 0.386400 -0.598367
H16   H     H_    0.577854 0.882645 0.599909 0.140982
C37   C     C_3   0.349239 0.763917 0.337153 -0.400003
C38   C     C_3   0.200959 0.746448 0.369706 -0.715983
H17   H     H_    0.127261 0.800622 0.335728 0.220146
H18   H     H_    0.173554 0.647987 0.364972 0.244282
H19   H     H_    0.188534 0.777833 0.431132 0.259083
H20   H     H_    0.352279 0.737752 0.274517 0.181352
H21   H     H_    0.426290 0.704327 0.360642 0.210966
H22   H     H_    0.580912 0.105569 0.607253 0.140909
C39   C     C_3   0.892733 0.184370 0.279660 -0.421353
C40   C     C_3   0.743858 0.146054 0.294429 -0.832859
H23   H     H_    0.730754 0.105871 0.352786 0.266262
H24   H     H_    0.674029 0.227052 0.288881 0.248686
H25   H     H_    0.716714 0.075761 0.250412 0.252965
H26   H     H_    0.901334 0.233898 0.224087 0.205838
H27   H     H_    0.956840 0.098319 0.272401 0.212721
H28   H     H_    0.298526 0.480596 0.259338 0.172485
C41   C     C_3   0.259473 0.438571 0.108430 -0.420881
C42   C     C_3   0.169193 0.338424 0.143938 -0.884622
H29   H     H_    0.229807 0.251144 0.148238 0.253421
H30   H     H_    0.126698 0.368698 0.201939 0.253861
H31   H     H_    0.079955 0.321365 0.107057 0.240558
H32   H     H_    0.202098 0.528202 0.113796 0.193211
H33   H     H_    0.273498 0.414548 0.045997 0.225134
H34   H     H_    0.263819 0.566564 0.748173 0.146036

loop_
_geom_bond_atom_site_label_1
_geom_bond_atom_site_label_2
_ccdc_geom_bond_type
C38   H18   S    
C16   C21   A    
C39   C40   S    
C35   C36   A    
C13   H3    S    
C41   C42   S    
C1    C18   S    
C33   H1    S    
C40   H24   S    
C30   H10   S    
Cu1   Cu2   S    
C18   C19   A    
C3    C7    A    
C5    C6    A    
C27   N2    A    
C24   C39   S    
C38   H19   S    
C29   N1    A    
C15   C16   A    
C2    C32   A    
C34   C35   A    
C12   O4    A    
C10   C31   S    
C19   C20   A    
C8    C9    D    
C40   H25   S    
C3    C41   S    
C39   H26   S    
C2    H34   S    
C8    H14   S    
Cu1   O3    S    
C14   H4    S    
Cu2   O6    S    
C12   O3    A    
C38   H17   S    
C22   C28   A    
C13   C14   A    
C12   C32   S    
Cu1   O1    S    
C31   O7    A    
C5    H11   S    
C33   C34   A    
C23   O5    A    
C40   H23   S    
C31   O8    A    
C24   C25   A    
C28   N1    A    
C16   C17   A    
C25   C26   A    
C37   H21   S    
C8    C35   S    
C29   C30   A    
C1    O2    A    
Cu2   O2    S    
Cu2   N1    S    
C19   H16   S    
C17   C18   A    
C39   H27   S    
C41   H33   S    
C36   H13   S    
C26   H9    S    
C42   H29   S    
C42   H30   S    
C21   C23   S    
C29   H6    S    
C26   C27   A    
C22   C24   A    
C4    C10   A    
C3    C4    A    
Cu2   O8    S    
C2    C36   A    
C7    C9    S    
C11   C17   A    
C1    O1    A    
C9    H12   S    
C41   H32   S    
C4    H28   S    
C6    C7    A    
C42   H31   S    
C30   N2    A    
C32   C33   A    
C15   H5    S    
C5    C10   A    
C11   C13   A    
C6    H2    S    
Cu1   O5    S    
Cu2   O4    S    
Cu1   N2    S    
C23   O6    A    
C22   H7    S    
C20   C21   A    
C34   H15   S    
C37   C38   S    
C27   C28   A    
Cu1   O7    S    
C14   C15   A    
C20   H22   S    
C37   H20   S    
C25   H8    S    
C11   C37   S    
