data_mof_unit_28566.cif
_audit_creation_date              2012-12-10T18:18:26-0500
_audit_creation_method            fapswitch 2.2
_symmetry_space_group_name_H-M    P1
_symmetry_Int_Tables_number       1
_space_group_crystal_system       triclinic
_cell_length_a                    14.172992
_cell_length_b                    14.925632
_cell_length_c                    15.378477
_cell_angle_alpha                 88.925128
_cell_angle_beta                  68.996892
_cell_angle_gamma                 90.500384
_cell_volume                      3036.08768606

loop_
_atom_site_label
_atom_site_type_symbol
_atom_type_description
_atom_site_fract_x
_atom_site_fract_y
_atom_site_fract_z
_atom_type_partial_charge
C1    C     C_R   0.499320 0.672717 0.502689 0.866972
C2    C     C_R   0.498181 0.768122 0.507286 -0.217599
C3    C     C_R   0.587030 0.187267 0.436704 0.370265
C4    C     C_R   0.413611 0.812360 0.568471 0.390488
C5    C     C_R   0.582275 0.093563 0.429123 -0.118683
C6    C     C_R   0.409280 0.905887 0.560234 0.029686
C7    C     C_R   0.495572 0.046445 0.490554 -0.004516
C8    C     C_R   0.494231 0.952950 0.495956 -0.072955
C9    C     C_R   0.410736 0.092923 0.547858 0.093625
C10   C     C_R   0.579119 0.906631 0.438260 0.035627
C11   C     C_R   0.661021 0.044893 0.363969 0.417532
C12   C     C_R   0.500358 0.327053 0.498143 0.920620
C13   C     C_R   0.323323 0.953724 0.614986 0.481821
C14   C     C_R   0.660511 0.952236 0.372263 -0.177430
C15   C     C_R   0.325143 0.047196 0.607479 -0.345505
C16   C     C_R   0.436886 0.498778 0.676214 0.847199
C17   C     C_R   0.562715 0.499647 0.323993 0.883145
C18   C     C_R   0.195422 0.421005 0.512565 0.572859
C19   C     C_R   0.810176 0.575371 0.473653 0.532831
C20   C     C_R   0.212966 0.576391 0.473122 0.546956
C21   C     C_R   0.787201 0.423505 0.526708 0.540331
C22   C     C_R   0.106614 0.580742 0.488336 -0.206963
C23   C     C_R   0.360032 0.445370 0.115111 0.344458
C24   C     C_R   0.888049 0.420648 0.526718 -0.211653
C25   C     C_R   0.048085 0.500507 0.506693 -0.117222
C26   C     C_R   0.946968 0.500371 0.507120 -0.137285
C27   C     C_R   0.092640 0.419612 0.518862 -0.203765
C28   C     C_R   0.905822 0.579615 0.485103 -0.249746
C29   C     C_R   0.056148 0.662129 0.485481 0.468488
C30   C     C_R   0.930981 0.340492 0.546454 0.434941
C31   C     C_R   0.959918 0.661336 0.477803 0.473497
C32   C     C_R   0.034977 0.338630 0.534406 0.430224
C33   C     C_R   0.396785 0.489305 0.778228 -0.127716
C34   C     C_R   0.584747 0.376825 0.919193 0.327854
C35   C     C_R   0.598138 0.483222 0.224103 -0.157186
C36   C     C_R   0.257297 0.494425 0.926973 0.561739
C37   C     C_R   0.716621 0.413446 0.088012 0.556150
C38   C     C_R   0.294504 0.502682 0.829556 -0.287436
C39   C     C_R   0.693490 0.448366 0.177089 -0.285259
C40   C     C_R   0.460982 0.462766 0.824151 -0.233476
C41   C     C_R   0.527531 0.487212 0.180529 -0.206465
C42   C     C_R   0.424524 0.446103 0.920555 -0.011516
C43   C     C_R   0.543536 0.444191 0.096854 -0.025052
C44   C     C_R   0.322492 0.466279 0.973599 -0.163726
C45   C     C_R   0.289396 0.458357 0.071619 0.485244
C46   C     C_R   0.642097 0.413003 0.045905 -0.164525
C47   C     C_R   0.491199 0.418920 0.965750 -0.143995
C48   C     C_R   0.464741 0.436860 0.060566 -0.142136
C49   C     C_3   0.140658 0.384444 0.145009 -0.172304
C50   C     C_3   0.813060 0.417130 0.845380 -0.241125
C51   C     C_3   0.286198 0.316650 0.414245 -0.180696
C52   C     C_3   0.821442 0.640955 0.336658 -0.205074
C53   C     C_3   0.296791 0.713186 0.414760 -0.121541
C54   C     C_3   0.671669 0.338989 0.641694 -0.103057
C55   C     C_3   0.077607 0.749565 0.596417 -0.330186
C56   C     C_R   0.661932 0.379922 0.955894 0.507310
C57   C     C_3   0.859339 0.234591 0.662088 -0.274998
C58   C     C_3   0.852623 0.774790 0.546361 -0.176084
C59   C     C_3   0.076694 0.197030 0.475299 -0.222839
C60   C     C_3   0.141686 0.603608 0.981178 -0.226094
C61   C     C_3   0.817466 0.294046 0.079603 -0.211499
C62   C     C_R   0.412700 0.185212 0.546035 -0.304974
C63   C     C_R   0.580077 0.814556 0.444205 -0.264549
C64   C     C_R   0.500535 0.231470 0.493014 -0.122958
H1    H     H_    0.458065 0.522448 0.214359 0.232966
H2    H     H_    0.145305 0.351018 0.079500 0.151448
H3    H     H_    0.059461 0.393534 0.186686 0.181741
H4    H     H_    0.821694 0.475493 0.886126 0.169297
H5    H     H_    0.779114 0.438989 0.793668 0.127137
H6    H     H_    0.889957 0.392431 0.806296 0.182785
H7    H     H_    0.315307 0.247576 0.410923 0.162950
H8    H     H_    0.350671 0.361582 0.375086 0.180723
H9    H     H_    0.230179 0.317525 0.378805 0.141303
H10   H     H_    0.789786 0.694056 0.304289 0.156906
H11   H     H_    0.904668 0.652329 0.311983 0.173753
H12   H     H_    0.540748 0.457337 0.784426 0.182663
H13   H     H_    0.804402 0.575372 0.311810 0.148425
H14   H     H_    0.276464 0.727536 0.489746 0.194268
H15   H     H_    0.257052 0.757825 0.381241 0.199983
H16   H     H_    0.378260 0.729937 0.379663 0.149881
H17   H     H_    0.700333 0.381593 0.685948 0.128990
H18   H     H_    0.670584 0.268143 0.664691 0.196919
H19   H     H_    0.591847 0.354208 0.654897 0.161390
H20   H     H_    0.125926 0.702011 0.617443 0.175278
H21   H     H_    0.997112 0.737076 0.641154 0.134841
H22   H     H_    0.098477 0.818298 0.609907 0.238829
H23   H     H_    0.749071 0.445348 0.210383 0.174551
H24   H     H_    0.929194 0.208853 0.669531 0.203566
H25   H     H_    0.803242 0.178559 0.682779 0.189305
H26   H     H_    0.828806 0.289502 0.711493 0.183430
H27   H     H_    0.796816 0.817457 0.530541 0.195756
H28   H     H_    0.893790 0.817929 0.579310 0.160003
H29   H     H_    0.809080 0.721276 0.596693 0.114979
H30   H     H_    0.145501 0.155678 0.456269 0.169214
H31   H     H_    0.075798 0.230095 0.409942 0.128415
H32   H     H_    0.011029 0.150302 0.503910 0.206708
H33   H     H_    0.155007 0.634687 0.911381 0.144735
H34   H     H_    0.243415 0.521687 0.794471 0.174036
H35   H     H_    0.190710 0.636422 0.014379 0.167657
H36   H     H_    0.062017 0.616027 0.025494 0.190846
H37   H     H_    0.757763 0.248252 0.073510 0.163396
H38   H     H_    0.812384 0.296801 0.153387 0.154283
H39   H     H_    0.891721 0.265244 0.038851 0.194058
H40   H     H_    0.365422 0.387262 0.225360 0.310619
H41   H     H_    0.532835 0.304048 0.842830 0.331695
H42   H     H_    0.731963 0.201592 0.396967 0.379466
H43   H     H_    0.361781 0.709130 0.652944 0.321059
H44   H     H_    0.707125 0.135670 0.266405 0.347058
H45   H     H_    0.347344 0.221434 0.589830 0.210416
H46   H     H_    0.185725 0.952593 0.706648 0.319177
H47   H     H_    0.643550 0.778368 0.397555 0.186184
H48   H     H_    0.722723 0.915519 0.324474 0.168334
H49   H     H_    0.260095 0.084549 0.649780 0.160014
H50   H     H_    0.172493 0.340574 0.186613 0.147751
N1    N     N_R   0.249980 0.499930 0.499960 -0.195458
N2    N     N_R   0.750020 0.500070 0.500040 -0.199861
O1    O     O_R   0.419720 0.632140 0.499980 -0.615533
O2    O     O_3   0.755680 0.346935 0.903938 -0.551579
O3    O     O_3   0.244049 0.341037 0.508835 -0.548477
O4    O     O_3   0.777310 0.646739 0.434467 -0.559020
O5    O     O_3   0.281006 0.623201 0.396947 -0.584451
O6    O     O_3   0.729343 0.345925 0.545547 -0.531556
O7    O     O_3   0.093497 0.743753 0.500493 -0.616820
O8    O     O_3   0.874102 0.261603 0.569336 -0.582140
O9    O     O_3   0.920540 0.741950 0.461668 -0.559558
O10   O     O_3   0.079148 0.258036 0.543974 -0.582154
O11   O     O_3   0.156175 0.510228 0.975534 -0.580706
O12   O     O_R   0.580280 0.367860 0.500020 -0.526232
O13   O     O_3   0.812228 0.380368 0.042767 -0.583565
O14   O     O_3   0.322319 0.432253 0.210361 -0.759685
O15   O     O_3   0.599637 0.323490 0.843498 -0.809485
O16   O     O_3   0.674598 0.236913 0.393211 -0.744338
O17   O     O_3   0.336097 0.766058 0.636633 -0.720701
O18   O     O_3   0.736489 0.084139 0.288816 -0.776670
O19   O     O_3   0.238425 0.908797 0.674768 -0.719544
O20   O     O_R   0.580270 0.632160 0.499970 -0.555192
O21   O     O_R   0.419730 0.367840 0.500030 -0.597933
O22   O     O_R   0.373870 0.499980 0.632250 -0.616157
O23   O     O_R   0.626130 0.500020 0.367750 -0.609720
O24   O     O_R   0.534420 0.500000 0.632240 -0.643888
O25   O     O_R   0.465580 0.500000 0.367760 -0.594911
O26   O     O_3   0.188997 0.469419 0.126621 -0.541913
Zn1   Zn    Zn3+2 0.392800 0.499980 0.500010 0.988482
Zn2   Zn    Zn3+2 0.607200 0.500020 0.499990 0.999509

loop_
_geom_bond_atom_site_label_1
_geom_bond_atom_site_label_2
_ccdc_geom_bond_type
C34   C56   A    
C23   C45   A    
C22   C29   A    
C13   O19   S    
C35   C39   A    
C10   C63   A    
C39   H23   S    
C38   H34   S    
C60   H35   S    
C7    C8    A    
H41   O15   S    
C3    C64   A    
C44   C45   A    
C59   O10   S    
C14   H48   S    
C59   H31   S    
C61   H39   S    
C50   H5    S    
C24   C26   A    
C5    C11   A    
C52   H10   S    
O22   Zn1   S    
O25   Zn1   S    
O20   Zn2   S    
C11   C14   A    
C17   O25   A    
C1    C2    S    
C32   O10   S    
C21   O6    S    
C62   C64   A    
N2    Zn2   S    
C22   C25   A    
C51   O3    S    
C15   H49   S    
H43   O17   S    
C59   H30   S    
C1    O20   A    
C58   H27   S    
C37   C46   A    
C61   O13   S    
C52   H11   S    
C40   C42   A    
C49   H50   S    
O21   Zn1   S    
H40   O14   S    
C41   C43   A    
H46   O19   S    
C16   O24   A    
C42   C44   A    
C21   N2    A    
C54   H19   S    
C55   O7    S    
C28   C31   A    
C37   C39   A    
N1    Zn1   S    
C33   C40   A    
C57   H26   S    
C3    O16   S    
C51   H9    S    
C53   H16   S    
C4    C6    A    
C60   H33   S    
C49   H2    S    
C11   O18   S    
C5    C7    A    
C6    C8    A    
C3    C5    A    
C25   C26   A    
C9    C62   A    
C23   O14   S    
C55   H21   S    
C61   H37   S    
H44   O18   S    
C16   C33   S    
O23   Zn2   S    
C47   C48   A    
C49   O26   S    
C17   O23   A    
C1    O1    A    
C19   C28   A    
O12   Zn2   S    
C20   O5    S    
C57   H25   S    
C52   O4    S    
C30   O8    S    
C19   O4    S    
C13   C15   A    
C10   C14   A    
C45   O26   S    
C36   C44   A    
C36   O11   S    
C51   H8    S    
C31   O9    S    
C52   H13   S    
C54   H18   S    
C2    C63   A    
C43   C48   A    
C7    C9    A    
C23   C48   A    
C49   H3    S    
C53   H15   S    
C27   C32   A    
C50   O2    S    
C56   O2    S    
C58   H29   S    
C60   O11   S    
C16   O22   A    
C18   C27   A    
O24   Zn2   S    
C20   C22   A    
C60   H36   S    
C18   N1    A    
C34   O15   S    
C20   N1    A    
C41   H1    S    
C51   H7    S    
C12   O12   A    
C25   C27   A    
C26   C28   A    
C33   C38   A    
C57   H24   S    
C55   H22   S    
C36   C38   A    
C61   H38   S    
C50   H6    S    
C29   C31   A    
C53   O5    S    
C57   O8    S    
C30   C32   A    
C62   H45   S    
C58   H28   S    
C19   N2    A    
C12   C64   S    
C2    C4    A    
C29   O7    S    
C37   O13   S    
C53   H14   S    
C42   C47   A    
C63   H47   S    
C35   C41   A    
C43   C46   A    
C24   C30   A    
H42   O16   S    
C40   H12   S    
C54   O6    S    
O1    Zn1   S    
C58   O9    S    
C8    C10   A    
C59   H32   S    
C21   C24   A    
C46   C56   A    
C12   O21   A    
C34   C47   A    
C17   C35   S    
C55   H20   S    
C50   H4    S    
C18   O3    S    
C54   H17   S    
C9    C15   A    
C4    O17   S    
C6    C13   A    
