data_mof_unit_24328.cif
_audit_creation_date              2012-12-10T18:58:13-0500
_audit_creation_method            fapswitch 2.2
_symmetry_space_group_name_H-M    P1
_symmetry_Int_Tables_number       1
_space_group_crystal_system       triclinic
_cell_length_a                    10.632735
_cell_length_b                    9.923476
_cell_length_c                    15.665799
_cell_angle_alpha                 89.335883
_cell_angle_beta                  91.442462
_cell_angle_gamma                 89.681445
_cell_volume                      1652.29314767

loop_
_atom_site_label
_atom_site_type_symbol
_atom_type_description
_atom_site_fract_x
_atom_site_fract_y
_atom_site_fract_z
_atom_type_partial_charge
C1    C     C_R   0.871956 0.497777 0.501210 -0.383515
C2    C     C_R   0.562856 0.368862 0.958232 0.401937
C3    C     C_R   0.569337 0.491978 0.913312 -0.260502
C4    C     C_R   0.568795 0.494111 0.089347 -0.267888
C5    C     C_1   0.544368 0.494508 0.824276 0.110356
C6    C     C_1   0.541837 0.499528 0.177094 0.131676
C7    C     C_1   0.519836 0.501601 0.250930 -0.191623
C8    C     C_1   0.522135 0.496997 0.749672 -0.205076
C9    C     C_R   0.595899 0.070447 0.539477 0.348648
C10   C     C_R   0.404397 0.929500 0.460156 0.345918
C11   C     C_R   0.405000 0.073514 0.459642 0.363625
C12   C     C_R   0.127919 0.502240 0.498895 -0.384022
C13   C     C_R   0.594904 0.926458 0.540449 0.362841
C14   C     C_R   0.062268 0.442863 0.430719 0.402154
C15   C     C_R   0.937547 0.557221 0.569386 0.398620
C16   C     C_R   0.932082 0.435103 0.433762 0.346699
C17   C     C_R   0.067721 0.565269 0.566194 0.344568
C18   C     C_3   0.685566 0.171201 0.657083 -0.207394
C19   C     C_3   0.317145 0.829830 0.341299 -0.189252
C20   C     C_3   0.320475 0.154833 0.332969 -0.079240
C21   C     C_3   0.678912 0.846528 0.667644 -0.067300
C22   C     C_3   0.729574 0.757704 0.107032 -0.268601
C23   C     C_R   0.260483 0.500563 0.499115 1.048711
C24   C     C_3   0.655173 0.199754 0.885512 -0.291336
C25   C     C_3   0.484516 0.799681 0.901758 -0.232630
C26   C     C_3   0.647701 0.204084 0.132456 -0.281065
C27   C     C_3   0.110339 0.478366 0.291229 -0.343064
C28   C     C_3   0.889948 0.523859 0.709214 -0.330341
C29   C     C_3   0.873016 0.236082 0.374091 -0.208169
C30   C     C_3   0.126327 0.765539 0.624236 -0.193021
C31   C     C_R   0.739475 0.499444 0.500950 1.046849
C32   C     C_R   0.500749 0.500679 0.339058 0.864289
C33   C     C_R   0.501627 0.499236 0.660974 0.884384
C34   C     C_R   0.586627 0.614434 0.955695 0.371538
C35   C     C_R   0.561796 0.369875 0.047261 0.386321
C36   C     C_R   0.591058 0.614681 0.044862 0.373475
H1    H     H_    0.704671 0.279945 0.664366 0.177566
H2    H     H_    0.675981 0.739307 0.687275 0.211967
H3    H     H_    0.592977 0.896713 0.692115 0.063556
H4    H     H_    0.763120 0.888976 0.700323 0.146059
H5    H     H_    0.784835 0.766818 0.047827 0.174478
H6    H     H_    0.769762 0.676752 0.149511 0.148923
H7    H     H_    0.738389 0.854269 0.141587 0.171063
H8    H     H_    0.723378 0.177647 0.938781 0.156736
H9    H     H_    0.697585 0.270599 0.839001 0.130081
H10   H     H_    0.636860 0.103791 0.851936 0.179905
H11   H     H_    0.450865 0.832798 0.964842 0.207494
H12   H     H_    0.757876 0.118187 0.697153 0.129554
H13   H     H_    0.412487 0.735479 0.869616 0.143889
H14   H     H_    0.495928 0.891162 0.861411 0.175214
H15   H     H_    0.629272 0.102966 0.160202 0.188352
H16   H     H_    0.677122 0.270458 0.185861 0.166185
H17   H     H_    0.726005 0.193037 0.087296 0.138204
H18   H     H_    0.117667 0.586746 0.308276 0.140044
H19   H     H_    0.018692 0.459521 0.258110 0.214595
H20   H     H_    0.185537 0.456857 0.245412 0.168257
H21   H     H_    0.881110 0.415292 0.693062 0.135567
H22   H     H_    0.816046 0.547269 0.755604 0.175290
H23   H     H_    0.590791 0.149818 0.683048 0.133445
H24   H     H_    0.982375 0.542205 0.741383 0.220190
H25   H     H_    0.801546 0.190858 0.330475 0.149848
H26   H     H_    0.854746 0.197758 0.439676 0.204820
H27   H     H_    0.966935 0.201397 0.353595 0.197019
H28   H     H_    0.144916 0.802627 0.558419 0.199984
H29   H     H_    0.197405 0.811800 0.667692 0.160079
H30   H     H_    0.032164 0.800385 0.644167 0.196769
H31   H     H_    0.297383 0.721363 0.333069 0.174712
H32   H     H_    0.412680 0.850848 0.316454 0.134769
H33   H     H_    0.246089 0.884048 0.300852 0.134034
H34   H     H_    0.323490 0.262341 0.314011 0.206078
H35   H     H_    0.236109 0.113026 0.300121 0.144562
H36   H     H_    0.406307 0.104942 0.308106 0.077331
N1    N     N_R   0.500000 0.857200 0.500000 -0.205522
N2    N     N_R   0.500000 0.142800 0.500000 -0.205412
O1    O     O_R   0.316770 0.614620 0.499990 -0.573671
O2    O     O_3   0.300176 0.863045 0.427746 -0.574031
O3    O     O_3   0.305326 0.144146 0.422302 -0.539655
O4    O     O_3   0.694189 0.855750 0.578249 -0.541190
O5    O     O_3   0.601278 0.735214 0.087848 -0.576977
O6    O     O_3   0.540270 0.249404 0.915884 -0.549905
O7    O     O_3   0.601860 0.733145 0.909861 -0.598029
O8    O     O_3   0.536290 0.251512 0.091116 -0.554958
O9    O     O_3   0.126850 0.391375 0.362633 -0.589902
O10   O     O_3   0.872847 0.609505 0.637216 -0.589863
O11   O     O_3   0.861967 0.377683 0.367978 -0.616581
O12   O     O_R   0.683230 0.385380 0.500010 -0.573736
O13   O     O_3   0.137736 0.624069 0.631489 -0.612649
O14   O     O_R   0.683230 0.614620 0.500010 -0.555970
O15   O     O_R   0.316770 0.385380 0.499990 -0.554580
O16   O     O_R   0.499980 0.614630 0.378020 -0.626867
O17   O     O_R   0.500020 0.385370 0.621980 -0.627483
O18   O     O_R   0.500020 0.614630 0.621980 -0.606683
O19   O     O_R   0.499980 0.385370 0.378020 -0.605861
O20   O     O_3   0.700951 0.136652 0.570743 -0.569910
Zn1   Zn    Zn3+2 0.500000 0.653120 0.500000 1.011871
Zn2   Zn    Zn3+2 0.500000 0.346880 0.500000 1.012374

loop_
_geom_bond_atom_site_label_1
_geom_bond_atom_site_label_2
_ccdc_geom_bond_type
C2    C35   A    
C4    C36   A    
C30   H28   S    
C28   O10   S    
C29   H27   S    
C27   H18   S    
O1    Zn1   S    
O16   Zn1   S    
C28   H21   S    
C12   C23   S    
C20   O3    S    
C24   H9    S    
C19   O2    S    
C18   H1    S    
C22   O5    S    
C33   O17   A    
C10   N1    A    
C27   H19   S    
C22   H5    S    
C1    C31   S    
C9    C13   A    
C25   H14   S    
C11   O3    S    
O17   Zn2   S    
C13   O4    S    
C10   O2    S    
C24   O6    S    
C32   O16   A    
C21   H2    S    
C12   C17   A    
C23   O15   A    
C20   H35   S    
C19   H31   S    
C1    C15   A    
C34   O7    S    
C25   H11   S    
C29   O11   S    
C32   O19   A    
O14   Zn1   S    
C26   O8    S    
C31   O12   A    
C25   O7    S    
C20   H34   S    
C14   O9    S    
C35   O8    S    
C28   H24   S    
C29   H25   S    
N2    Zn2   S    
C4    C6    S    
C33   O18   A    
C27   H20   S    
C3    C34   A    
C11   N2    A    
O18   Zn1   S    
C21   O4    S    
C26   H16   S    
C22   H7    S    
C21   H3    S    
C19   H32   S    
C1    C16   A    
C30   H30   S    
C15   O10   S    
O12   Zn2   S    
C13   N1    A    
O19   Zn2   S    
C16   O11   S    
C18   O20   S    
C14   C16   A    
C19   H33   S    
C9    N2    A    
N1    Zn1   S    
C26   H17   S    
C15   C17   A    
C29   H26   S    
C7    C32   S    
C17   O13   S    
C23   O1    A    
C3    C5    S    
C36   O5    S    
C18   H12   S    
C5    C8    T    
C6    C7    T    
C28   H22   S    
C24   H10   S    
O15   Zn2   S    
C27   O9    S    
C2    C3    A    
C12   C14   A    
C26   H15   S    
C22   H6    S    
C21   H4    S    
C24   H8    S    
C34   C36   A    
C8    C33   S    
C25   H13   S    
C4    C35   A    
C30   H29   S    
C2    O6    S    
C10   C11   A    
C18   H23   S    
C31   O14   A    
C20   H36   S    
C30   O13   S    
C9    O20   S    
