data_mof_unit_48946.cif
_audit_creation_date              2012-12-10T17:48:49-0500
_audit_creation_method            fapswitch 2.2
_symmetry_space_group_name_H-M    P1
_symmetry_Int_Tables_number       1
_space_group_crystal_system       triclinic
_cell_length_a                    10.76343
_cell_length_b                    14.742156
_cell_length_c                    14.827887
_cell_angle_alpha                 64.477134
_cell_angle_beta                  105.352004
_cell_angle_gamma                 101.788349
_cell_volume                      2036.43072476

loop_
_atom_site_label
_atom_site_type_symbol
_atom_type_description
_atom_site_fract_x
_atom_site_fract_y
_atom_site_fract_z
_atom_type_partial_charge
C1    C     C_R   0.477267 0.119706 0.312095 0.819736
C2    C     C_3   0.876248 0.997248 0.500146 -0.045802
C3    C     C_3   0.955075 0.961496 0.613108 -0.119382
C4    C     C_3   0.935584 0.105925 0.437864 0.086258
C5    C     C_R   0.460132 0.187596 0.203363 -0.055826
C6    C     C_R   0.507766 0.814558 0.795470 -0.140194
C7    C     C_R   0.420435 0.216863 0.024119 0.163825
C8    C     C_R   0.433978 0.150351 0.127255 -0.194220
C9    C     C_R   0.469764 0.291447 0.176270 -0.222321
C10   C     C_R   0.450071 0.360129 0.073924 0.052590
C11   C     C_R   0.429571 0.322259 0.997252 0.137680
C12   C     C_R   0.260382 0.999360 0.501463 0.827499
C13   C     C_R   0.454206 0.465774 0.046500 0.089699
C14   C     C_R   0.455397 0.533980 0.943860 0.089650
C15   C     C_R   0.432966 0.493892 0.869083 -0.197723
C16   C     C_R   0.418461 0.390380 0.895242 -0.157962
C17   C     C_R   0.453606 0.505133 0.118015 -0.225323
C18   C     C_R   0.462207 0.608151 0.091377 -0.167838
C19   C     C_R   0.475119 0.676874 0.992917 0.117728
C20   C     C_R   0.474842 0.640075 0.918980 0.041530
C21   C     C_R   0.487139 0.781729 0.967438 0.086958
C22   C     C_R   0.500868 0.850961 0.868208 0.258307
C23   C     C_R   0.515606 0.880799 0.687870 0.882963
C24   C     C_R   0.497017 0.710270 0.823029 -0.277865
C25   C     C_R   0.760377 0.307752 0.622374 0.135070
C26   C     C_R   0.702945 0.213186 0.622331 0.423686
C27   C     C_R   0.513911 0.286678 0.508277 0.245788
C28   C     C_R   0.566848 0.384998 0.504850 -0.044481
C29   C     C_R   0.693693 0.394047 0.561913 -0.017142
C30   C     C_R   0.497183 0.474087 0.451179 0.123835
C31   C     C_R   0.547592 0.562475 0.470926 0.085006
C32   C     C_R   0.680404 0.572277 0.511901 -0.183657
C33   C     C_R   0.751552 0.489711 0.557853 -0.105063
C34   C     C_R   0.739040 0.999570 0.499247 0.860328
C35   C     C_R   0.384535 0.482034 0.373995 -0.191550
C36   C     C_R   0.314735 0.565710 0.331358 -0.195676
C37   C     C_R   0.351674 0.643450 0.366013 0.130800
C38   C     C_R   0.467128 0.642038 0.439076 -0.057467
C39   C     C_R   0.274357 0.722888 0.327606 -0.303864
C40   C     C_R   0.309219 0.799342 0.363623 0.035851
C41   C     C_R   0.492216 0.717710 0.479752 0.375676
C42   C     C_3   0.032384 0.922386 0.456051 -0.022864
C43   C     C_3   0.888441 0.926453 0.450579 -0.404277
C44   C     C_3   0.103586 0.969364 0.615487 0.384011
C45   C     C_3   0.075925 0.103266 0.432402 -0.515724
C46   C     C_3   0.121979 0.996996 0.503778 0.026192
Cu1   Cu    Cu3+1 0.465900 0.918260 0.475680 0.986294
Cu2   Cu    Cu3+1 0.534100 0.081740 0.524320 1.018343
H1    H     H_    0.937793 0.155787 0.477348 0.184827
H2    H     H_    0.942107 0.015356 0.643056 0.224025
H3    H     H_    0.399972 0.364240 0.834474 0.193709
H4    H     H_    0.508682 0.684760 0.768342 0.213798
H5    H     H_    0.459954 0.633449 0.149481 0.185257
H6    H     H_    0.426773 0.069700 0.148086 0.155405
H7    H     H_    0.496677 0.317520 0.236995 0.160941
H8    H     H_    0.045297 0.951655 0.375582 0.152470
H9    H     H_    0.420759 0.540610 0.788579 0.173831
H10   H     H_    0.441277 0.458024 0.194803 0.135359
H11   H     H_    0.852219 0.502113 0.591506 0.190493
H12   H     H_    0.251558 0.862271 0.331267 0.136003
H13   H     H_    0.229307 0.568439 0.272132 0.157788
H14   H     H_    0.837849 0.955672 0.369212 0.207129
H15   H     H_    0.732262 0.644964 0.505583 0.167443
H16   H     H_    0.352169 0.428237 0.339465 0.168428
H17   H     H_    0.187655 0.726250 0.269360 0.155197
H18   H     H_    0.837524 0.850113 0.485259 0.192995
H19   H     H_    0.138620 0.164190 0.452256 0.210109
H20   H     H_    0.083010 0.121339 0.352800 0.203180
N1    N     N_R   0.585360 0.204570 0.560800 -0.224052
N2    N     N_R   0.414550 0.795430 0.439160 -0.186783
O1    O     O_R   0.455060 0.022100 0.338110 -0.595016
O2    O     O_R   0.512640 0.160150 0.379180 -0.594980
O3    O     O_R   0.288900 0.930980 0.479450 -0.570651
O4    O     O_R   0.346480 0.069030 0.520520 -0.580325
O5    O     O_R   0.487360 0.839850 0.620820 -0.549174
O6    O     O_R   0.544940 0.977900 0.661890 -0.500698
O7    O     O_R   0.653520 0.930970 0.479480 -0.558698
O8    O     O_R   0.711100 0.069020 0.520550 -0.567326
N3    N     N_3   0.068414 0.817998 0.507144 -0.551756
H21   H     H_    0.007566 0.769731 0.556724 0.215218
H22   H     H_    0.056429 0.789033 0.451837 0.219907
Br1   Br    Br    0.190260 0.076010 0.664362 -0.471569
Br2   Br    Br    0.504680 0.993021 0.836814 -0.437829
N4    N     N_3   0.397835 0.177808 0.946769 -0.534452
H23   H     H_    0.381336 0.098917 0.978397 0.245649
H24   H     H_    0.482950 0.195766 0.918527 0.248551
N5    N     N_3   0.483479 0.817253 0.042894 -0.603326
H25   H     H_    0.404812 0.859717 0.016786 0.255751
H26   H     H_    0.569041 0.863509 0.052818 0.258505
Br3   Br    Br    0.618429 0.702662 0.603631 -0.599426
Br4   Br    Br    0.929709 0.317123 0.707119 -0.421084
Br5   Br    Br    0.789439 0.095438 0.714802 -0.383308
N6    N     N_3   0.380026 0.271256 0.467254 -0.604792
H27   H     H_    0.333687 0.224555 0.527211 0.293388
H28   H     H_    0.367021 0.242857 0.411748 0.240764
N7    N     N_3   0.164937 0.877695 0.689756 -0.552093
H29   H     H_    0.116177 0.812666 0.681004 0.237508
H30   H     H_    0.161996 0.867712 0.763439 0.270049
N8    N     N_3   0.904845 0.861497 0.681227 -0.569224
H31   H     H_    0.894568 0.807846 0.650908 0.250431
H32   H     H_    0.813330 0.865628 0.690281 0.251899
Br6   Br    Br    0.833124 0.169985 0.300491 -0.538525

loop_
_geom_bond_atom_site_label_1
_geom_bond_atom_site_label_2
_ccdc_geom_bond_type
C24   H4    S    
N5    H25   S    
C21   N5    S    
N6    H27   S    
C40   H12   S    
C12   O4    A    
C15   H9    S    
Cu2   O6    S    
C19   C20   A    
C16   H3    S    
Cu2   N1    S    
C7    C8    A    
C45   C46   S    
C7    C11   A    
C1    O1    A    
C40   N2    A    
C30   C35   A    
C1    C5    S    
C21   C22   A    
C36   C37   A    
C19   C21   A    
N4    H24   S    
C44   Br1   S    
C34   O7    A    
C30   C31   A    
C26   Br5   S    
C15   C16   A    
C6    C22   A    
C29   C33   A    
C18   C19   A    
C42   C46   S    
Cu2   O8    S    
C20   C24   A    
C18   H5    S    
C42   H8    S    
N8    H31   S    
N7    H30   S    
C45   H19   S    
C35   H16   S    
C9    H7    S    
C9    C10   A    
C23   O6    A    
C27   N1    A    
C17   H10   S    
C2    C34   S    
C7    N4    S    
C42   N3    S    
C33   H11   S    
C12   O3    A    
C39   H17   S    
Cu2   O2    S    
C3    H2    S    
C44   C46   S    
C4    C45   S    
C25   C29   A    
C3    C44   S    
C25   Br4   S    
C1    O2    A    
Cu2   O4    S    
N4    H23   S    
Cu1   O3    S    
C38   C41   A    
C12   C46   S    
C8    H6    S    
C39   C40   A    
N3    H22   S    
C25   C26   A    
C4    Br6   S    
C35   C36   A    
C2    C4    S    
Cu1   N2    S    
C5    C9    A    
C37   C38   A    
C44   N7    S    
C14   C20   A    
C11   C16   A    
Cu1   Cu2   S    
C2    C43   S    
C6    C24   A    
N7    H29   S    
C45   H20   S    
C17   C18   A    
Cu1   O1    S    
N8    H32   S    
N5    H26   S    
C27   N6    S    
C42   C43   S    
Cu1   O7    S    
C36   H13   S    
C28   C29   A    
C31   C32   A    
C32   H15   S    
C23   O5    A    
C10   C13   A    
C5    C8    A    
C31   C38   A    
C13   C17   A    
C4    H1    S    
C32   C33   A    
C28   C30   A    
C2    C3    S    
Cu1   O5    S    
C37   C39   A    
C34   O8    A    
C22   Br2   S    
C43   H18   S    
C6    C23   S    
C41   Br3   S    
C10   C11   A    
N3    H21   S    
C3    N8    S    
N6    H28   S    
C27   C28   A    
C26   N1    A    
C14   C15   A    
C13   C14   A    
C43   H14   S    
C41   N2    A    
