data_mof_unit_25365.cif
_audit_creation_date              2012-12-10T18:04:33-0500
_audit_creation_method            fapswitch 2.2
_symmetry_space_group_name_H-M    P1
_symmetry_Int_Tables_number       1
_space_group_crystal_system       triclinic
_cell_length_a                    19.653182
_cell_length_b                    17.580954
_cell_length_c                    12.574003
_cell_angle_alpha                 89.037072
_cell_angle_beta                  98.298496
_cell_angle_gamma                 89.908113
_cell_volume                      4298.45827892

loop_
_atom_site_label
_atom_site_type_symbol
_atom_type_description
_atom_site_fract_x
_atom_site_fract_y
_atom_site_fract_z
_atom_type_partial_charge
C1    C     C_R   0.409722 0.101210 0.442269 0.866850
C2    C     C_R   0.412004 0.895962 0.445915 0.876004
C3    C     C_R   0.909722 0.601210 0.442269 0.866849
C4    C     C_R   0.912005 0.395962 0.445915 0.876008
C5    C     C_R   0.749707 0.198754 0.526670 0.077963
C6    C     C_R   0.729495 0.761899 0.531474 0.101401
C7    C     C_R   0.249707 0.698754 0.526670 0.077963
C8    C     C_R   0.229496 0.261900 0.531474 0.101401
C9    C     C_R   0.795154 0.167525 0.614563 0.006326
C10   C     C_R   0.710666 0.701836 0.598279 -0.012526
C11   C     C_R   0.295155 0.667525 0.614561 0.006320
C12   C     C_R   0.210668 0.201838 0.598282 -0.012526
C13   C     C_R   0.365440 0.682561 0.616517 -0.148310
C14   C     C_R   0.223622 0.125936 0.569954 -0.136846
C15   C     C_R   0.865440 0.182560 0.616519 -0.148310
C16   C     C_R   0.723621 0.625934 0.569951 -0.136843
C17   C     C_R   0.381991 0.753229 0.575056 -0.137438
C18   C     C_R   0.267583 0.113079 0.491888 -0.221610
C19   C     C_R   0.881991 0.253229 0.575057 -0.137442
C20   C     C_R   0.767582 0.613078 0.491886 -0.221610
C21   C     C_R   0.679614 0.185642 0.520131 -0.206613
C22   C     C_R   0.693386 0.830261 0.527585 -0.215923
C23   C     C_R   0.179613 0.685643 0.520132 -0.206611
C24   C     C_R   0.193387 0.330262 0.527584 -0.215925
C25   C     C_R   0.697978 0.110053 0.683846 -0.247617
C26   C     C_R   0.636001 0.789538 0.674889 -0.135805
C27   C     C_R   0.197979 0.610051 0.683844 -0.247618
C28   C     C_R   0.136003 0.289540 0.674891 -0.135801
C29   C     C_R   0.358159 0.840972 0.411962 -0.079806
C30   C     C_R   0.364730 0.165637 0.409178 -0.075500
C31   C     C_R   0.858160 0.340971 0.411963 -0.079808
C32   C     C_R   0.864731 0.665637 0.409178 -0.075501
C33   C     C_R   0.642212 0.021045 0.132375 -0.127130
C34   C     C_R   0.142212 0.521045 0.132375 -0.127129
C35   C     C_R   0.379608 0.002142 0.764029 0.087526
C36   C     C_R   0.879608 0.502142 0.764029 0.087526
C37   C     C_R   0.353878 0.010536 0.859904 -0.225564
C38   C     C_R   0.853878 0.510536 0.859904 -0.225567
C39   C     C_R   0.591273 0.899733 0.557957 0.882467
C40   C     C_R   0.591377 0.099252 0.556839 0.863661
C41   C     C_R   0.091273 0.399733 0.557957 0.882470
C42   C     C_R   0.091378 0.599252 0.556839 0.863659
C43   C     C_R   0.398861 0.021236 0.954994 -0.080866
C44   C     C_R   0.898861 0.521237 0.954994 -0.080866
C45   C     C_R   0.471144 0.011772 0.954437 -0.035007
C46   C     C_R   0.971144 0.511772 0.954437 -0.035006
C47   C     C_R   0.494280 0.004261 0.853484 0.210629
C48   C     C_R   0.994280 0.504261 0.853484 0.210630
C49   C     C_R   0.521493 0.009375 0.047984 0.008111
C50   C     C_R   0.021493 0.509375 0.047984 0.008112
C51   C     C_R   0.592848 0.015610 0.038820 0.099174
C52   C     C_R   0.092848 0.515610 0.038820 0.099173
C53   C     C_R   0.613090 0.010958 0.937279 -0.216149
C54   C     C_R   0.113090 0.510958 0.937278 -0.216148
C55   C     C_R   0.564633 0.002763 0.847267 -0.208681
C56   C     C_R   0.064633 0.502763 0.847267 -0.208682
C57   C     C_R   0.504110 0.995561 0.150375 0.020470
C58   C     C_R   0.004110 0.495561 0.150375 0.020470
C59   C     C_R   0.619494 0.013073 0.231626 -0.046275
C60   C     C_R   0.119494 0.513073 0.231626 -0.046274
C61   C     C_R   0.768282 0.126535 0.697600 -0.006406
C62   C     C_R   0.671421 0.720177 0.681211 -0.132210
C63   C     C_R   0.268283 0.626533 0.697598 -0.006406
C64   C     C_R   0.171424 0.220180 0.681215 -0.132208
C65   C     C_R   0.654668 0.137885 0.593792 -0.051222
C66   C     C_R   0.641958 0.840469 0.590690 -0.078812
C67   C     C_R   0.154668 0.637885 0.593792 -0.051221
C68   C     C_R   0.141959 0.340470 0.590691 -0.078812
C69   C     C_R   0.320401 0.852784 0.309211 -0.083623
C70   C     C_R   0.390998 0.225272 0.352077 -0.200637
C71   C     C_R   0.820403 0.352782 0.309211 -0.083622
C72   C     C_R   0.890998 0.725272 0.352079 -0.200637
C73   C     C_R   0.262352 0.810118 0.275421 -0.071120
C74   C     C_R   0.362126 0.297220 0.350792 -0.089415
C75   C     C_R   0.762354 0.310115 0.275420 -0.071122
C76   C     C_R   0.862127 0.797221 0.350794 -0.089416
C77   C     C_R   0.239047 0.757741 0.345328 -0.160009
C78   C     C_R   0.309395 0.310807 0.410687 -0.147879
C79   C     C_R   0.739049 0.257739 0.345328 -0.160008
C80   C     C_R   0.809395 0.810808 0.410688 -0.147880
C81   C     C_R   0.275775 0.744762 0.449195 0.111659
C82   C     C_R   0.280208 0.250302 0.465091 0.085735
C83   C     C_R   0.775777 0.244760 0.449195 0.111661
C84   C     C_R   0.780208 0.750301 0.465091 0.085736
C85   C     C_R   0.339307 0.781583 0.480465 -0.003235
C86   C     C_R   0.304434 0.175737 0.455722 0.057089
C87   C     C_R   0.839308 0.281582 0.480466 -0.003238
C88   C     C_R   0.804434 0.675736 0.455721 0.057087
H1    H     H_    0.677349 0.073795 0.741652 0.163683
H2    H     H_    0.603203 0.802924 0.733939 0.209130
H3    H     H_    0.177350 0.573792 0.741650 0.163682
H4    H     H_    0.103207 0.302926 0.733942 0.209127
H5    H     H_    0.666611 0.009038 0.926445 0.210719
H6    H     H_    0.166611 0.509038 0.926444 0.210718
H7    H     H_    0.453020 0.980065 0.163737 0.130065
H8    H     H_    0.953020 0.480065 0.163737 0.130066
H9    H     H_    0.298853 0.014352 0.858444 0.255212
H10   H     H_    0.798853 0.514353 0.858444 0.255211
H11   H     H_    0.334796 0.896893 0.255534 0.178223
H12   H     H_    0.437108 0.217679 0.315387 0.173199
H13   H     H_    0.834797 0.396890 0.255533 0.178222
H14   H     H_    0.937109 0.717680 0.315389 0.173198
H15   H     H_    0.233948 0.819516 0.195883 0.170345
H16   H     H_    0.384065 0.343850 0.309959 0.171750
H17   H     H_    0.733951 0.319512 0.195882 0.170345
H18   H     H_    0.884066 0.843851 0.309962 0.171750
N1    N     N_R   0.552340 0.000000 0.237260 -0.117403
N2    N     N_R   0.052340 0.500000 0.237260 -0.117403
N3    N     N_R   0.448170 0.000000 0.762060 -0.142904
N4    N     N_R   0.948170 0.500000 0.762060 -0.142905
O1    O     O_R   0.448200 0.076800 0.373930 -0.595483
O2    O     O_R   0.448200 0.923200 0.373930 -0.615154
O3    O     O_R   0.948200 0.576800 0.373930 -0.595482
O4    O     O_R   0.948200 0.423200 0.373930 -0.615154
O5    O     O_R   0.414750 0.076790 0.542400 -0.623647
O6    O     O_R   0.414750 0.923210 0.542400 -0.602538
O7    O     O_R   0.914750 0.576790 0.542400 -0.623647
O8    O     O_R   0.914750 0.423210 0.542400 -0.602540
O9    O     O_R   0.585240 0.923200 0.457600 -0.609962
O10   O     O_R   0.585240 0.076800 0.457600 -0.623003
O11   O     O_R   0.085240 0.423200 0.457600 -0.609963
O12   O     O_R   0.085240 0.576800 0.457600 -0.623003
O13   O     O_R   0.551780 0.923190 0.626070 -0.636072
O14   O     O_R   0.551780 0.076810 0.626070 -0.625485
O15   O     O_R   0.051780 0.423190 0.626070 -0.636070
O16   O     O_R   0.051780 0.576810 0.626070 -0.625485
Zn1   Zn    Zn3+2 0.522330 0.000000 0.387520 0.973055
Zn2   Zn    Zn3+2 0.022330 0.500000 0.387520 0.973055
Zn3   Zn    Zn3+2 0.477660 0.000000 0.612480 0.958382
Zn4   Zn    Zn3+2 0.977660 0.500000 0.612480 0.958381
C89   C     C_2   0.716242 0.037533 0.131294 0.911071
O17   O     O_2   0.734151 0.081490 0.064304 -0.595273
O18   O     O_R   0.765452 0.005461 0.210970 -0.815199
H19   H     H_    0.813988 0.021743 0.203249 0.358588
C90   C     C_2   0.216242 0.537532 0.131294 0.911072
O19   O     O_2   0.234152 0.581489 0.064304 -0.595274
O20   O     O_R   0.265452 0.505459 0.210970 -0.815200
H20   H     H_    0.313988 0.521741 0.203249 0.358588
H21   H     H_    0.344949 0.000527 0.689902 0.162391
H22   H     H_    0.844949 0.500526 0.689902 0.162389
C91   C     C_2   0.368407 0.055007 0.044759 0.926226
O21   O     O_2   0.313206 0.031998 0.066346 -0.561624
O22   O     O_R   0.401521 0.115243 0.101936 -0.791756
H23   H     H_    0.375082 0.134048 0.159861 0.362355
C92   C     C_2   0.868407 0.555007 0.044759 0.926222
O23   O     O_2   0.813206 0.531999 0.066346 -0.561621
O24   O     O_R   0.901521 0.615244 0.101935 -0.791757
H24   H     H_    0.875082 0.634048 0.159861 0.362355
H25   H     H_    0.583829 0.995719 0.773173 0.205576
H26   H     H_    0.083829 0.495719 0.773173 0.205576
C93   C     C_2   0.420545 0.625521 0.651247 1.004717
O25   O     O_2   0.405888 0.559028 0.666530 -0.619594
O26   O     O_R   0.489579 0.646574 0.658760 -0.718865
H27   H     H_    0.521972 0.601998 0.678495 0.380660
C94   C     C_2   0.177818 0.064660 0.599416 0.905443
O27   O     O_2   0.120824 0.057369 0.547122 -0.573132
O28   O     O_R   0.199320 0.016073 0.686891 -0.818439
H28   H     H_    0.163246 0.976938 0.698844 0.369257
C95   C     C_2   0.920545 0.125521 0.651257 1.004707
O29   O     O_2   0.905887 0.059028 0.666536 -0.619593
O30   O     O_R   0.989579 0.146575 0.658784 -0.718860
H29   H     H_    0.021972 0.102001 0.678524 0.380660
C96   C     C_2   0.677817 0.564658 0.599411 0.905438
O31   O     O_2   0.620825 0.557364 0.547113 -0.573135
O32   O     O_R   0.699318 0.516072 0.686888 -0.818435
H30   H     H_    0.663244 0.476936 0.698839 0.369258
C97   C     C_2   0.809724 0.106598 0.802766 0.994857
O33   O     O_2   0.797069 0.048619 0.851255 -0.596828
O34   O     O_R   0.861682 0.155362 0.848301 -0.782042
H31   H     H_    0.885764 0.135811 0.920333 0.368699
C98   C     C_2   0.671385 0.672162 0.779406 0.985826
O35   O     O_2   0.618729 0.664954 0.819505 -0.525927
O36   O     O_R   0.731910 0.638512 0.831143 -0.741296
H32   H     H_    0.773770 0.652597 0.796630 0.299563
C99   C     C_2   0.309727 0.606595 0.802762 0.994861
O37   O     O_2   0.297071 0.548615 0.851250 -0.596830
O38   O     O_R   0.361685 0.655356 0.848297 -0.782042
H33   H     H_    0.385768 0.635804 0.920327 0.368700
C100  C     C_2   0.171390 0.172165 0.779411 0.985826
O39   O     O_2   0.118735 0.164959 0.819514 -0.525932
O40   O     O_R   0.231915 0.138515 0.831145 -0.741300
H34   H     H_    0.273775 0.152599 0.796629 0.299563
H35   H     H_    0.643283 0.209512 0.455234 0.143587
H36   H     H_    0.699314 0.873371 0.467668 0.156436
H37   H     H_    0.143282 0.709513 0.455236 0.143585
H38   H     H_    0.199314 0.373371 0.467666 0.156437
H39   H     H_    0.693314 0.226040 0.315795 0.136514
H40   H     H_    0.794660 0.869546 0.416098 0.156211
H41   H     H_    0.193311 0.726043 0.315796 0.136514
H42   H     H_    0.294660 0.369546 0.416096 0.156211
C101  C     C_2   0.407917 0.803550 0.663827 1.042891
O41   O     O_2   0.367281 0.843636 0.702583 -0.618840
O42   O     O_R   0.476597 0.800050 0.710379 -0.756204
H43   H     H_    0.486810 0.834729 0.774295 0.336424
C102  C     C_2   0.264243 0.040800 0.429016 0.945126
O43   O     O_2   0.264258 0.044991 0.331946 -0.549489
O44   O     O_R   0.259619 0.968572 0.475344 -0.763074
H44   H     H_    0.269696 0.967389 0.556006 0.330186
C103  C     C_2   0.907918 0.303550 0.663827 1.042895
O45   O     O_2   0.867283 0.343634 0.702587 -0.618838
O46   O     O_R   0.976600 0.300053 0.710373 -0.756202
H45   H     H_    0.986814 0.334732 0.774288 0.336425
C104  C     C_2   0.764243 0.540799 0.429015 0.945129
O47   O     O_2   0.764259 0.544990 0.331944 -0.549488
O48   O     O_R   0.759620 0.468572 0.475342 -0.763074
H46   H     H_    0.769697 0.467388 0.556005 0.330184
H47   H     H_    0.654936 0.018451 0.305454 0.170044
H48   H     H_    0.154936 0.518450 0.305454 0.170044

loop_
_geom_bond_atom_site_label_1
_geom_bond_atom_site_label_2
_ccdc_geom_bond_type
C48   N4    A    
C98   O35   D    
O28   H28   S    
C14   C94   S    
C94   O28   S    
O46   H45   S    
C14   C18   A    
C53   C55   A    
C83   C87   A    
O24   H24   S    
C78   H42   S    
C57   H7    S    
C48   C56   A    
C72   C76   A    
C47   N3    A    
C37   H9    S    
C92   O23   D    
O12   Zn2   S    
O10   Zn1   S    
C39   O13   A    
C90   O19   D    
C97   O34   S    
O3    Zn2   S    
O48   H46   S    
C17   C101  S    
C15   C19   A    
C62   C98   S    
C104  O48   S    
C2    O2    A    
C18   C86   A    
C79   H39   S    
C2    C29   S    
C9    C61   A    
C47   C55   A    
C96   O32   S    
C19   C87   A    
C91   O22   S    
C12   C64   A    
C7    C23   A    
O16   Zn4   S    
C41   O11   A    
O22   H23   S    
C6    C22   A    
C49   C57   A    
C99   O38   S    
C24   H38   S    
O34   H31   S    
C23   C67   A    
C58   H8    S    
C22   C66   A    
O2    Zn1   S    
C22   H36   S    
C34   C52   A    
C3    O7    A    
C35   H21   S    
C2    O6    A    
O15   Zn4   S    
O6    Zn3   S    
C96   O31   D    
C44   C46   A    
C49   C51   A    
C70   C74   A    
C50   C52   A    
C93   O25   D    
C95   O30   S    
C27   H3    S    
C45   C49   A    
C8    C12   A    
C30   C86   A    
C29   C85   A    
C35   N3    A    
C80   C84   A    
C21   C65   A    
C33   C89   S    
C82   C86   A    
C31   C71   A    
C71   H13   S    
C103  O45   D    
C33   C59   A    
O36   H32   S    
O13   Zn3   S    
C93   O26   S    
C34   C60   A    
C4    O8    A    
C10   C62   A    
C30   C70   A    
C52   C54   A    
C38   C44   A    
C55   H25   S    
C41   C68   S    
C29   C69   A    
C38   H10   S    
C45   C47   A    
C16   C96   S    
C40   O14   A    
C46   C48   A    
C71   C75   A    
C6    C84   A    
C92   O24   S    
C53   H5    S    
C101  O41   D    
C26   C66   A    
C41   O15   A    
C31   C87   A    
C13   C93   S    
O11   Zn2   S    
C32   C72   A    
C3    O3    A    
C97   O33   D    
C23   H37   S    
C64   C100  S    
C24   C68   A    
C60   H48   S    
O40   H34   S    
C59   N1    A    
C100  O39   D    
C61   C97   S    
C50   C58   A    
C37   C43   A    
O42   H43   S    
C7    C11   A    
C102  O44   S    
C101  O42   S    
C5    C83   A    
C5    C9    A    
O8    Zn4   S    
O4    Zn2   S    
C78   C82   A    
C95   O29   D    
C4    O4    A    
C77   C81   A    
C16   C20   A    
C44   C92   S    
C80   H40   S    
C25   C65   A    
C3    C32   S    
C28   H4    S    
C25   C61   A    
N2    Zn2   S    
C69   C73   A    
O7    Zn4   S    
C43   C45   A    
C8    C82   A    
C27   C63   A    
C69   H11   S    
C7    C81   A    
C12   C14   A    
C75   H17   S    
C40   C65   S    
C36   N4    A    
O18   H19   S    
C39   C66   S    
C17   C85   A    
C43   C91   S    
C32   C88   A    
C26   H2    S    
C56   H26   S    
C89   O17   D    
C40   O10   A    
C28   C64   A    
C42   O12   A    
C74   H16   S    
O5    Zn3   S    
C35   C37   A    
C90   O20   S    
C76   H18   S    
C28   C68   A    
C18   C102  S    
C25   H1    S    
C76   C80   A    
C20   C104  S    
C89   O18   S    
C60   N2    A    
C15   C95   S    
C6    C10   A    
C54   C56   A    
C63   C99   S    
C13   C17   A    
C33   C51   A    
O20   H20   S    
C46   C50   A    
O1    Zn1   S    
C19   C103  S    
C21   H35   S    
C77   H41   S    
C70   H12   S    
C36   C38   A    
C9    C15   A    
N1    Zn1   S    
C99   O37   D    
O30   H29   S    
C91   O21   D    
C1    O1    A    
N3    Zn3   S    
C11   C13   A    
C42   C67   S    
C84   C88   A    
C72   H14   S    
C34   C90   S    
C39   O9    A    
C20   C88   A    
C1    C30   S    
C8    C24   A    
O14   Zn3   S    
N4    Zn4   S    
C58   N2    A    
C36   H22   S    
C26   C62   A    
O44   H44   S    
C103  O46   S    
C54   H6    S    
C4    C31   S    
C27   C67   A    
C42   O16   A    
C102  O43   D    
C79   C83   A    
C98   O36   S    
O32   H30   S    
C73   H15   S    
C5    C21   A    
O38   H33   S    
C74   C78   A    
C94   O27   D    
C57   N1    A    
C73   C77   A    
C10   C16   A    
C1    O5    A    
C104  O47   D    
C51   C53   A    
O26   H27   S    
C11   C63   A    
C75   C79   A    
C81   C85   A    
C59   H47   S    
C100  O40   S    
O9    Zn1   S    
