data_mof_unit_11935.cif
_audit_creation_date              2012-12-11T15:57:36-0500
_audit_creation_method            fapswitch 2.2
_symmetry_space_group_name_H-M    P1
_symmetry_Int_Tables_number       1
_space_group_crystal_system       triclinic
_cell_length_a                    10.715503
_cell_length_b                    10.759129
_cell_length_c                    16.915695
_cell_angle_alpha                 99.943316
_cell_angle_beta                  100.159082
_cell_angle_gamma                 61.20418
_cell_volume                      1673.52915892

loop_
_atom_site_label
_atom_site_type_symbol
_atom_type_description
_atom_site_fract_x
_atom_site_fract_y
_atom_site_fract_z
_atom_type_partial_charge
C1    C     C_R   0.387516 0.695486 0.389739 0.574148
C2    C     C_2   0.809158 0.340378 0.152081 -0.080780
C3    C     C_2   0.812205 0.234474 0.184848 -0.115755
C4    C     C_2   0.787499 0.253378 0.269039 -0.153960
C5    C     C_2   0.393030 0.698645 0.304781 -0.127367
C6    C     C_2   0.330036 0.862414 0.170020 0.223029
C7    C     C_2   0.465896 0.778237 0.202002 0.157058
C8    C     C_2   0.489664 0.726407 0.281073 -0.112032
C9    C     C_2   0.348946 0.336693 0.663138 -0.091952
C10   C     C_2   0.334535 0.354539 0.834389 -0.105122
C11   C     C_2   0.456303 0.281587 0.800781 -0.148200
C12   C     C_R   0.407170 0.374873 0.356364 0.534072
C13   C     C_2   0.462771 0.301884 0.719721 -0.151638
C14   C     C_1   0.848217 0.328588 0.704827 -0.041071
C15   C     C_1   0.895660 0.292449 0.771372 -0.037613
C16   C     C_1   0.360366 0.761251 0.713928 -0.031059
C17   C     C_1   0.326679 0.808902 0.780835 -0.026134
C18   C     C_R   0.888800 0.310362 0.084297 0.623086
C19   C     C_R   0.322515 0.303085 0.118546 0.560351
C20   C     C_R   0.293727 0.894982 0.086123 0.591379
C21   C     C_R   0.944855 0.272484 0.854072 0.549205
C22   C     C_R   0.308442 0.295912 0.896150 0.535393
C23   C     C_R   0.772489 0.378198 0.402807 0.532797
C24   C     C_R   0.280752 0.880029 0.857452 0.541968
C25   C     C_R   0.382581 0.712486 0.631362 0.557913
C26   C     C_R   0.371057 0.348504 0.584019 0.569786
C27   C     C_R   0.778194 0.378863 0.628766 0.546274
C28   C     C_1   0.376644 0.363435 0.271635 -0.025423
C29   C     C_1   0.351230 0.344771 0.200451 -0.001058
C30   C     C_2   0.829140 0.335312 0.325278 -0.075734
Cr1   Cr    Cr6+3 0.608020 0.610770 0.522990 1.043044
Cr2   Cr    Cr6+3 0.289390 0.599570 0.488050 1.048326
Cr3   Cr    Cr6+3 0.602610 0.289690 0.489020 1.036505
Cr4   Cr    Cr6+3 0.053780 0.052210 0.965970 1.067619
Cr5   Cr    Cr6+3 0.060060 0.372530 0.992430 1.102792
Cr6   Cr    Cr6+3 0.372600 0.061970 0.991430 1.122893
H1    H     H_    0.845158 0.129046 0.152482 0.213885
H2    H     H_    0.567822 0.275740 0.704624 0.159412
H3    H     H_    0.245645 0.447537 0.808756 0.113953
H4    H     H_    0.242620 0.363335 0.675953 0.099532
H5    H     H_    0.732913 0.199261 0.284225 0.164989
H6    H     H_    0.767442 0.445863 0.183654 0.189092
H7    H     H_    0.886723 0.386540 0.310250 0.160963
H8    H     H_    0.580451 0.723746 0.322509 0.176079
H9    H     H_    0.306904 0.693578 0.261908 0.139212
H10   H     H_    0.548890 0.194471 0.828945 0.168167
O1    O     O_R   0.749250 0.499990 0.439200 -0.518322
O2    O     O_R   0.299400 0.468710 0.556310 -0.503116
O3    O     O_R   0.489240 0.256450 0.560730 -0.492003
O4    O     O_R   0.723350 0.306730 0.584410 -0.499451
O5    O     O_3   0.500010 0.500010 0.500020 -0.339081
O6    O     O_R   0.170650 0.915100 0.051290 -0.484096
O7    O     O_R   0.941960 0.184500 0.049060 -0.483004
O8    O     O_R   0.922640 0.402670 0.071640 -0.426989
O9    O     O_R   0.196880 0.368740 0.083740 -0.481413
O10   O     O_R   0.411120 0.181190 0.091480 -0.471829
O11   O     O_R   0.364220 0.944920 0.062310 -0.431522
O12   O     O_R   0.477870 0.725740 0.440280 -0.467371
O13   O     O_R   0.158740 0.906940 0.874970 -0.517447
O14   O     O_R   0.930920 0.176940 0.885610 -0.501144
O15   O     O_R   0.910730 0.394510 0.895320 -0.492154
O16   O     O_R   0.185840 0.361180 0.920280 -0.521270
O17   O     O_R   0.399210 0.173040 0.915160 -0.512134
O18   O     O_R   0.353170 0.937370 0.898860 -0.488675
O19   O     O_3   0.162150 0.162240 0.983280 -0.296222
O20   O     O_R   0.260770 0.742210 0.412610 -0.471763
O21   O     O_R   0.297990 0.466320 0.394220 -0.489965
O22   O     O_R   0.487720 0.253870 0.385870 -0.465571
O23   O     O_R   0.721940 0.304340 0.422320 -0.515618
O24   O     O_R   0.750770 0.502570 0.614050 -0.502164
O25   O     O_R   0.479280 0.728140 0.602370 -0.470965
O26   O     O_R   0.262290 0.744790 0.587460 -0.492411
S1    S     S_3+6 0.620081 0.750790 0.160827 -0.005279
O27   O     O_2   0.632005 0.662869 0.080526 -0.277698
O28   O     O_2   0.608441 0.891534 0.149163 -0.246505
O29   O     O_3   0.769621 0.667822 0.223322 -0.546272
H11   H     H_    0.771286 0.743092 0.265818 0.353940
S2    S     S_3+6 0.196935 0.985891 0.234095 0.003854
O30   O     O_2   0.261095 0.002628 0.319320 -0.270107
O31   O     O_2   0.125613 0.128983 0.202378 -0.281934
O32   O     O_3   0.074425 0.930131 0.232989 -0.545179
H12   H     H_    0.037927 0.965837 0.286536 0.372857

loop_
_geom_bond_atom_site_label_1
_geom_bond_atom_site_label_2
_ccdc_geom_bond_type
C19   O10   A    
C2    C18   S    
S1    O28   D    
S1    O27   D    
C23   O23   A    
O32   H12   S    
C7    C8    S    
C7    S1    S    
C10   C22   S    
C12   O22   A    
C12   C28   S    
C1    C5    S    
Cr1   O12   S    
C28   C29   T    
S2    O31   D    
C6    S2    S    
C4    H5    S    
Cr5   O19   S    
Cr3   O3    S    
C9    C13   D    
C18   O7    A    
C22   O17   A    
Cr1   O24   S    
C16   C17   T    
C25   O25   A    
C14   C27   S    
Cr6   O17   S    
C21   O15   A    
C27   O4    A    
Cr3   O23   S    
Cr1   O25   S    
C24   O18   A    
Cr1   O1    S    
Cr5   O8    S    
Cr4   O14   S    
Cr2   O2    S    
Cr4   O19   S    
C9    C26   S    
C12   O21   A    
C17   C24   S    
C23   O1    A    
Cr5   O9    S    
C23   C30   S    
O29   H11   S    
C21   O14   A    
Cr2   O26   S    
Cr6   O11   S    
C26   O3    A    
Cr6   O19   S    
Cr3   O4    S    
C5    H9    S    
C9    H4    S    
C10   H3    S    
Cr2   O5    S    
Cr6   O10   S    
C22   O16   A    
C1    O20   A    
Cr5   O15   S    
C25   O26   A    
C13   H2    S    
C27   O24   A    
Cr2   O21   S    
Cr4   O13   S    
S1    O29   S    
C30   H7    S    
C3    C4    S    
C19   C29   S    
Cr2   O20   S    
C19   O9    A    
C16   C25   S    
S2    O30   D    
C8    H8    S    
Cr1   O5    S    
C5    C8    D    
C6    C7    D    
C26   O2    A    
Cr3   O5    S    
C6    C20   S    
Cr4   O6    S    
C2    C3    D    
C20   O6    A    
C1    O12   A    
C11   C13   S    
S2    O32   S    
C2    H6    S    
C24   O13   A    
Cr5   O16   S    
C10   C11   D    
C18   O8    A    
C15   C21   S    
C3    H1    S    
Cr4   O7    S    
C14   C15   T    
C11   H10   S    
C20   O11   A    
Cr6   O18   S    
C4    C30   D    
Cr3   O22   S    
