data_mof_unit_63451.cif
_audit_creation_date              2012-12-11T21:01:56-0500
_audit_creation_method            fapswitch 2.2
_symmetry_space_group_name_H-M    P1
_symmetry_Int_Tables_number       1
_space_group_crystal_system       triclinic
_cell_length_a                    8.209208
_cell_length_b                    18.770614
_cell_length_c                    22.903777
_cell_angle_alpha                 100.231508
_cell_angle_beta                  90.068859
_cell_angle_gamma                 91.62988
_cell_volume                      3471.68815617

loop_
_atom_site_label
_atom_site_type_symbol
_atom_type_description
_atom_site_fract_x
_atom_site_fract_y
_atom_site_fract_z
_atom_type_partial_charge
Ba1   Ba    Ba6+2 0.157800 0.534120 0.474430 1.644513
Ba2   Ba    Ba6+2 0.652390 0.465870 0.525520 1.638997
C1    C     C_3   0.395219 0.711684 0.262654 -0.346253
C2    C     C_R   0.083383 0.905839 0.557125 0.030839
C3    C     C_R   0.235127 0.929605 0.582862 -0.086387
C4    C     C_3   0.928198 0.731475 0.358357 0.357075
C5    C     C_R   0.296970 0.999236 0.580623 -0.106065
C6    C     C_R   0.206680 0.047146 0.553767 0.022948
C7    C     C_R   0.053919 0.024124 0.527953 0.011134
C8    C     C_R   0.266041 0.117897 0.553357 -0.081522
C9    C     C_R   0.173404 0.167551 0.528723 -0.025981
C10   C     C_R   0.020604 0.144235 0.501788 -0.004250
C11   C     C_R   0.962248 0.072146 0.501191 -0.006639
C12   C     C_3   0.408990 0.688947 0.322931 0.359950
C13   C     C_R   0.228230 0.240036 0.530317 0.000952
C14   C     C_R   0.130744 0.288030 0.506821 -0.295522
C15   C     C_R   0.982889 0.265813 0.478395 0.030799
C16   C     C_3   0.952410 0.806755 0.343282 -0.362832
C17   C     C_R   0.927138 0.192432 0.474687 -0.051302
C18   C     C_R   0.842120 0.928895 0.502118 -0.008243
C19   C     C_R   0.784575 0.856534 0.500884 -0.008022
C20   C     C_R   0.878669 0.808097 0.527475 -0.046690
C21   C     C_R   0.022692 0.835409 0.558382 -0.041509
C22   C     C_R   0.782681 0.165211 0.444179 -0.043828
C23   C     C_3   0.483452 0.687297 0.622383 0.310105
C24   C     C_R   0.721232 0.095140 0.446084 0.035018
C25   C     C_R   0.811135 0.048213 0.474476 0.004424
C26   C     C_R   0.750595 0.976899 0.475249 0.012951
C27   C     C_R   0.569561 0.071511 0.420370 -0.090031
C28   C     C_3   0.824296 0.377748 0.344962 0.295106
C29   C     C_R   0.508091 0.001707 0.422154 -0.090696
C30   C     C_R   0.598616 0.953669 0.448825 0.033983
C31   C     C_R   0.633220 0.832879 0.472925 -0.042221
C32   C     C_R   0.540200 0.882649 0.448553 -0.105007
C33   C     C_R   0.580990 0.759777 0.469432 0.001633
C34   C     C_3   0.491986 0.768972 0.642413 -0.397916
C35   C     C_R   0.680154 0.711417 0.491895 -0.303413
C36   C     C_R   0.826494 0.733945 0.521434 0.049803
C37   C     C_R   0.637620 0.530230 0.337846 -0.294811
C38   C     C_R   0.458454 0.532688 0.935442 -0.019435
C39   C     C_R   0.402557 0.536763 0.877926 0.586349
C40   C     C_3   0.812849 0.359397 0.277652 -0.385682
C41   C     C_R   0.153668 0.474085 0.895448 0.584199
C42   C     C_R   0.194170 0.482208 0.956364 -0.026895
C43   C     C_R   0.350585 0.508459 0.975623 -0.053276
C44   C     C_R   0.619304 0.553322 0.953988 -0.058676
C45   C     C_3   0.871478 0.279763 0.643903 0.392878
C46   C     C_R   0.671848 0.548354 0.011183 -0.086785
C47   C     C_R   0.561871 0.527771 0.052727 -0.022292
C48   C     C_R   0.399407 0.510643 0.035388 -0.051266
C49   C     C_R   0.083425 0.463121 0.998338 -0.084806
C50   C     C_R   0.126728 0.472233 0.058409 -0.056712
C51   C     C_R   0.285651 0.495623 0.077516 -0.033307
C52   C     C_3   0.000101 0.635877 0.659192 0.303397
C53   C     C_R   0.332725 0.505533 0.137845 0.580420
C54   C     C_R   0.611237 0.522780 0.110872 0.581490
C55   C     C_2   0.053513 0.493276 0.772583 -0.084101
C56   C     C_3   0.877029 0.204630 0.660050 0.296450
C57   C     C_3   0.014990 0.488860 0.706827 -0.047243
C58   C     C_1   0.302974 0.508020 0.692498 0.008396
C59   C     C_2   0.342190 0.500233 0.746879 -0.105358
C60   C     C_2   0.211332 0.498454 0.792875 0.187834
C61   C     C_R   0.687513 0.560719 0.241108 -0.110147
C62   C     C_R   0.738365 0.560685 0.299469 -0.038344
C63   C     C_R   0.498705 0.489971 0.316312 0.042553
C64   C     C_3   0.048183 0.669218 0.722663 -0.367612
C65   C     C_R   0.459221 0.481225 0.255691 -0.097973
C66   C     C_R   0.547094 0.519657 0.217094 0.185083
C67   C     C_3   0.360630 0.308907 0.675358 0.297779
C68   C     C_2   0.165906 0.478834 0.669365 -0.287889
C69   C     C_3   0.293701 0.305282 0.370912 0.287710
C70   C     C_3   0.291729 0.227886 0.335302 -0.214905
C71   C     C_3   0.179583 0.175990 0.361817 -0.277735
C72   C     C_3   0.174919 0.100280 0.324119 -0.406502
C73   C     C_3   0.048716 0.121940 0.691099 0.266958
C74   C     C_3   0.007176 0.117208 0.755456 -0.192208
C75   C     C_3   0.036036 0.041464 0.768186 -0.498124
C76   C     C_3   0.376978 0.292463 0.737689 -0.327834
C77   C     C_R   0.993153 0.952869 0.528923 0.004779
H1    H     H_    0.340521 0.636690 0.321199 0.093279
H2    H     H_    0.168731 0.325942 0.373677 0.028329
H3    H     H_    0.345044 0.306041 0.415917 0.013417
H4    H     H_    0.265571 0.719383 0.252097 0.158359
H5    H     H_    0.250639 0.229235 0.289203 0.122727
H6    H     H_    0.417972 0.207542 0.333307 0.112208
H7    H     H_    0.539622 0.681797 0.331998 -0.069541
H8    H     H_    0.444901 0.669376 0.227726 0.077228
H9    H     H_    0.608234 0.668597 0.610797 0.025322
H10   H     H_    0.403644 0.674990 0.582467 0.058115
H11   H     H_    0.575413 0.783433 0.681176 0.133103
H12   H     H_    0.712808 0.318687 0.264172 0.125380
H13   H     H_    0.538293 0.795474 0.605816 0.056329
H14   H     H_    0.368669 0.789004 0.655039 0.111401
H15   H     H_    0.465186 0.763258 0.262896 0.101549
H16   H     H_    0.897858 0.847530 0.378260 0.072110
H17   H     H_    0.751251 0.284758 0.623340 0.056937
H18   H     H_    0.968400 0.284762 0.611117 -0.046300
H19   H     H_    0.846295 0.164678 0.619176 -0.039749
H20   H     H_    0.783704 0.200173 0.694497 0.032367
H21   H     H_    0.229765 0.304449 0.662507 0.043835
H22   H     H_    0.406866 0.365065 0.676154 0.058744
H23   H     H_    0.788193 0.408675 0.259066 0.079488
H24   H     H_    0.302142 0.330195 0.768820 0.097793
H25   H     H_    0.506415 0.299308 0.752336 0.121575
H26   H     H_    0.988647 0.730674 0.401616 0.085573
H27   H     H_    0.334488 0.235981 0.738561 0.140479
H28   H     H_    0.307119 0.894021 0.604185 0.064131
H29   H     H_    0.414862 0.015927 0.600569 0.068846
H30   H     H_    0.173005 0.343612 0.509274 0.074618
H31   H     H_    0.384123 0.133768 0.573142 0.103041
H32   H     H_    0.092247 0.802004 0.582421 0.100315
H33   H     H_    0.714312 0.198178 0.419379 0.099209
H34   H     H_    0.929679 0.337125 0.259213 0.126222
H35   H     H_    0.497956 0.107401 0.399267 0.064025
H36   H     H_    0.390369 0.985033 0.402040 0.070450
H37   H     H_    0.422911 0.866588 0.428193 0.108557
H38   H     H_    0.795385 0.720812 0.362341 -0.073024
H39   H     H_    0.639533 0.655475 0.488371 0.074986
H40   H     H_    0.037136 0.458636 0.089594 0.163426
H41   H     H_    0.961568 0.442889 0.985121 0.123954
H42   H     H_    0.797529 0.562903 0.023371 0.113889
H43   H     H_    0.759564 0.592772 0.215425 0.138996
H44   H     H_    0.706321 0.571336 0.923779 0.121596
H45   H     H_    0.108987 0.612970 0.635391 0.022631
H46   H     H_    0.466088 0.488625 0.756660 0.151529
H47   H     H_    0.950989 0.499144 0.802523 0.132441
H48   H     H_    0.361065 0.443417 0.239236 0.124745
H49   H     H_    0.674011 0.533104 0.383635 0.080808
H50   H     H_    0.084358 0.820150 0.340218 0.147660
H51   H     H_    0.159907 0.452356 0.623152 0.069592
H52   H     H_    0.892409 0.809130 0.300216 0.111259
H53   H     H_    0.705676 0.396772 0.362986 0.027654
H54   H     H_    0.918447 0.421360 0.357109 0.074408
H55   H     H_    0.123401 0.101835 0.279513 0.137477
H56   H     H_    0.904799 0.592948 0.659368 0.036456
H57   H     H_    0.299146 0.078219 0.319061 0.130265
H58   H     H_    0.096618 0.063667 0.345981 0.130210
H59   H     H_    0.224283 0.172293 0.406804 0.114565
H60   H     H_    0.054089 0.196576 0.364224 0.134681
H61   H     H_    0.177875 0.107085 0.683277 0.075272
H62   H     H_    0.974153 0.081368 0.659870 0.025742
H63   H     H_    0.084378 0.157190 0.785856 0.137308
H64   H     H_    0.877350 0.130208 0.764220 0.112624
H65   H     H_    0.958877 0.000679 0.738557 0.136693
H66   H     H_    0.004021 0.039375 0.814951 0.149159
H67   H     H_    0.129351 0.717614 0.722740 0.143443
H68   H     H_    0.166218 0.027813 0.761273 0.134950
H69   H     H_    0.114699 0.630325 0.744121 0.072217
H70   H     H_    0.937580 0.685762 0.748917 0.116945
N1    N     N_R   0.254696 0.503614 0.856241 -0.422376
N2    N     N_R   0.496630 0.515819 0.154680 -0.423925
O1    O     O_2   0.110690 0.676100 0.539200 -0.470556
O2    O     O_2   0.686555 0.436227 0.698232 -0.497344
O3    O     O_3   0.895270 0.333321 0.694729 -0.601371
O4    O     O_3   0.863220 0.586720 0.534720 -0.483683
O5    O     O_3   0.450900 0.461390 0.429220 -0.473208
O6    O     O_2   0.599830 0.538970 0.641850 -0.462887
O7    O     O_3   0.420258 0.654776 0.668578 -0.632509
O8    O     O_2   0.569772 0.243224 0.528917 -0.502293
O9    O     O_3   0.452890 0.260092 0.636122 -0.619445
O10   O     O_2   0.485042 0.571356 0.847825 -0.603699
O11   O     O_2   0.030259 0.439199 0.877566 -0.597962
O12   O     O_3   0.394507 0.346381 0.339989 -0.649544
O13   O     O_2   0.226467 0.506610 0.175180 -0.569127
O14   O     O_2   0.756795 0.522952 0.121707 -0.608516
O15   O     O_3   0.368310 0.629070 0.432760 -0.483562
O16   O     O_2   0.242241 0.756142 0.474831 -0.492827
O17   O     O_3   0.936250 0.690263 0.632858 -0.646084
O18   O     O_3   0.342813 0.742624 0.366158 -0.607321
O19   O     O_2   0.210480 0.460990 0.358130 -0.477069
O20   O     O_3   0.959520 0.592090 0.401630 -0.493243
O21   O     O_2   0.074771 0.543668 0.294600 -0.431735
O22   O     O_3   0.034564 0.193730 0.681060 -0.651256
O23   O     O_3   0.997388 0.680446 0.313558 -0.593194
O24   O     O_2   0.699610 0.323860 0.460780 -0.452577
O25   O     O_3   0.947090 0.413280 0.465240 -0.492194
O26   O     O_3   0.442000 0.370930 0.567190 -0.470894
O27   O     O_3   0.864788 0.315403 0.366640 -0.650096
O28   O     O_3   0.359410 0.538600 0.570730 -0.476641
O29   O     O_3   0.850780 0.407910 0.598320 -0.486327
P1    P     P_3+3 0.935930 0.665430 0.555670 0.975196
P2    P     P_3+3 0.382700 0.439650 0.365620 0.990911
P3    P     P_3+3 0.942773 0.593684 0.326074 0.981185
P4    P     P_3+3 0.874370 0.334570 0.444280 0.965546
P5    P     P_3+3 0.860170 0.418152 0.675647 0.978424
P6    P     P_3+3 0.384120 0.722597 0.436364 0.937717
P7    P     P_3+3 0.416771 0.560677 0.645578 0.967083
P8    P     P_3+3 0.423380 0.277601 0.564376 0.931119

loop_
_geom_bond_atom_site_label_1
_geom_bond_atom_site_label_2
_ccdc_geom_bond_type
C27   H35   S    
Ba1   O25   S    
Ba2   O4    S    
C39   O10   D    
C73   O22   S    
C71   C72   S    
C56   H19   S    
C73   C74   S    
O7    P7    S    
Ba1   P1    S    
C70   H6    S    
C16   H52   S    
C55   C60   D    
C42   C43   A    
C38   C44   A    
C37   C62   A    
C24   C25   A    
C36   P1    S    
C69   O12   S    
Ba1   O15   S    
C57   C68   S    
O20   P3    S    
C33   C35   A    
C22   C24   A    
O18   P6    S    
C40   H12   S    
C73   H61   S    
Ba2   O6    S    
C55   C57   S    
C19   C31   A    
C71   H59   S    
C32   H37   S    
C13   C14   A    
C20   C36   A    
Ba1   O19   S    
C68   H51   S    
C67   O9    S    
C23   O7    S    
Ba1   O1    S    
Ba1   Ba2   S    
C7    C77   A    
Ba1   O4    S    
C7    C11   A    
C73   H62   S    
Ba2   O25   S    
C62   P3    S    
C9    C13   A    
C34   H14   S    
C35   H39   S    
C14   C15   A    
C63   C65   A    
C72   H57   S    
C54   O14   D    
C45   H17   S    
C57   P5    S    
Ba2   O26   S    
C12   H1    S    
C75   H68   S    
C4    H38   S    
C64   H69   S    
C70   C71   S    
C69   H3    S    
C34   H13   S    
C19   C20   A    
O19   P2    D    
O12   P2    S    
C16   H16   S    
C37   C63   A    
C67   C76   S    
Ba2   O29   S    
C12   O18   S    
C40   H23   S    
C29   H36   S    
C72   H58   S    
C14   H30   S    
C49   H41   S    
C63   P2    S    
C51   C53   A    
C38   C43   A    
C4    C16   S    
O3    P5    S    
C44   C46   A    
C48   C51   A    
C56   H20   S    
C1    H8    S    
C49   C50   A    
C26   C30   A    
C74   C75   S    
C12   H7    S    
C2    C77   A    
C8    C9    A    
C55   H47   S    
C3    C5    A    
C2    C21   A    
O5    P2    S    
C6    C7    A    
C39   N1    Am   
C4    O23   S    
O16   P6    D    
C76   H25   S    
Ba1   O20   S    
C23   H9    S    
C50   H40   S    
C65   C66   A    
C58   C59   D    
C30   C32   A    
O8    P8    D    
Ba1   O5    S    
C41   C42   A    
C67   H21   S    
O21   P3    D    
C35   C36   A    
C5    H29   S    
C65   H48   S    
Ba2   O24   S    
C40   H34   S    
C29   C30   A    
C58   C68   D    
C9    C10   A    
C28   H54   S    
C31   C32   A    
C28   O27   S    
Ba2   P4    S    
C10   C11   A    
C54   N2    Am   
O26   P8    S    
C70   H5    S    
C1    C12   S    
C64   H70   S    
C42   C49   A    
C46   C47   A    
C47   C48   A    
C58   P7    S    
C1    H4    S    
C44   H44   S    
C56   O22   S    
Ba2   O28   S    
O9    P8    S    
C15   C17   A    
C18   C26   A    
C75   H66   S    
C46   H42   S    
C61   H43   S    
C21   H32   S    
C50   C51   A    
C3    H28   S    
C34   H11   S    
O25   P4    S    
C52   H45   S    
C61   C66   A    
C38   C39   A    
Ba2   O5    S    
C37   H49   S    
C60   N1    S    
C18   C77   A    
C76   H24   S    
O15   P6    S    
C11   C25   A    
C74   H64   S    
O6    P7    D    
C52   O17   S    
C2    C3    A    
O23   P3    S    
C53   O13   D    
Ba1   P2    S    
O4    P1    S    
C53   N2    Am   
C52   C64   S    
C45   O3    S    
C67   H22   S    
C47   C54   A    
C71   H60   S    
C13   P8    S    
C23   H10   S    
C45   H18   S    
C76   H27   S    
C17   C22   A    
C75   H65   S    
C69   C70   S    
C27   C29   A    
C66   N2    S    
C45   C56   S    
Ba1   O28   S    
C15   P4    S    
O2    P5    D    
C43   C48   A    
C33   P6    S    
C28   H53   S    
C52   H56   S    
C72   H55   S    
C10   C17   A    
C31   C33   A    
C4    H26   S    
C8    H31   S    
C1    H15   S    
C59   C60   S    
C22   H33   S    
C64   H67   S    
C5    C6    A    
O29   P5    S    
C23   C34   S    
C61   C62   A    
C41   O11   D    
O28   P7    S    
C18   C19   A    
C24   C27   A    
C6    C8    A    
O17   P1    S    
C25   C26   A    
C20   C21   A    
C28   C40   S    
C16   H50   S    
C59   H46   S    
O1    P1    D    
O27   P4    S    
C41   N1    Am   
O24   P4    D    
C69   H2    S    
C74   H63   S    
