data_mof_unit_6051.cif
_audit_creation_date              2013-03-05T16:40:16-0500
_audit_creation_method            fapswitch 2.2
_symmetry_space_group_name_H-M    P1
_symmetry_Int_Tables_number       1
_space_group_crystal_system       triclinic
_cell_length_a                    11.136158
_cell_length_b                    17.691831
_cell_length_c                    16.519706
_cell_angle_alpha                 91.93054
_cell_angle_beta                  103.041382
_cell_angle_gamma                 91.285146
_cell_volume                      3167.44177236

loop_
_atom_site_label
_atom_site_type_symbol
_atom_site_description
_atom_site_fract_x
_atom_site_fract_y
_atom_site_fract_z
_atom_type_partial_charge
O1    O     O_R   0.499990 0.391240 0.567930 -0.615168
O2    O     O_R   0.500010 0.608760 0.432070 -0.614657
O3    O     O_R   0.500000 0.391270 0.432120 -0.563702
O4    O     O_R   0.500000 0.608730 0.567880 -0.527901
C1    C     C_R   0.506465 0.355151 0.499806 0.804527
C2    C     C_R   0.501382 0.644368 0.501475 0.802208
O5    O     O_R   0.320680 0.500000 0.542950 -0.525016
O6    O     O_R   0.679320 0.500000 0.457050 -0.556138
O7    O     O_R   0.320690 0.500030 0.407130 -0.536774
O8    O     O_R   0.679310 0.499970 0.592870 -0.567361
C3    C     C_R   0.262671 0.500388 0.466819 0.883393
C4    C     C_R   0.736647 0.497555 0.533396 0.878875
Cu1   Cu    Cu3+1 0.499990 0.499980 0.580420 1.027579
Cu2   Cu    Cu3+1 0.500010 0.500020 0.419580 0.998102
C5    C     C_2   0.128347 0.494177 0.449410 -0.411224
C6    C     C_2   0.870116 0.500287 0.552638 -0.416384
C7    C     C_2   0.066313 0.501600 0.510824 0.221432
C8    C     C_2   0.934274 0.479043 0.495966 0.256328
H1    H     H_    0.914398 0.528539 0.611416 0.207611
H2    H     H_    0.082226 0.476746 0.386503 0.226448
C9    C     C_R   0.614406 0.847176 0.546923 0.351782
C10   C     C_R   0.462850 0.143440 0.446964 0.335923
C11   C     C_R   0.614992 0.768002 0.535413 -0.046643
C12   C     C_R   0.464064 0.221839 0.435148 -0.080775
C13   C     C_R   0.501911 0.727295 0.505698 -0.105502
C14   C     C_R   0.524192 0.271886 0.502067 -0.134392
C15   C     C_R   0.388952 0.765352 0.484501 0.048514
C16   C     C_R   0.596754 0.241214 0.575517 0.055614
C17   C     C_R   0.389834 0.845473 0.493987 0.061441
C18   C     C_R   0.581478 0.163293 0.590153 0.054680
C19   C     C_R   0.502877 0.885173 0.527059 -0.061460
C20   C     C_R   0.516697 0.115056 0.524400 -0.065614
C21   C     C_1   0.507643 0.966579 0.532696 0.078844
C22   C     C_1   0.511946 0.034373 0.532287 0.055682
C23   C     C_R   0.572643 0.553520 0.841914 0.183976
C24   C     C_R   0.402533 0.477786 0.151218 0.154663
C25   C     C_R   0.570745 0.552625 0.755739 0.436613
C26   C     C_R   0.398300 0.478124 0.236533 0.383252
N1    N     N_R   0.499970 0.499970 0.701210 -0.256744
N2    N     N_R   0.500030 0.500030 0.298790 -0.258554
C27   C     C_R   0.432277 0.446580 0.730771 0.033340
C28   C     C_R   0.603100 0.527113 0.275884 0.031107
H3    H     H_    0.377848 0.405010 0.687355 0.160489
H4    H     H_    0.679304 0.550486 0.323172 0.175828
C29   C     C_R   0.433596 0.443692 0.816727 -0.017899
C30   C     C_R   0.611377 0.528589 0.191441 -0.021101
C31   C     C_R   0.504597 0.498336 0.873613 -0.063997
C32   C     C_R   0.510392 0.501856 0.127800 -0.071192
C33   C     C_1   0.509823 0.498517 0.963908 0.099411
C34   C     C_1   0.513173 0.500207 0.038628 0.084440
N3    N     N_R   0.876643 0.432209 0.423935 0.139663
O9    O     O_R   0.864519 0.457432 0.349588 -0.398156
O10   O     O_R   0.823012 0.368027 0.433321 -0.378405
N4    N     N_R   0.127279 0.531897 0.592255 0.133127
O11   O     O_R   0.136596 0.490486 0.656889 -0.366465
O12   O     O_R   0.171834 0.601083 0.601767 -0.359795
C35   C     C_3   0.360455 0.381350 0.845878 -0.341527
C36   C     C_3   0.444646 0.317323 0.881520 -0.392583
C37   C     C_3   0.371885 0.253758 0.910757 -0.779640
H5    H     H_    0.327713 0.275452 0.960514 0.282128
H6    H     H_    0.299801 0.229364 0.857975 0.251121
H7    H     H_    0.435194 0.208305 0.936019 0.245312
H8    H     H_    0.489871 0.293902 0.832994 0.218103
H9    H     H_    0.517742 0.339379 0.935071 0.233496
H10   H     H_    0.313170 0.404564 0.893361 0.253829
H11   H     H_    0.287033 0.357992 0.793111 0.201491
C38   C     C_3   0.725047 0.564025 0.171031 -0.358233
C39   C     C_3   0.705742 0.648260 0.155375 -0.372345
C40   C     C_3   0.815054 0.684652 0.128442 -0.674831
H12   H     H_    0.899676 0.681281 0.178378 0.230943
H13   H     H_    0.829575 0.655686 0.070903 0.301689
H14   H     H_    0.797128 0.745129 0.116007 0.254011
H15   H     H_    0.621001 0.655361 0.106126 0.276127
H16   H     H_    0.693735 0.678077 0.213253 0.210533
H17   H     H_    0.806383 0.557896 0.223352 0.232118
H18   H     H_    0.746206 0.534425 0.115707 0.228795
N5    N     N_R   0.727949 0.889883 0.576856 0.116819
O13   O     O_R   0.809559 0.893342 0.531742 -0.389662
O14   O     O_R   0.745820 0.929773 0.646366 -0.364590
N6    N     N_R   0.404940 0.091748 0.379957 0.100656
O15   O     O_R   0.472176 0.050820 0.341637 -0.346913
O16   O     O_R   0.286132 0.079529 0.363772 -0.381290
C41   C     C_3   0.736916 0.727596 0.553910 -0.292719
C42   C     C_3   0.782847 0.712811 0.474021 -0.402688
C43   C     C_3   0.919460 0.694878 0.493608 -0.763469
H19   H     H_    0.976143 0.746535 0.518474 0.271504
H20   H     H_    0.938771 0.650687 0.540306 0.275912
H21   H     H_    0.945869 0.674023 0.436184 0.233078
H22   H     H_    0.729297 0.664377 0.437538 0.216636
H23   H     H_    0.769326 0.763107 0.434755 0.257029
H24   H     H_    0.807654 0.761080 0.600221 0.261306
H25   H     H_    0.727643 0.673194 0.583701 0.218028
C44   C     C_3   0.410544 0.249157 0.348715 -0.320743
C45   C     C_3   0.512716 0.257798 0.300406 -0.314651
C46   C     C_3   0.459949 0.269810 0.208406 -0.745184
H26   H     H_    0.402445 0.219775 0.179108 0.269918
H27   H     H_    0.402961 0.320547 0.200727 0.283378
H28   H     H_    0.536382 0.278089 0.176200 0.240131
H29   H     H_    0.575893 0.306287 0.327116 0.264557
H30   H     H_    0.567936 0.205853 0.305550 0.250424
H31   H     H_    0.337738 0.209281 0.313327 0.251079
H32   H     H_    0.361356 0.301937 0.352190 0.243633
C47   C     C_3   0.268951 0.720249 0.449957 -0.389604
C48   C     C_3   0.245690 0.710463 0.354962 -0.354195
C49   C     C_3   0.117777 0.676062 0.317588 -0.770984
H33   H     H_    0.103932 0.621934 0.346723 0.269381
H34   H     H_    0.045999 0.716013 0.326649 0.233216
H35   H     H_    0.108252 0.664744 0.249927 0.273414
H36   H     H_    0.254261 0.765975 0.326907 0.228389
H37   H     H_    0.315534 0.672979 0.337977 0.255205
H38   H     H_    0.271108 0.663775 0.477268 0.211530
H39   H     H_    0.189965 0.747278 0.468635 0.210797
C50   C     C_3   0.698615 0.289363 0.633636 -0.386509
C51   C     C_3   0.827199 0.262651 0.628167 -0.371603
C52   C     C_3   0.928986 0.310085 0.686682 -0.756958
H40   H     H_    0.922889 0.370531 0.670513 0.277109
H41   H     H_    0.921058 0.304889 0.752108 0.255452
H42   H     H_    0.020502 0.289842 0.680979 0.243763
H43   H     H_    0.838905 0.202371 0.643738 0.227510
H44   H     H_    0.838479 0.267950 0.563412 0.264200
H45   H     H_    0.697985 0.349287 0.617156 0.226425
H46   H     H_    0.685867 0.289501 0.698384 0.191173
C53   C     C_3   0.271826 0.889567 0.468926 -0.383992
C54   C     C_3   0.216117 0.906083 0.544240 -0.391039
C55   C     C_3   0.098630 0.950687 0.519909 -0.700147
H47   H     H_    0.118922 0.005816 0.494787 0.259624
H48   H     H_    0.028654 0.917998 0.472234 0.273834
H49   H     H_    0.060254 0.961649 0.575513 0.271979
H50   H     H_    0.194017 0.852072 0.570965 0.242457
H51   H     H_    0.283663 0.939419 0.592941 0.230325
H52   H     H_    0.290923 0.943492 0.441067 0.248676
H53   H     H_    0.202591 0.859667 0.418688 0.206334
C56   C     C_3   0.627315 0.131406 0.676000 -0.385289
C57   C     C_3   0.519743 0.120704 0.718932 -0.372231
C58   C     C_3   0.563563 0.090861 0.805904 -0.773335
H54   H     H_    0.607243 0.035352 0.802533 0.280314
H55   H     H_    0.630988 0.131607 0.845538 0.251162
H56   H     H_    0.483558 0.083352 0.834926 0.245711
H57   H     H_    0.475459 0.175849 0.724048 0.219887
H58   H     H_    0.449319 0.080166 0.681711 0.228345
H59   H     H_    0.672251 0.076679 0.670313 0.243601
H60   H     H_    0.698542 0.168077 0.717419 0.203862
N7    N     N_R   0.643319 0.611228 0.896736 0.142636
O17   O     O_R   0.589846 0.654831 0.942002 -0.344526
O18   O     O_R   0.759859 0.622560 0.898979 -0.287832
N8    N     N_R   0.294067 0.455902 0.088357 0.144636
O19   O     O_R   0.252007 0.500505 0.028058 -0.317606
O20   O     O_R   0.234326 0.392697 0.092733 -0.319332
N9    N     N_R   0.641585 0.609096 0.725746 0.153525
O21   O     O_R   0.755984 0.596403 0.725214 -0.336344
O22   O     O_R   0.605528 0.678592 0.723692 -0.316633
N10   N     N_R   0.280754 0.464363 0.254968 0.170453
O23   O     O_R   0.197071 0.515110 0.237210 -0.344190
O24   O     O_R   0.247309 0.396304 0.269507 -0.359162

loop_
_geom_bond_atom_site_label_1
_geom_bond_atom_site_label_2
_geom_bond_distance
_ccdc_geom_bond_type
C58   H56   1.110437 S    
C18   C20   1.408850 A    
C28   H4    1.079213 S    
C44   C45   1.537882 S    
C53   H53   1.107425 S    
C15   C17   1.420437 A    
C46   H26   1.110743 S    
C35   H11   1.112680 S    
C23   C31   1.407818 A    
C51   C52   1.526996 S    
C46   H28   1.110423 S    
C58   H54   1.110898 S    
N1    C27   1.365362 A    
N5    O13   1.300529 A    
O5    C3    1.277961 A    
C41   H25   1.108873 S    
C9    C19   1.403764 A    
C29   C35   1.511407 S    
C56   H60   1.104675 S    
C11   C41   1.522808 S    
O1    C1    1.292148 A    
C23   C25   1.418501 A    
C12   C14   1.424008 A    
N8    O19   1.301269 A    
C40   H12   1.107747 S    
N9    O22   1.301110 A    
C57   H58   1.111264 S    
C48   H36   1.111247 S    
C2    C13   1.466257 S    
C39   H16   1.112282 S    
N7    O17   1.300603 A    
N7    O18   1.300772 A    
C47   H38   1.108566 S    
C28   C30   1.419697 A    
O4    Cu1   1.942034 S    
C40   H13   1.110193 S    
C3    C5    1.459010 S    
C50   H46   1.110237 S    
C4    C6    1.447440 S    
C39   C40   1.524119 S    
C52   H41   1.110765 S    
C55   H49   1.110352 S    
C19   C21   1.439093 S    
C10   C20   1.399554 A    
C12   C44   1.517537 S    
C51   H43   1.109097 S    
C18   C56   1.526476 S    
N2    C28   1.368860 A    
C37   H5    1.111117 S    
Cu1   Cu2   2.657104 S    
C27   H3    1.082106 S    
O2    C2    1.286343 A    
C42   H23   1.111784 S    
C26   N10   1.426933 S    
C48   C49   1.523018 S    
C8    N3    1.442020 S    
C21   C22   1.199595 T    
N8    O20   1.300763 A    
C29   C31   1.418465 A    
C36   H9    1.111298 S    
C5    H2    1.081315 S    
C25   N1    1.374985 A    
C49   H35   1.109574 S    
N4    O12   1.301436 A    
C37   H6    1.110929 S    
C43   H20   1.107212 S    
C38   C39   1.532733 S    
C53   C54   1.533029 S    
C42   C43   1.525207 S    
N6    O16   1.300908 A    
C44   H31   1.108816 S    
C57   H57   1.112220 S    
C39   H15   1.110824 S    
C43   H19   1.110962 S    
N3    O9    1.300219 A    
C47   H39   1.108601 S    
N3    O10   1.301290 A    
C20   C22   1.438603 S    
C40   H14   1.110289 S    
O7    Cu2   1.960795 S    
C49   H34   1.110454 S    
C41   C42   1.535945 S    
C45   H30   1.112193 S    
O6    C4    1.281252 A    
C52   H42   1.110499 S    
C25   N9    1.428414 S    
C7    C8    1.478447 S    
N5    O14   1.300846 A    
C54   H51   1.111722 S    
C32   C34   1.479711 S    
O7    C3    1.295020 A    
O3    Cu2   1.942033 S    
O8    C4    1.286990 A    
C24   N8    1.439831 S    
N10   O24   1.298452 A    
C9    C11   1.407580 A    
C56   C57   1.535001 S    
C10   C12   1.407373 A    
O4    C2    1.286441 A    
C38   H17   1.112036 S    
C42   H22   1.110494 S    
C24   C26   1.420585 A    
C48   H37   1.110207 S    
C50   C51   1.538760 S    
C43   H21   1.108924 S    
C36   H8    1.112276 S    
C58   H55   1.110934 S    
N4    O11   1.301414 A    
C37   H7    1.110451 S    
O6    Cu2   1.952608 S    
C53   H52   1.109898 S    
C56   H59   1.110630 S    
C35   H10   1.111607 S    
N6    O15   1.301161 A    
O3    C1    1.295239 A    
O8    Cu1   1.960794 S    
C44   H32   1.099451 S    
C46   H27   1.105210 S    
C5    C7    1.354684 D    
C57   C58   1.525577 S    
C13   C15   1.418947 A    
C50   H45   1.103190 S    
C41   H24   1.110546 S    
C49   H33   1.109230 S    
C14   C16   1.428725 A    
C16   C18   1.420689 A    
C36   C37   1.525408 S    
C10   N6    1.435524 S    
C30   C38   1.510082 S    
C17   C19   1.414438 A    
C31   C33   1.479501 S    
C26   N2    1.385277 A    
C35   C36   1.533704 S    
C55   H47   1.110992 S    
C45   H29   1.110369 S    
C6    H1    1.084429 S    
C17   C53   1.526171 S    
C15   C47   1.524967 S    
C54   H50   1.111527 S    
C24   C32   1.404135 A    
C11   C13   1.414896 A    
C45   C46   1.524660 S    
O2    Cu2   1.927917 S    
Cu1   N1    1.995472 S    
C16   C50   1.531076 S    
Cu2   N2    1.995471 S    
C1    C14   1.491258 S    
C30   C32   1.415179 A    
O5    Cu1   1.952607 S    
O1    Cu1   1.927921 S    
N10   O23   1.300942 A    
C6    C8    1.348490 D    
C33   C34   1.225792 T    
C9    N5    1.436656 S    
C47   C48   1.534924 S    
C55   H48   1.110901 S    
C27   C29   1.419385 A    
C38   H18   1.111544 S    
N9    O21   1.300484 A    
C7    N4    1.442494 S    
C51   H44   1.111650 S    
C52   H40   1.110811 S    
C23   N7    1.435958 S    
C54   C55   1.525248 S    
