data_mof_unit_6423.cif
_audit_creation_date              2012-12-10T20:48:17-0500
_audit_creation_method            fapswitch 2.2
_symmetry_space_group_name_H-M    P1
_symmetry_Int_Tables_number       1
_space_group_crystal_system       triclinic
_cell_length_a                    10.762118
_cell_length_b                    8.949096
_cell_length_c                    8.115297
_cell_angle_alpha                 90.182152
_cell_angle_beta                  89.139861
_cell_angle_gamma                 90.760039
_cell_volume                      781.433912187

loop_
_atom_site_label
_atom_site_type_symbol
_atom_type_description
_atom_site_fract_x
_atom_site_fract_y
_atom_site_fract_z
_atom_type_partial_charge
C1    C     C_R   0.498236 0.217968 0.499873 0.954915
C2    C     C_R   0.257381 0.506701 0.500212 0.836976
C3    C     C_R   0.742705 0.515486 0.498278 0.821963
C4    C     C_R   0.498898 0.781969 0.500301 0.889843
C5    C     C_1   0.496835 0.065078 0.499886 -0.214665
C6    C     C_3   0.067135 0.470808 0.664439 -0.466626
C7    C     C_3   0.068928 0.419490 0.364536 -0.437410
C8    C     C_3   0.928255 0.495237 0.668776 -0.452390
C9    C     C_3   0.928704 0.413388 0.374117 -0.442398
C10   C     C_1   0.497071 0.934742 0.500485 -0.221345
C11   C     C_3   0.084946 0.700742 0.468102 0.169284
C12   C     C_3   0.931621 0.702429 0.442465 0.206346
C13   C     C_3   0.122223 0.527981 0.497711 0.120817
C14   C     C_3   0.880140 0.535473 0.493618 0.102774
H1    H     H_    0.110206 0.522946 0.774532 0.183244
H2    H     H_    0.095416 0.447947 0.237715 0.175711
H3    H     H_    0.905627 0.583434 0.759523 0.169324
H4    H     H_    0.889324 0.421553 0.248713 0.186915
H5    H     H_    0.084204 0.349260 0.675920 0.189637
H6    H     H_    0.104774 0.304497 0.383493 0.164575
H7    H     H_    0.883484 0.391134 0.716776 0.203258
H8    H     H_    0.899603 0.301180 0.418928 0.187140
N1    N     N_1   0.500000 0.500030 0.073640 -0.054429
N2    N     N_1   0.500000 0.500030 0.926360 -0.052255
O1    O     O_R   0.500000 0.285340 0.636850 -0.605248
O2    O     O_R   0.500000 0.285340 0.363150 -0.611621
O3    O     O_R   0.314790 0.499970 0.636880 -0.638165
O4    O     O_R   0.314790 0.499970 0.363120 -0.623649
O5    O     O_R   0.685210 0.499970 0.636880 -0.629435
O6    O     O_R   0.685210 0.499970 0.363120 -0.616460
O7    O     O_R   0.500000 0.714650 0.636900 -0.620789
O8    O     O_R   0.500000 0.714650 0.363100 -0.647916
Zn1   Zn    Zn3+2 0.500000 0.499990 0.682780 0.942057
Zn2   Zn    Zn3+2 0.500000 0.499990 0.317220 0.940811
C15   C     C_3   0.130263 0.790868 0.629199 -0.433653
C16   C     C_3   0.148004 0.963373 0.618887 -0.390191
C17   C     C_3   0.187282 0.031507 0.782309 -0.899475
H9    H     H_    0.123834 0.994646 0.883889 0.269090
H10   H     H_    0.284720 0.001014 0.806577 0.277819
H11   H     H_    0.185535 0.154843 0.775372 0.245267
H12   H     H_    0.222143 0.995128 0.528902 0.213213
H13   H     H_    0.063228 0.018043 0.581608 0.250844
H14   H     H_    0.075022 0.762743 0.740756 0.194911
H15   H     H_    0.224147 0.752030 0.660553 0.207774
C18   C     C_3   0.168962 0.777047 0.324071 -0.392253
C19   C     C_3   0.189273 0.717644 0.145093 -0.392038
C20   C     C_3   0.298027 0.800888 0.062382 -0.865990
H16   H     H_    0.287119 0.923405 0.076027 0.257836
H17   H     H_    0.386961 0.770248 0.118075 0.293581
H18   H     H_    0.304014 0.769114 0.930426 0.256847
H19   H     H_    0.214412 0.599896 0.136362 0.253753
H20   H     H_    0.108362 0.736044 0.066023 0.199900
H21   H     H_    0.138874 0.894193 0.308854 0.179342
H22   H     H_    0.264218 0.787289 0.373107 0.221540
C21   C     C_3   0.859006 0.819091 0.558082 -0.401651
C22   C     C_3   0.834553 0.979888 0.498732 -0.373060
C23   C     C_3   0.806033 0.082825 0.645449 -0.896871
H23   H     H_    0.766506 0.188856 0.601429 0.249509
H24   H     H_    0.735550 0.029899 0.728892 0.274416
H25   H     H_    0.891010 0.107636 0.716718 0.258280
H26   H     H_    0.910889 0.025857 0.420398 0.204451
H27   H     H_    0.749702 0.981234 0.424267 0.220089
H28   H     H_    0.764523 0.775948 0.586778 0.175115
H29   H     H_    0.898303 0.825556 0.681745 0.204349
C24   C     C_3   0.905546 0.738457 0.254591 -0.405819
C25   C     C_3   0.774552 0.778041 0.196942 -0.366362
C26   C     C_3   0.742682 0.704877 0.033027 -0.791283
H30   H     H_    0.809230 0.744724 0.936998 0.220507
H31   H     H_    0.746877 0.581303 0.041948 0.264311
H32   H     H_    0.648246 0.738694 0.996341 0.252627
H33   H     H_    0.705321 0.751205 0.291315 0.266817
H34   H     H_    0.768743 0.900272 0.174534 0.195851
H35   H     H_    0.958897 0.839579 0.219181 0.184634
H36   H     H_    0.941475 0.646791 0.177142 0.205183

loop_
_geom_bond_atom_site_label_1
_geom_bond_atom_site_label_2
_ccdc_geom_bond_type
C8    H3    S    
C3    O6    A    
C2    O4    A    
C21   C22   S    
O7    Zn1   S    
C17   H9    S    
C6    H5    S    
C19   H20   S    
C17   H11   S    
C15   H14   S    
C12   C24   S    
C16   H13   S    
N2    Zn1   S    
C9    C14   S    
N1    Zn2   S    
C21   H29   S    
C26   H32   S    
C11   C15   S    
C8    H7    S    
C16   H12   S    
O4    Zn2   S    
C5    C10   T    
C17   H10   S    
C18   C19   S    
O3    Zn1   S    
C6    C13   S    
C1    O1    A    
C15   H15   S    
C11   C13   S    
C3    O5    A    
C23   H23   S    
C4    O8    A    
C3    C14   S    
C1    C5    S    
C6    C8    S    
C21   H28   S    
C7    H2    S    
C12   C14   S    
C18   H22   S    
C25   C26   S    
C20   H18   S    
C24   C25   S    
C2    O3    A    
C1    O2    A    
C22   H27   S    
C9    H8    S    
C11   C18   S    
C12   C21   S    
C23   H24   S    
O6    Zn2   S    
N1    N2    T    
C18   H21   S    
C26   H30   S    
C4    O7    A    
C20   H16   S    
O5    Zn1   S    
C9    H4    S    
C7    C13   S    
C24   H35   S    
C22   C23   S    
C20   H17   S    
C7    H6    S    
C7    C9    S    
C2    C13   S    
C19   C20   S    
C16   C17   S    
C23   H25   S    
C8    C14   S    
C6    H1    S    
C22   H26   S    
C4    C10   S    
C19   H19   S    
O2    Zn2   S    
C25   H34   S    
C24   H36   S    
C25   H33   S    
C11   C12   S    
O1    Zn1   S    
C26   H31   S    
C15   C16   S    
O8    Zn2   S    
