data_mof_unit_26695.cif
_audit_creation_date              2012-10-26T19:09:53-0400
_audit_creation_method            fapswitch 2.2
_symmetry_space_group_name_H-M    P1
_symmetry_Int_Tables_number       1
_space_group_crystal_system       triclinic
_cell_length_a                    14.684993
_cell_length_b                    15.834335
_cell_length_c                    9.405397
_cell_angle_alpha                 89.998815
_cell_angle_beta                  90.000496
_cell_angle_gamma                 90.000033
_cell_volume                      2187.00967537

loop_
_atom_site_label
_atom_site_type_symbol
_atom_type_description
_atom_site_fract_x
_atom_site_fract_y
_atom_site_fract_z
_atom_type_partial_charge
C1    C     C_R   0.120971 0.380181 0.499871 0.633421
C2    C     C_R   0.877535 0.617694 0.500107 0.536868
C3    C     C_R   0.377534 0.882308 0.500111 0.536908
C4    C     C_R   0.377536 0.117694 0.499889 0.536906
C5    C     C_3   0.839251 0.243726 0.603137 -0.195423
C6    C     C_3   0.800169 0.275768 0.348265 -0.195115
C7    C     C_3   0.800136 0.724203 0.651748 -0.195125
C8    C     C_3   0.839269 0.756285 0.396908 -0.195419
C9    C     C_3   0.299863 0.776015 0.651874 -0.195333
C10   C     C_3   0.339420 0.743581 0.397332 -0.195367
C11   C     C_3   0.339416 0.256415 0.602687 -0.195370
C12   C     C_R   0.120971 0.619819 0.500130 0.633411
C13   C     C_3   0.299878 0.223999 0.348131 -0.195320
C14   C     C_3   0.231706 0.702661 0.652812 0.124310
C15   C     C_3   0.265583 0.675180 0.386094 0.145719
C16   C     C_3   0.265580 0.324817 0.613917 0.145721
C17   C     C_3   0.231713 0.297346 0.347191 0.124303
C18   C     C_3   0.765527 0.175198 0.614044 0.145571
C19   C     C_3   0.731843 0.202553 0.347233 0.124522
C20   C     C_3   0.731822 0.797427 0.652779 0.124521
C21   C     C_3   0.765548 0.824817 0.385996 0.145583
C22   C     C_3   0.713570 0.346857 0.545621 -0.265072
C23   C     C_R   0.620990 0.880199 0.500134 0.633391
C24   C     C_3   0.713575 0.653150 0.454317 -0.265075
C25   C     C_3   0.213631 0.846814 0.453844 -0.265042
C26   C     C_3   0.213631 0.153185 0.546130 -0.265042
C27   C     C_3   0.808638 0.313887 0.499457 -0.025424
C28   C     C_3   0.808635 0.686110 0.500542 -0.025416
C29   C     C_3   0.308621 0.813906 0.500555 -0.025390
C30   C     C_3   0.308624 0.186097 0.499444 -0.025393
C31   C     C_3   0.189892 0.689511 0.500810 0.049711
C32   C     C_3   0.189893 0.310491 0.499190 0.049719
C33   C     C_3   0.689919 0.189484 0.499177 0.049711
C34   C     C_R   0.620988 0.119803 0.499867 0.633399
C35   C     C_3   0.689921 0.810516 0.500823 0.049702
C36   C     C_3   0.142494 0.774214 0.460564 -0.324015
C37   C     C_3   0.142495 0.225786 0.539420 -0.324012
C38   C     C_3   0.642487 0.274206 0.539196 -0.323978
C39   C     C_3   0.642493 0.725801 0.460751 -0.323978
C40   C     C_3   0.955217 0.575812 0.083634 -0.107592
C41   C     C_3   0.954066 0.575203 0.916242 -0.108402
C42   C     C_3   0.953685 0.425005 0.083755 -0.108423
C43   C     C_3   0.954832 0.424391 0.916365 -0.107584
C44   C     C_3   0.453745 0.075028 0.083752 -0.108430
C45   C     C_3   0.095115 0.498910 0.083849 -0.092210
C46   C     C_3   0.454899 0.075644 0.916361 -0.107577
C47   C     C_3   0.455155 0.924220 0.083638 -0.107581
C48   C     C_3   0.453998 0.924833 0.916246 -0.108418
C49   C     C_3   0.095120 0.500685 0.916156 -0.092265
C50   C     C_3   0.595115 0.001029 0.083848 -0.092216
C51   C     C_3   0.595118 0.999241 0.916157 -0.092248
C52   C     C_R   0.877538 0.382303 0.499892 0.536867
Cl1   Cl    Cl    0.285229 0.611417 0.727016 -0.520217
Cl2   Cl    Cl    0.318158 0.574537 0.389397 -0.409363
Cl3   Cl    Cl    0.318155 0.425461 0.610626 -0.409364
Cl4   Cl    Cl    0.285223 0.388597 0.272987 -0.520222
Cl5   Cl    Cl    0.818295 0.074638 0.610567 -0.409368
Cl6   Cl    Cl    0.785174 0.111225 0.272999 -0.520105
Cl7   Cl    Cl    0.785164 0.888742 0.727049 -0.520117
Cl8   Cl    Cl    0.818325 0.925372 0.389548 -0.409339
Cu1   Cu    Cu3+1 0.000100 0.500000 0.642410 0.922557
Cu2   Cu    Cu3+1 0.000100 0.500000 0.357590 0.922543
Cu3   Cu    Cu3+1 0.500100 0.000000 0.642410 0.922542
Cu4   Cu    Cu3+1 0.500100 0.000000 0.357590 0.922520
H1    H     H_    0.851589 0.269896 0.711311 0.104964
H2    H     H_    0.868415 0.254452 0.311044 0.172894
H3    H     H_    0.868376 0.745502 0.689026 0.172902
H4    H     H_    0.905127 0.783065 0.434617 0.166937
H5    H     H_    0.368052 0.754894 0.689658 0.172826
H6    H     H_    0.405095 0.716707 0.435630 0.167179
H7    H     H_    0.405095 0.283290 0.564411 0.167170
H8    H     H_    0.368069 0.245131 0.310373 0.172823
H9    H     H_    0.175788 0.719154 0.727874 0.111999
H10   H     H_    0.233755 0.679830 0.278865 0.116285
H11   H     H_    0.233747 0.320166 0.721141 0.116247
H12   H     H_    0.776604 0.325066 0.272205 0.096323
H13   H     H_    0.175797 0.280847 0.272126 0.111960
H14   H     H_    0.733589 0.179707 0.721208 0.116278
H15   H     H_    0.675990 0.219167 0.272124 0.111922
H16   H     H_    0.675958 0.780815 0.727866 0.111950
H17   H     H_    0.733629 0.820328 0.278816 0.116318
H18   H     H_    0.717116 0.372303 0.655783 0.134398
H19   H     H_    0.691703 0.399367 0.474763 0.137798
H20   H     H_    0.691695 0.600625 0.525134 0.137802
H21   H     H_    0.717139 0.627726 0.344142 0.134408
H22   H     H_    0.191697 0.899519 0.524232 0.137819
H23   H     H_    0.776544 0.674893 0.727765 0.096318
H24   H     H_    0.217345 0.871970 0.343504 0.134360
H25   H     H_    0.217339 0.128017 0.656463 0.134353
H26   H     H_    0.191701 0.100487 0.475722 0.137816
H27   H     H_    0.089049 0.789937 0.540234 0.131009
H28   H     H_    0.107703 0.768518 0.355834 0.125628
H29   H     H_    0.107704 0.231476 0.644151 0.125635
H30   H     H_    0.089049 0.210067 0.459747 0.131010
H31   H     H_    0.607743 0.268598 0.643978 0.125629
H32   H     H_    0.588996 0.289816 0.459534 0.130940
H33   H     H_    0.588992 0.710180 0.540389 0.130940
H34   H     H_    0.851624 0.730131 0.288727 0.104960
H35   H     H_    0.607762 0.731426 0.355960 0.125629
H36   H     H_    0.989587 0.634080 0.122308 0.117453
H37   H     H_    0.986333 0.633958 0.875314 0.119864
H38   H     H_    0.985664 0.366110 0.124669 0.119841
H39   H     H_    0.988915 0.365975 0.877702 0.117460
H40   H     H_    0.485768 0.133901 0.124668 0.119853
H41   H     H_    0.489035 0.134035 0.877698 0.117450
H42   H     H_    0.489482 0.865928 0.122308 0.117447
H43   H     H_    0.486213 0.866053 0.875320 0.119871
H44   H     H_    0.883662 0.578731 0.121991 0.119480
H45   H     H_    0.275994 0.825404 0.727533 0.096286
H46   H     H_    0.882006 0.576201 0.879942 0.117241
H47   H     H_    0.881624 0.424315 0.120077 0.117206
H48   H     H_    0.883267 0.421781 0.877984 0.119436
H49   H     H_    0.381683 0.075767 0.120068 0.117218
H50   H     H_    0.383336 0.078311 0.877980 0.119462
H51   H     H_    0.383600 0.921347 0.122003 0.119489
H52   H     H_    0.381937 0.923889 0.879944 0.117241
H53   H     H_    0.134675 0.553608 0.124700 0.158212
H54   H     H_    0.131519 0.558183 0.880112 0.179697
H55   H     H_    0.131218 0.441245 0.119869 0.179320
H56   H     H_    0.352167 0.769589 0.289162 0.105073
H57   H     H_    0.134401 0.445809 0.875336 0.157750
H58   H     H_    0.631254 0.058677 0.119847 0.179359
H59   H     H_    0.634456 0.054077 0.875313 0.157816
H60   H     H_    0.634638 0.946312 0.124712 0.158111
H61   H     H_    0.631454 0.941704 0.880142 0.179630
H62   H     H_    0.352151 0.230400 0.710855 0.105072
H63   H     H_    0.276024 0.174614 0.272452 0.096288
H64   H     H_    0.905115 0.216937 0.565470 0.166935
N1    N     N_3   0.001260 0.500000 0.143650 -0.247130
N2    N     N_3   0.001260 0.500000 0.856350 -0.247109
N3    N     N_3   0.501260 0.000000 0.143650 -0.247120
N4    N     N_3   0.501260 0.000000 0.856350 -0.247110
O1    O     O_R   0.091250 0.408820 0.620260 -0.501318
O2    O     O_R   0.908940 0.408800 0.379740 -0.528254
O3    O     O_R   0.908940 0.591200 0.620260 -0.528250
O4    O     O_R   0.908940 0.591200 0.379740 -0.524802
O5    O     O_R   0.408940 0.908800 0.620260 -0.528245
O6    O     O_R   0.408940 0.908800 0.379740 -0.524792
O7    O     O_R   0.408940 0.091200 0.620260 -0.524801
O8    O     O_R   0.408940 0.091200 0.379740 -0.528248
O9    O     O_R   0.091250 0.408820 0.379740 -0.478009
O10   O     O_R   0.091250 0.591180 0.620260 -0.477982
O11   O     O_R   0.091250 0.591180 0.379740 -0.501312
O12   O     O_R   0.591250 0.908820 0.620260 -0.477965
O13   O     O_R   0.591250 0.908820 0.379740 -0.501412
O14   O     O_R   0.591250 0.091180 0.620260 -0.501398
O15   O     O_R   0.591250 0.091180 0.379740 -0.477997
O16   O     O_R   0.908940 0.408800 0.620260 -0.524811

loop_
_geom_bond_atom_site_label_1
_geom_bond_atom_site_label_2
_ccdc_geom_bond_type
C40   N1    S    
C45   N1    S    
Cu4   O13   S    
C16   H11   S    
C51   H59   S    
C50   H58   S    
Cu2   O11   S    
C42   H47   S    
C44   H40   S    
Cu1   O1    S    
Cu4   O6    S    
C26   H25   S    
C47   H51   S    
C6    C19   S    
C23   O13   A    
C22   H18   S    
Cu1   O16   S    
C9    H5    S    
C10   C15   S    
C46   N4    S    
C41   N2    S    
C11   H7    S    
C39   H33   S    
C48   H43   S    
C22   C38   S    
C46   H41   S    
C24   C39   S    
C52   O2    A    
C11   C16   S    
Cu2   O4    S    
C3    C29   S    
C8    H34   S    
C5    C27   S    
C20   C35   S    
C7    H23   S    
C49   H54   S    
C11   C30   S    
C41   H37   S    
C38   H31   S    
Cu3   O12   S    
C3    O5    A    
C24   H21   S    
C14   C31   S    
Cu3   O14   S    
C6    C27   S    
C9    C29   S    
C48   H52   S    
C36   H28   S    
C52   O16   A    
C9    H45   S    
Cu3   O5    S    
Cu2   N1    S    
C1    O1    A    
C42   H38   S    
C44   C46   S    
C8    C21   S    
C19   Cl6   S    
C25   C29   S    
C33   C34   S    
C46   H50   S    
C51   H61   S    
C14   H9    S    
C13   C30   S    
C11   H62   S    
C50   H60   S    
C21   Cl8   S    
C5    H1    S    
C19   C33   S    
C20   H16   S    
C5    C18   S    
Cu3   N4    S    
C15   C31   S    
C25   H24   S    
C2    O4    A    
C7    C28   S    
C2    O3    A    
C47   N3    S    
C44   N3    S    
C35   C39   S    
C9    C14   S    
C15   Cl2   S    
C4    O8    A    
C34   O15   A    
Cu1   O10   S    
C18   Cl5   S    
C39   H35   S    
C47   C48   S    
Cu4   N3    S    
C45   C49   S    
C18   H14   S    
C47   H42   S    
C49   H57   S    
C15   H10   S    
C17   H13   S    
C50   C51   S    
C37   H29   S    
C3    O6    A    
C32   C37   S    
C20   Cl7   S    
C19   H15   S    
C17   Cl4   S    
Cu1   N2    S    
C10   H6    S    
C36   H27   S    
C40   C41   S    
C21   H17   S    
C44   H49   S    
C8    H4    S    
C23   C35   S    
C41   H46   S    
C12   C31   S    
C8    C28   S    
C23   O12   A    
C26   H26   S    
C42   C43   S    
Cu2   O9    S    
C27   C52   S    
Cu1   O3    S    
Cu4   O8    S    
C45   H53   S    
Cu3   O7    S    
C43   N2    S    
C24   C28   S    
C40   H36   S    
C51   N4    S    
C26   C37   S    
C6    H12   S    
C21   C35   S    
C13   H8    S    
C16   C32   S    
C49   N2    S    
C33   C38   S    
C12   O11   A    
C13   C17   S    
C22   C27   S    
C22   H19   S    
Cu2   O2    S    
C24   H20   S    
C16   Cl3   S    
Cu4   O15   S    
C4    O7    A    
C34   O14   A    
C10   C29   S    
C45   H55   S    
C5    H64   S    
C25   H22   S    
C12   O10   A    
C37   H30   S    
C42   N1    S    
C1    C32   S    
Cu1   Cu2   S    
C18   C33   S    
C43   H39   S    
C1    O9    A    
C50   N3    S    
C25   C36   S    
C7    H3    S    
Cu3   Cu4   S    
C13   H63   S    
C40   H44   S    
C6    H2    S    
C14   Cl1   S    
C7    C20   S    
C43   H48   S    
C38   H32   S    
C17   C32   S    
C31   C36   S    
C48   N4    S    
C2    C28   S    
C10   H56   S    
C4    C30   S    
C26   C30   S    
