data_mof_unit_33689.cif
_audit_creation_date              2013-03-05T15:48:14-0500
_audit_creation_method            fapswitch 2.2
_symmetry_space_group_name_H-M    P1
_symmetry_Int_Tables_number       1
_space_group_crystal_system       triclinic
_cell_length_a                    15.739315
_cell_length_b                    15.739339
_cell_length_c                    34.54357
_cell_angle_alpha                 90.001836
_cell_angle_beta                  89.99971
_cell_angle_gamma                 120.000731
_cell_volume                      7410.83199764

loop_
_atom_site_label
_atom_site_type_symbol
_atom_site_description
_atom_site_fract_x
_atom_site_fract_y
_atom_site_fract_z
_atom_type_partial_charge
O1    O     O_R   0.498680 0.159540 0.541860 -0.482376
O2    O     O_R   0.840460 0.339140 0.541860 -0.482341
O3    O     O_R   0.660860 0.501320 0.541860 -0.482351
O4    O     O_R   0.159540 0.498680 0.041860 -0.482425
O5    O     O_R   0.339140 0.840460 0.041860 -0.482433
O6    O     O_R   0.501320 0.660860 0.041860 -0.482467
O7    O     O_R   0.532760 0.358060 0.540030 -0.456512
O8    O     O_R   0.641940 0.174700 0.540030 -0.456495
O9    O     O_R   0.825300 0.467240 0.540030 -0.456495
O10   O     O_R   0.358060 0.532760 0.040030 -0.456544
O11   O     O_R   0.174700 0.641940 0.040030 -0.456586
O12   O     O_R   0.467240 0.825300 0.040030 -0.456591
C1    C     C_R   0.577877 0.441759 0.554777 0.576105
C2    C     C_R   0.558240 0.136118 0.554776 0.576069
C3    C     C_R   0.863892 0.422130 0.554774 0.576067
C4    C     C_R   0.441759 0.577882 0.054778 0.576102
C5    C     C_R   0.136116 0.558240 0.054775 0.576114
C6    C     C_R   0.422120 0.863877 0.054778 0.576156
O13   O     O_R   0.498590 0.161190 0.456930 -0.455128
O14   O     O_R   0.838810 0.337400 0.456930 -0.455163
O15   O     O_R   0.662600 0.501410 0.456930 -0.455172
O16   O     O_R   0.161190 0.498590 0.956930 -0.455203
O17   O     O_R   0.337400 0.838810 0.956930 -0.455185
O18   O     O_R   0.501410 0.662600 0.956930 -0.455171
O19   O     O_R   0.532680 0.359580 0.461300 -0.488842
O20   O     O_R   0.640420 0.173100 0.461300 -0.488879
O21   O     O_R   0.826900 0.467320 0.461300 -0.488842
O22   O     O_R   0.359580 0.532680 0.961300 -0.488838
O23   O     O_R   0.173100 0.640420 0.961300 -0.488822
O24   O     O_R   0.467320 0.826900 0.961300 -0.488794
C7    C     C_R   0.576663 0.442717 0.445926 0.577526
C8    C     C_R   0.557279 0.133938 0.445928 0.577437
C9    C     C_R   0.866046 0.423334 0.445923 0.577486
C10   C     C_R   0.442721 0.576662 0.945928 0.577532
C11   C     C_R   0.133951 0.557281 0.945923 0.577489
C12   C     C_R   0.423332 0.866044 0.945923 0.577561
Cr1   Cr    Cr6+3 0.522350 0.263930 0.500020 1.177846
Cr2   Cr    Cr6+3 0.736070 0.258420 0.500020 1.177820
Cr3   Cr    Cr6+3 0.741580 0.477650 0.500020 1.177847
Cr4   Cr    Cr6+3 0.263930 0.522350 0.000020 1.177782
Cr5   Cr    Cr6+3 0.258420 0.736070 0.000020 1.177783
Cr6   Cr    Cr6+3 0.477650 0.741580 0.000020 1.177788
O25   O     O_3   0.666667 0.333333 0.499990 -0.323996
O26   O     O_3   0.333333 0.666667 0.999990 -0.324021
N1    N     N_R   0.952163 0.422181 0.771746 -0.196809
N2    N     N_R   0.577947 0.529616 0.771810 -0.196796
N3    N     N_R   0.470364 0.048305 0.771801 -0.196789
N4    N     N_R   0.422019 0.951155 0.271869 -0.196819
N5    N     N_R   0.529471 0.577982 0.271832 -0.196810
N6    N     N_R   0.048565 0.470639 0.271828 -0.196803
N7    N     N_R   0.943223 0.418119 0.733407 -0.201002
N8    N     N_R   0.582028 0.524724 0.733472 -0.200989
N9    N     N_R   0.475254 0.057281 0.733463 -0.200966
N10   N     N_R   0.417937 0.942193 0.233531 -0.201118
N11   N     N_R   0.524576 0.582073 0.233495 -0.201053
N12   N     N_R   0.057538 0.475528 0.233490 -0.201062
C13   C     C_R   0.920178 0.456983 0.591228 -0.012446
C14   C     C_R   0.543081 0.463161 0.591254 -0.012430
C15   C     C_R   0.536834 0.079914 0.591249 -0.012439
C16   C     C_R   0.456876 0.919992 0.091273 -0.012362
C17   C     C_R   0.463156 0.543121 0.091262 -0.012389
C18   C     C_R   0.079945 0.536848 0.091256 -0.012391
C19   C     C_R   0.936924 0.391066 0.612541 -0.135844
C20   C     C_R   0.609055 0.545773 0.612582 -0.135871
C21   C     C_R   0.454205 0.063252 0.612571 -0.135866
C22   C     C_R   0.390802 0.936365 0.112655 -0.136059
C23   C     C_R   0.545706 0.609154 0.112607 -0.136001
C24   C     C_R   0.063459 0.454329 0.112612 -0.135960
C25   C     C_R   0.965116 0.409539 0.651008 -0.129943
C26   C     C_R   0.590647 0.555428 0.651064 -0.129976
C27   C     C_R   0.444533 0.035174 0.651050 -0.129975
C28   C     C_R   0.409202 0.964292 0.151149 -0.130046
C29   C     C_R   0.555338 0.590759 0.151091 -0.130026
C30   C     C_R   0.035448 0.444729 0.151097 -0.130004
C31   C     C_R   0.978115 0.494666 0.669268 -0.006989
C32   C     C_R   0.505525 0.483294 0.669320 -0.006967
C33   C     C_R   0.516668 0.022197 0.669311 -0.006966
C34   C     C_R   0.494409 0.977396 0.169370 -0.006958
C35   C     C_R   0.483238 0.505597 0.169336 -0.006943
C36   C     C_R   0.022366 0.516828 0.169332 -0.006958
C37   C     C_R   0.971004 0.566857 0.647216 0.097739
C38   C     C_R   0.433298 0.404033 0.647263 0.097716
C39   C     C_R   0.595950 0.029261 0.647261 0.097729
C40   C     C_R   0.566723 0.970630 0.147264 0.097676
C41   C     C_R   0.404038 0.433327 0.147266 0.097712
C42   C     C_R   0.029236 0.595981 0.147248 0.097693
C43   C     C_R   0.943465 0.548322 0.607890 0.201760
C44   C     C_R   0.451762 0.395096 0.607923 0.201758
C45   C     C_R   0.604905 0.056678 0.607924 0.201772
C46   C     C_R   0.548263 0.943370 0.107909 0.201727
C47   C     C_R   0.395128 0.451778 0.107922 0.201745
C48   C     C_R   0.056584 0.604858 0.107903 0.201719
N13   N     N_R   0.049644 0.587248 0.729546 -0.168518
N14   N     N_R   0.412967 0.462432 0.729579 -0.168528
N15   N     N_R   0.537484 0.950461 0.729563 -0.168535
N16   N     N_R   0.586992 0.048979 0.229638 -0.168474
N17   N     N_R   0.462422 0.413035 0.229587 -0.168493
N18   N     N_R   0.950679 0.537708 0.229592 -0.168490
N19   N     N_R   0.058057 0.591545 0.767880 -0.200029
N20   N     N_R   0.408649 0.466562 0.767911 -0.200031
N21   N     N_R   0.533356 0.942011 0.767894 -0.200047
N22   N     N_R   0.591314 0.057414 0.267969 -0.199996
N23   N     N_R   0.466554 0.408707 0.267917 -0.200021
N24   N     N_R   0.942232 0.533584 0.267923 -0.200020
C49   C     C_R   0.008878 0.509275 0.789708 0.351762
C50   C     C_R   0.490873 0.499454 0.789754 0.351742
C51   C     C_R   0.500499 0.991367 0.789740 0.351741
C52   C     C_R   0.509092 0.008081 0.289812 0.351737
C53   C     C_R   0.499379 0.490911 0.289767 0.351744
C54   C     C_R   0.991602 0.500743 0.289768 0.351739
C55   C     C_R   0.991055 0.500731 0.711595 0.358406
C56   C     C_R   0.499457 0.490142 0.711646 0.358412
C57   C     C_R   0.509807 0.009269 0.711634 0.358409
C58   C     C_R   0.500502 0.990208 0.211703 0.358424
C59   C     C_R   0.490063 0.499518 0.211662 0.358417
C60   C     C_R   0.009498 0.510045 0.211661 0.358414
C61   C     C_R   0.004921 0.433199 0.853563 -0.095415
C62   C     C_R   0.566911 0.571545 0.853623 -0.095407
C63   C     C_R   0.428440 0.995332 0.853613 -0.095399
C64   C     C_R   0.433063 0.004368 0.353654 -0.095379
C65   C     C_R   0.571470 0.566931 0.353639 -0.095404
C66   C     C_R   0.995455 0.428565 0.353625 -0.095383
C67   C     C_R   0.028669 0.442454 0.893064 0.181802
C68   C     C_R   0.557612 0.586079 0.893118 0.181819
C69   C     C_R   0.413902 0.971482 0.893105 0.181806
C70   C     C_R   0.442382 0.028385 0.393130 0.181806
C71   C     C_R   0.586034 0.557611 0.393129 0.181825
C72   C     C_R   0.971526 0.413947 0.393108 0.181804
C73   C     C_R   0.072995 0.614798 0.889920 0.046993
C74   C     C_R   0.385227 0.458166 0.889934 0.046980
C75   C     C_R   0.541769 0.926945 0.889910 0.046966
C76   C     C_R   0.614744 0.072754 0.389981 0.047033
C77   C     C_R   0.458178 0.385202 0.389930 0.046977
C78   C     C_R   0.927041 0.541855 0.389937 0.046989
C79   C     C_R   0.048764 0.603509 0.850828 -0.101974
C80   C     C_R   0.396559 0.445189 0.850850 -0.101954
C81   C     C_R   0.554744 0.951269 0.850828 -0.101938
C82   C     C_R   0.603388 0.048266 0.350915 -0.101887
C83   C     C_R   0.445173 0.396558 0.350852 -0.101926
C84   C     C_R   0.951442 0.554907 0.350863 -0.101916
C85   C     C_R   0.020297 0.514882 0.831961 -0.031848
C86   C     C_R   0.485232 0.505282 0.832005 -0.031842
C87   C     C_R   0.494681 0.979897 0.831990 -0.031818
C88   C     C_R   0.514722 0.019642 0.332058 -0.031827
C89   C     C_R   0.505222 0.485255 0.332016 -0.031827
C90   C     C_R   0.980085 0.494866 0.332016 -0.031812
C91   C     C_R   0.073148 0.536818 0.910544 0.006396
C92   C     C_R   0.463207 0.536281 0.910567 0.006392
C93   C     C_R   0.463693 0.926866 0.910552 0.006409
C94   C     C_R   0.536782 0.073006 0.410585 0.006321
C95   C     C_R   0.536273 0.463193 0.410568 0.006390
C96   C     C_R   0.926902 0.463726 0.410562 0.006368
H1    H     H_    0.922142 0.321701 0.600264 0.212552
H2    H     H_    0.678413 0.600361 0.600302 0.212561
H3    H     H_    0.399613 0.078010 0.600286 0.212563
H4    H     H_    0.321379 0.921480 0.100404 0.212493
H5    H     H_    0.600256 0.678547 0.100337 0.212440
H6    H     H_    0.078314 0.399781 0.100349 0.212548
H7    H     H_    0.972650 0.354563 0.667107 0.180459
H8    H     H_    0.645656 0.617898 0.667173 0.180417
H9    H     H_    0.382052 0.027695 0.667155 0.180419
H10   H     H_    0.354124 0.971557 0.167293 0.180432
H11   H     H_    0.617759 0.645805 0.167210 0.180403
H12   H     H_    0.028105 0.382335 0.167225 0.180433
H13   H     H_    0.976376 0.362608 0.839509 0.189105
H14   H     H_    0.637530 0.613518 0.839582 0.189100
H15   H     H_    0.386478 0.023999 0.839578 0.189072
H16   H     H_    0.362449 0.975708 0.339608 0.189066
H17   H     H_    0.613412 0.637564 0.339606 0.189070
H18   H     H_    0.024128 0.386614 0.339583 0.189058
H19   H     H_    0.054007 0.665237 0.834887 0.176972
H20   H     H_    0.334832 0.388728 0.834900 0.176969
H21   H     H_    0.611173 0.945963 0.834871 0.176963
H22   H     H_    0.665100 0.053448 0.334981 0.176971
H23   H     H_    0.388732 0.334827 0.334897 0.176969
H24   H     H_    0.946177 0.611373 0.334917 0.176958
N25   N     N_R   0.937529 0.621446 0.585189 0.106729
O27   O     O_R   0.991562 0.656633 0.554366 -0.261687
O28   O     O_R   0.870579 0.644546 0.592651 -0.299960
N26   N     N_R   0.378584 0.316092 0.585214 0.106731
O29   O     O_R   0.343367 0.335018 0.554418 -0.261687
O30   O     O_R   0.355462 0.226018 0.592635 -0.299927
N27   N     N_R   0.683940 0.062548 0.585225 0.106737
O31   O     O_R   0.665056 0.008393 0.554434 -0.261680
O32   O     O_R   0.773995 0.129543 0.592651 -0.299938
N28   N     N_R   0.621522 0.937829 0.085146 0.106716
O33   O     O_R   0.656505 0.992018 0.054349 -0.261651
O34   O     O_R   0.644911 0.871043 0.092507 -0.299656
N29   N     N_R   0.316193 0.378560 0.085198 0.106735
O35   O     O_R   0.335211 0.343418 0.054403 -0.261597
O36   O     O_R   0.226084 0.355340 0.092604 -0.299890
N30   N     N_R   0.062225 0.683730 0.085161 0.106724
O37   O     O_R   0.008099 0.664625 0.054350 -0.261628
O38   O     O_R   0.129024 0.773875 0.092564 -0.299780
N31   N     N_R   0.005631 0.355795 0.915027 0.109050
O39   O     O_R   0.975094 0.347326 0.950595 -0.255273
O40   O     O_R   0.998407 0.278875 0.897822 -0.270340
N32   N     N_R   0.644263 0.649623 0.915106 0.109093
O41   O     O_R   0.652519 0.627655 0.950712 -0.255316
O42   O     O_R   0.721361 0.719086 0.897907 -0.270288
N33   N     N_R   0.350330 0.994547 0.915091 0.109043
O43   O     O_R   0.372351 0.024896 0.950682 -0.255293
O44   O     O_R   0.280740 0.001982 0.897901 -0.270313
N34   N     N_R   0.355751 0.005463 0.415092 0.109040
O45   O     O_R   0.347365 0.975203 0.450698 -0.255374
O46   O     O_R   0.278762 0.998028 0.397868 -0.270356
N35   N     N_R   0.649578 0.644253 0.415121 0.109068
O47   O     O_R   0.627607 0.652499 0.450729 -0.255425
O48   O     O_R   0.719053 0.721351 0.397927 -0.270331
N36   N     N_R   0.994519 0.350306 0.415081 0.109025
O49   O     O_R   0.024857 0.372271 0.450675 -0.255403
O50   O     O_R   0.001915 0.280709 0.397875 -0.270348
I1    I     I_    0.994020 0.701626 0.671933 -0.112326
I2    I     I_    0.298597 0.292233 0.672004 -0.112436
I3    I     I_    0.707761 0.006395 0.672013 -0.112376
I4    I     I_    0.701568 0.993762 0.171941 -0.112383
I5    I     I_    0.292290 0.298576 0.171993 -0.112360
I6    I     I_    0.006128 0.707685 0.171953 -0.112436
I7    I     I_    0.106657 0.753192 0.913577 -0.079489
I8    I     I_    0.246788 0.353493 0.913567 -0.079421
I9    I     I_    0.646345 0.892985 0.913505 -0.079877
I10   I     I_    0.753229 0.106668 0.413616 -0.079517
I11   I     I_    0.353593 0.246684 0.413534 -0.079677
I12   I     I_    0.893055 0.646404 0.413545 -0.079891

loop_
_geom_bond_atom_site_label_1
_geom_bond_atom_site_label_2
_geom_bond_distance
_ccdc_geom_bond_type
O19   C7    1.252057 A    
O7    C1    1.250478 A    
C65   H17   1.082964 S    
Cr6   O26   1.967591 S    
O20   C8    1.252052 A    
O20   Cr2   1.958807 S    
C35   C59   1.472628 S    
C39   I3    2.142651 S    
C76   C94   1.420269 A    
N33   O43   1.301626 A    
C24   C30   1.384906 A    
C83   H23   1.083416 S    
C77   C95   1.420209 A    
C52   C88   1.467811 S    
N16   C58   1.354014 A    
C41   C47   1.411329 A    
O21   C9    1.252033 A    
N4    N10   1.329975 A    
O16   C11   1.256100 A    
O15   C7    1.256111 A    
C69   N33   1.439794 S    
O8    Cr2   1.972128 S    
C76   I10   2.130465 S    
C45   N27   1.433827 S    
C64   C88   1.398993 A    
C17   C47   1.416058 A    
N15   C57   1.354011 A    
C65   C71   1.403027 A    
N16   N22   1.329090 A    
N27   O32   1.300802 A    
C78   C84   1.390195 A    
C25   H7    1.083814 S    
C20   C26   1.384947 A    
C64   C70   1.403008 A    
C12   C93   1.484842 S    
N7    C55   1.358787 A    
C83   C89   1.395037 A    
N1    N7    1.329964 A    
C76   C82   1.390208 A    
C20   H2    1.082546 S    
C78   C96   1.420265 A    
O9    Cr3   1.972124 S    
O18   Cr6   2.089369 S    
O10   Cr4   1.972113 S    
C42   I6    2.142653 S    
N29   O36   1.300806 A    
C41   I5    2.142652 S    
C80   C86   1.395057 A    
O13   Cr1   2.089359 S    
C72   N36   1.439782 S    
C38   I2    2.142645 S    
C10   C92   1.484854 S    
C72   C96   1.421576 A    
C37   I1    2.142681 S    
C80   H20   1.083411 S    
C61   H13   1.082950 S    
N25   O28   1.300822 A    
C18   C48   1.416064 A    
C82   H22   1.083423 S    
N15   N21   1.329081 A    
O12   Cr6   1.972087 S    
N22   C52   1.357243 A    
N32   O41   1.301622 A    
C23   C29   1.384926 A    
C79   H19   1.083418 S    
N17   C59   1.354007 A    
O6    C4    1.248710 A    
N13   N19   1.329118 A    
O3    C1    1.248750 A    
O1    Cr1   2.077324 S    
N3    N9    1.329979 A    
C71   C95   1.421562 A    
C81   C87   1.395045 A    
C16   C22   1.400512 A    
C30   C36   1.400207 A    
C28   C34   1.400235 A    
C66   C72   1.402986 A    
C31   C55   1.472734 S    
C3    C13   1.478343 S    
C67   N31   1.439760 S    
C34   C58   1.472706 S    
C40   C46   1.411358 A    
N33   O44   1.301593 A    
N6    C54   1.355423 A    
C24   H6    1.082541 S    
O13   C8    1.256143 A    
N1    C49   1.355430 A    
C13   C19   1.400504 A    
C14   C20   1.400528 A    
C63   C87   1.398997 A    
C39   C45   1.411302 A    
N26   O30   1.300812 A    
C53   C89   1.467821 S    
N17   N23   1.329089 A    
C79   C85   1.395083 A    
O21   Cr3   1.958835 S    
N35   O47   1.301621 A    
C19   C25   1.384940 A    
N3    C51   1.355435 A    
C71   N35   1.439835 S    
C47   N29   1.433846 S    
C23   H5    1.082566 S    
C84   C90   1.395024 A    
O3    Cr3   2.077281 S    
C31   C37   1.418125 A    
N12   C60   1.358798 A    
C11   C91   1.484897 S    
O5    C6    1.248743 A    
C46   N28   1.433862 S    
C66   H18   1.082994 S    
C68   C92   1.421556 A    
N5    N11   1.329988 A    
C74   C92   1.420178 A    
C62   H14   1.082957 S    
C33   C39   1.418070 A    
O18   C10   1.256094 A    
C13   C43   1.416097 A    
C15   C45   1.416080 A    
N30   O38   1.300797 A    
Cr1   O25   1.967595 S    
C61   C85   1.398993 A    
N27   O31   1.301051 A    
O22   Cr4   1.958839 S    
C81   H21   1.083417 S    
C75   C81   1.390200 A    
C44   N26   1.433838 S    
C34   C40   1.418136 A    
C5    C18   1.478307 S    
C43   N25   1.433822 S    
O14   Cr2   2.089406 S    
C17   C23   1.400542 A    
N9    C57   1.358788 A    
N18   C60   1.354015 A    
O15   Cr3   2.089410 S    
N14   N20   1.329099 A    
C32   C56   1.472645 S    
C68   N32   1.439844 S    
O16   Cr4   2.089389 S    
C73   C79   1.390256 A    
C7    C95   1.484840 S    
O7    Cr1   1.972081 S    
C21   C27   1.384948 A    
C75   I9    2.130502 S    
C62   C68   1.403028 A    
C74   I8    2.130414 S    
O2    C3    1.248768 A    
C19   H1    1.082546 S    
C37   C43   1.411357 A    
C69   C93   1.421564 A    
N13   C55   1.354033 A    
C28   H10   1.083818 S    
O4    C5    1.248730 A    
C63   C69   1.402999 A    
N36   O50   1.301607 A    
C6    C16   1.478309 S    
C33   C57   1.472589 S    
N34   O46   1.301621 A    
O17   C12   1.256117 A    
C78   I12   2.130523 S    
C51   C87   1.467821 S    
C26   C32   1.400206 A    
Cr5   O26   1.967616 S    
C65   C89   1.399011 A    
N24   C54   1.357255 A    
C75   C93   1.420227 A    
C4    C17   1.478315 S    
O14   C9    1.256149 A    
C25   C31   1.400255 A    
C32   C38   1.418080 A    
C42   C48   1.411352 A    
C63   H15   1.082978 S    
C27   C33   1.400194 A    
N26   O29   1.301056 A    
C64   H16   1.082958 S    
N5    C53   1.355429 A    
O5    Cr5   2.077248 S    
O11   C5    1.250495 A    
C50   C86   1.467844 S    
O8    C2    1.250485 A    
C27   H9    1.083812 S    
O23   Cr5   1.958804 S    
N20   C50   1.357251 A    
N25   O27   1.301037 A    
C21   H3    1.082550 S    
C74   C80   1.390219 A    
C67   C91   1.421519 A    
C62   C86   1.399016 A    
C9    C96   1.484865 S    
C14   C44   1.416083 A    
Cr3   O25   1.967596 S    
C77   C83   1.390194 A    
C1    C14   1.478360 S    
C16   C46   1.416072 A    
C29   C35   1.400198 A    
O23   C11   1.252101 A    
C36   C42   1.418114 A    
O17   Cr5   2.089418 S    
O24   C12   1.252064 A    
N23   C53   1.357246 A    
O4    Cr4   2.077290 S    
C70   N34   1.439780 S    
O2    Cr2   2.077257 S    
C49   C85   1.467870 S    
C61   C67   1.402971 A    
Cr2   O25   1.967616 S    
C29   H11   1.083819 S    
O10   C4    1.250498 A    
N30   O37   1.301050 A    
N2    N8    1.329983 A    
C30   H12   1.083807 S    
C70   C94   1.421566 A    
N4    C52   1.355422 A    
N11   C59   1.358795 A    
C82   C88   1.395021 A    
C38   C44   1.411326 A    
N10   C58   1.358802 A    
N14   C56   1.354020 A    
C77   I11   2.130465 S    
C35   C41   1.418096 A    
O11   Cr5   1.972134 S    
C26   H8    1.083819 S    
C18   C24   1.400512 A    
C66   C90   1.398992 A    
O9    C3    1.250485 A    
N29   O35   1.301051 A    
N19   C49   1.357255 A    
N6    N12   1.329977 A    
C73   C91   1.420199 A    
N2    C50   1.355435 A    
O22   C10   1.252086 A    
N31   O39   1.301661 A    
C40   I4    2.142648 S    
Cr4   O26   1.967597 S    
C8    C94   1.484891 S    
N34   O45   1.301613 A    
C73   I7    2.130489 S    
N36   O49   1.301625 A    
O6    Cr6   2.077323 S    
O12   C6    1.250476 A    
N21   C51   1.357253 A    
N35   O48   1.301575 A    
N8    C56   1.358787 A    
O24   Cr6   1.958876 S    
N32   O42   1.301569 A    
O1    C2    1.248748 A    
C22   H4    1.082546 S    
C36   C60   1.472655 S    
C2    C15   1.478332 S    
N28   O33   1.301049 A    
C54   C90   1.467808 S    
C22   C28   1.384906 A    
N28   O34   1.300822 A    
N18   N24   1.329085 A    
C15   C21   1.400539 A    
C48   N30   1.433851 S    
O19   Cr1   1.958873 S    
C84   H24   1.083429 S    
N31   O40   1.301594 A    
