data_mof_unit_25645.cif
_audit_creation_date              2013-03-05T15:41:54-0500
_audit_creation_method            fapswitch 2.2
_symmetry_space_group_name_H-M    P1
_symmetry_Int_Tables_number       1
_space_group_crystal_system       triclinic
_cell_length_a                    23.474374
_cell_length_b                    8.66873
_cell_length_c                    7.430213
_cell_angle_alpha                 103.153245
_cell_angle_beta                  93.750084
_cell_angle_gamma                 92.356291
_cell_volume                      1466.73490328

loop_
_atom_site_label
_atom_site_type_symbol
_atom_site_description
_atom_site_fract_x
_atom_site_fract_y
_atom_site_fract_z
_atom_type_partial_charge
O1    O     O_R   0.504120 0.286130 0.619770 -0.572571
O2    O     O_R   0.495880 0.713870 0.380230 -0.572420
O3    O     O_R   0.493410 0.256770 0.308360 -0.589800
O4    O     O_R   0.506590 0.743230 0.691640 -0.589828
C1    C     C_R   0.498299 0.199576 0.453054 0.906853
C2    C     C_R   0.501700 0.800423 0.546946 0.907280
O5    O     O_R   0.423230 0.514630 0.655730 -0.571327
O6    O     O_R   0.576770 0.485370 0.344270 -0.571317
O7    O     O_R   0.412530 0.485280 0.344320 -0.582150
O8    O     O_R   0.587470 0.514720 0.655680 -0.581957
C3    C     C_R   0.391016 0.495759 0.502600 0.834239
C4    C     C_R   0.608981 0.504272 0.497403 0.834626
Cu1   Cu    Cu3+1 0.506340 0.517380 0.684380 0.993884
Cu2   Cu    Cu3+1 0.493660 0.482620 0.315620 0.993815
C5    C     C_R   0.883280 0.632448 0.578175 0.559269
C6    C     C_R   0.116717 0.367922 0.421790 0.559245
N1    N     N_R   0.851508 0.498494 0.487434 -0.473573
N2    N     N_R   0.148489 0.501870 0.512544 -0.473603
C7    C     C_R   0.876363 0.364389 0.400980 0.568035
C8    C     C_R   0.123635 0.635977 0.598995 0.568081
C9    C     C_R   0.936426 0.360896 0.403529 -0.104616
C10   C     C_R   0.063572 0.639476 0.596434 -0.104645
C11   C     C_R   0.969853 0.499197 0.496877 -0.077710
C12   C     C_R   0.030144 0.501177 0.503079 -0.077714
C13   C     C_R   0.943059 0.635573 0.584903 -0.070569
C14   C     C_R   0.056938 0.364801 0.415050 -0.070594
C15   C     C_R   0.963970 0.223982 0.317634 0.486322
C16   C     C_R   0.036028 0.776391 0.682323 0.486316
C17   C     C_R   0.023723 0.228668 0.321221 -0.275270
C18   C     C_R   0.976274 0.771706 0.678731 -0.275263
O9    O     O_2   0.856933 0.762022 0.662216 -0.516757
O10   O     O_2   0.143066 0.238343 0.337768 -0.516722
O11   O     O_2   0.842797 0.235709 0.313237 -0.465687
O12   O     O_2   0.157203 0.764656 0.686731 -0.465614
H1    H     H_    0.043940 0.124588 0.249297 0.212210
H2    H     H_    0.956058 0.875787 0.750653 0.212209
C19   C     C_R   0.237927 0.570186 0.390297 -0.072233
C20   C     C_R   0.762059 0.429509 0.609167 -0.072348
H3    H     H_    0.214133 0.626269 0.295357 0.154333
H4    H     H_    0.785847 0.372978 0.703674 0.154350
C21   C     C_R   0.296981 0.565392 0.387201 -0.178507
C22   C     C_R   0.703004 0.434230 0.612282 -0.178780
H5    H     H_    0.318227 0.620650 0.290823 0.179848
H6    H     H_    0.681749 0.378490 0.708245 0.179108
C23   C     C_R   0.328496 0.492104 0.508440 -0.121464
C24   C     C_R   0.671496 0.508038 0.491568 -0.121011
C25   C     C_R   0.299548 0.420236 0.633218 -0.044596
C26   C     C_R   0.700445 0.580560 0.367333 -0.045020
C27   C     C_R   0.240112 0.428598 0.636370 -0.139666
C28   C     C_R   0.759887 0.572310 0.364198 -0.139501
H7    H     H_    0.216995 0.373427 0.729070 0.171798
H8    H     H_    0.783013 0.627972 0.271940 0.172162
C29   C     C_R   0.209474 0.502054 0.514758 0.311215
C30   C     C_R   0.790520 0.498290 0.485251 0.311141
C31   C     C_2   0.497520 0.031544 0.426660 -0.321395
C32   C     C_2   0.502481 0.968455 0.573340 -0.321414
H9    H     H_    0.492885 0.959479 0.285511 0.178325
H10   H     H_    0.507117 0.040521 0.714489 0.178267
N3    N     N_2   0.484110 0.456420 0.038520 -0.219023
N4    N     N_2   0.515890 0.543580 0.961480 -0.219018
H11   H     H_    0.455448 0.377970 0.948729 0.252604
H12   H     H_    0.544556 0.622021 0.051270 0.252555
O13   O     O_3   0.932718 0.089318 0.217586 -0.525479
C33   C     C_3   0.936006 0.969500 0.317849 -0.204025
H13   H     H_    0.906454 0.867752 0.246098 0.207753
H14   H     H_    0.922334 0.011015 0.460822 0.164653
H15   H     H_    0.979738 0.925240 0.322268 0.122889
O14   O     O_3   0.067281 0.911053 0.782375 -0.525497
C34   C     C_3   0.063990 0.030877 0.682120 -0.204033
H16   H     H_    0.077661 0.989367 0.539143 0.164688
H17   H     H_    0.093543 0.132623 0.753873 0.207730
H18   H     H_    0.020259 0.075138 0.677709 0.122886
C35   C     C_2   0.328698 0.327948 0.753715 0.847552
O15   O     O_2   0.367376 0.243936 0.697349 -0.613674
O16   O     O_R   0.310155 0.332112 0.929766 -0.754714
H19   H     H_    0.333047 0.264053 0.998850 0.342852
C36   C     C_2   0.671294 0.673401 0.247439 0.847210
O17   O     O_2   0.632413 0.756606 0.303829 -0.613902
O18   O     O_R   0.690066 0.670724 0.071993 -0.754121
H20   H     H_    0.667156 0.739053 0.003315 0.342823

loop_
_geom_bond_atom_site_label_1
_geom_bond_atom_site_label_2
_geom_bond_distance
_ccdc_geom_bond_type
C31   C32   1.326795 D    
C15   C17   1.399916 A    
C21   H5    1.083617 S    
C35   O15   1.222880 D    
O16   H19   1.013976 S    
C25   C27   1.401514 A    
Cu1   N4    2.015831 S    
C36   O17   1.222892 D    
O5    C3    1.298368 A    
Cu2   N3    2.015831 S    
C28   C30   1.397797 A    
O1    C1    1.289394 A    
C7    C9    1.410501 A    
C12   C14   1.408572 A    
C20   C22   1.390096 A    
C5    C13   1.399819 A    
N4    H12   1.028342 S    
C22   C24   1.405077 A    
C23   C25   1.421248 A    
O4    Cu1   1.946022 S    
C34   H17   1.109390 S    
N2    C29   1.430551 S    
O14   C34   1.411032 S    
C27   H7    1.084027 S    
C28   H8    1.084031 S    
C11   C12   1.412303 A    
C8    O12   1.348986 S    
C26   C28   1.401567 A    
C9    C15   1.416468 A    
N3    N4    1.288968 D    
C10   C16   1.416469 A    
Cu1   Cu2   2.682721 S    
C35   O16   1.398638 S    
O2    C2    1.289394 A    
C22   H6    1.083682 S    
C36   O18   1.398681 S    
C6    C14   1.399803 A    
C24   C26   1.421334 A    
N3    H11   1.028331 S    
C33   H15   1.111678 S    
C25   C35   1.483487 S    
C4    C24   1.470203 S    
C7    O11   1.348987 S    
O18   H20   1.014068 S    
C33   H14   1.114077 S    
C26   C36   1.483706 S    
C34   H18   1.111678 S    
O7    Cu2   1.930684 S    
C20   C30   1.395403 A    
O6    C4    1.298323 A    
O7    C3    1.295862 A    
O3    Cu2   1.946022 S    
O8    C4    1.295840 A    
O4    C2    1.282950 A    
C8    C10   1.410503 A    
C31   H9    1.087807 S    
C10   C12   1.416750 A    
C3    C23   1.470338 S    
O1    Cu1   1.949854 S    
C13   C18   1.401934 A    
C5    N1    1.365999 A    
O6    Cu2   1.947214 S    
C16   O14   1.384510 S    
C1    C31   1.424037 S    
C2    C32   1.424037 S    
O3    C1    1.282951 A    
O8    Cu1   1.930684 S    
C5    O9    1.350019 S    
C6    O10   1.350030 S    
C17   H1    1.083429 S    
C18   H2    1.083420 S    
C33   H13   1.109390 S    
C9    C11   1.416734 A    
C19   C29   1.395372 A    
C19   H3    1.082972 S    
C20   H4    1.083005 S    
C27   C29   1.397762 A    
C16   C18   1.399928 A    
N1    C7    1.367278 A    
C32   H10   1.087807 S    
N2    C8    1.367264 A    
C11   C13   1.408556 A    
C19   C21   1.390118 A    
C34   H16   1.114077 S    
O2    Cu2   1.949854 S    
O13   C33   1.411032 S    
O5    Cu1   1.947214 S    
C14   C17   1.401933 A    
C6    N2    1.365987 A    
C21   C23   1.405119 A    
C15   O13   1.384507 S    
N1    C30   1.430603 S    
