data_mof_unit_60476.cif
_audit_creation_date              2012-10-26T18:19:08-0400
_audit_creation_method            fapswitch 2.2
_symmetry_space_group_name_H-M    P1
_symmetry_Int_Tables_number       1
_space_group_crystal_system       triclinic
_cell_length_a                    18.731436
_cell_length_b                    18.746543
_cell_length_c                    18.783378
_cell_angle_alpha                 109.251932
_cell_angle_beta                  109.524752
_cell_angle_gamma                 109.211362
_cell_volume                      5103.89339902

loop_
_atom_site_label
_atom_site_type_symbol
_atom_type_description
_atom_site_fract_x
_atom_site_fract_y
_atom_site_fract_z
_atom_type_partial_charge
C1    C     C_R   0.382359 0.381388 0.501268 0.605082
C2    C     C_R   0.172243 0.191212 0.426126 -0.000327
C3    C     C_3   0.149065 0.121088 0.340929 0.048090
C4    C     C_R   0.616857 0.497491 0.619359 0.587116
C5    C     C_3   0.222570 0.188634 0.341417 0.153503
C6    C     C_R   0.241363 0.425438 0.244583 0.019493
C7    C     C_R   0.315006 0.501434 0.314655 0.019343
C8    C     C_R   0.323028 0.580629 0.319417 -0.155525
C9    C     C_R   0.258254 0.580612 0.253800 -0.157293
C10   C     C_R   0.183540 0.501539 0.184513 0.017273
C11   C     C_R   0.177829 0.425565 0.183545 0.020559
C12   C     C_3   0.809150 0.500829 0.809586 0.044850
C13   C     C_3   0.122848 0.329184 0.134304 -0.274692
C14   C     C_3   0.194872 0.329163 0.204725 -0.278481
C15   C     C_R   0.680327 0.682480 0.424629 0.006612
C16   C     C_R   0.619522 0.618799 0.500728 0.548077
C17   C     C_R   0.686056 0.686700 0.501853 -0.020709
C18   C     C_R   0.751150 0.762914 0.580805 -0.119027
C19   C     C_R   0.816816 0.829023 0.583137 0.112298
C20   C     C_R   0.814133 0.819166 0.503955 0.020706
C21   C     C_R   0.742692 0.748080 0.425702 0.000278
C22   C     C_3   0.740684 0.685705 0.349961 -0.280993
C23   C     C_3   0.849114 0.568426 0.783080 0.156721
C24   C     C_3   0.672294 0.613395 0.349167 -0.262157
C25   C     C_R   0.998725 0.381372 0.879792 0.539971
C26   C     C_R   0.877941 0.500600 0.878154 0.562110
C27   C     C_R   0.996795 0.618650 0.115714 0.554123
C28   C     C_R   0.380589 0.499938 0.380803 0.549695
C29   C     C_R   0.116568 0.500097 0.116737 0.548341
C30   C     C_R   0.999032 0.118164 0.617833 0.544977
C31   C     C_R   0.118665 0.119101 0.500201 0.556069
C32   C     C_R   0.000997 0.881524 0.381862 0.558685
C33   C     C_R   0.881341 0.882256 0.501017 0.540221
C34   C     C_3   0.749348 0.522732 0.842495 -0.227400
C35   C     C_R   0.932621 0.230628 0.763627 -0.000193
C36   C     C_R   0.001016 0.315516 0.814747 -0.013359
C37   C     C_R   0.072627 0.335050 0.800043 -0.159771
C38   C     C_R   0.072661 0.269848 0.735492 -0.153249
C39   C     C_R   0.000103 0.185421 0.683504 0.024747
C40   C     C_3   0.678076 0.405884 0.656299 0.147871
C41   C     C_R   0.930933 0.169055 0.699225 -0.054213
C42   C     C_3   0.843201 0.099866 0.671122 -0.247058
C43   C     C_3   0.844612 0.169663 0.744830 0.167035
C44   C     C_R   0.920922 0.678649 0.179968 -0.021402
C45   C     C_R   0.238169 0.252308 0.425976 -0.048560
C46   C     C_R   0.998644 0.683889 0.185230 0.024654
C47   C     C_R   0.077665 0.749028 0.261436 -0.152787
C48   C     C_R   0.078334 0.812607 0.327480 -0.156401
C49   C     C_R   0.000371 0.813072 0.316115 0.042042
C50   C     C_R   0.921873 0.743386 0.243267 0.030812
C51   C     C_3   0.847373 0.741340 0.178141 0.151825
C52   C     C_3   0.752364 0.408931 0.728024 -0.241095
C53   C     C_3   0.846203 0.669553 0.108469 -0.246589
C54   C     C_3   0.775302 0.563958 0.709593 -0.248250
C55   C     C_3   0.678643 0.524145 0.772256 -0.217405
C56   C     C_R   0.315948 0.315997 0.502818 0.042502
C57   C     C_3   0.685351 0.497341 0.687933 0.049449
C58   C     C_3   0.966333 0.707667 0.849739 -0.005080
C59   C     C_3   0.009277 0.800559 0.922029 -0.373024
C60   C     C_3   0.386634 0.440585 0.714687 0.004705
C61   C     C_3   0.473476 0.518404 0.789925 -0.371878
C62   C     C_3   0.026649 0.144913 0.267165 -0.300745
C63   C     C_3   0.282515 0.122639 0.272332 -0.009887
C64   C     C_3   0.354124 0.098612 0.286024 -0.371899
C65   C     C_3   0.560747 0.264538 0.563005 -0.009498
C66   C     C_3   0.473270 0.201175 0.545834 -0.328344
C67   C     C_R   0.324738 0.321670 0.582366 0.225033
C68   C     C_3   0.942384 0.890744 0.723671 -0.301810
C69   C     C_3   0.917034 0.154117 0.866010 0.019766
C70   C     C_3   0.899119 0.117074 0.922882 -0.376649
C71   C     C_3   0.801184 0.818452 0.119101 -0.002021
C72   C     C_3   0.831101 0.901895 0.114573 -0.361320
C73   C     C_R   0.259712 0.255878 0.581332 -0.156637
C74   C     C_R   0.184462 0.188740 0.502428 -0.045718
Cu1   Cu    Cu3+1 0.500370 0.438220 0.438550 0.914781
Cu2   Cu    Cu3+1 0.499630 0.561780 0.561450 0.913693
Cu3   Cu    Cu3+1 0.935500 0.438280 0.997350 0.935208
Cu4   Cu    Cu3+1 0.059110 0.561800 0.997270 0.909852
Cu5   Cu    Cu3+1 0.062130 0.000020 0.562160 0.903796
Cu6   Cu    Cu3+1 0.937870 0.000080 0.437940 0.940449
H1    H     H_    0.687575 0.390039 0.598422 0.095757
H2    H     H_    0.117064 0.300220 0.069228 0.123113
H3    H     H_    0.174186 0.308301 0.246707 0.115874
H4    H     H_    0.230094 0.299345 0.180242 0.136361
H5    H     H_    0.752524 0.769818 0.640920 0.134956
H6    H     H_    0.714843 0.693151 0.291882 0.131523
H7    H     H_    0.803092 0.684689 0.367225 0.129842
H8    H     H_    0.607102 0.578968 0.290467 0.138014
H9    H     H_    0.724456 0.359423 0.745533 0.169631
H10   H     H_    0.695109 0.570545 0.366358 0.144810
H11   H     H_    0.128512 0.399865 0.838527 0.133563
H12   H     H_    0.788259 0.586865 0.903002 0.142327
H13   H     H_    0.128360 0.285456 0.725568 0.107714
H14   H     H_    0.793883 0.080162 0.605110 0.109103
H15   H     H_    0.844823 0.045197 0.681089 0.152498
H16   H     H_    0.795501 0.188969 0.720244 0.124107
H17   H     H_    0.138525 0.751489 0.269110 0.117817
H18   H     H_    0.139918 0.863672 0.385062 0.126172
H19   H     H_    0.789341 0.720618 0.186938 0.079898
H20   H     H_    0.793654 0.391612 0.702686 0.049930
H21   H     H_    0.786737 0.605499 0.075608 0.087052
H22   H     H_    0.864389 0.688062 0.063999 0.154174
H23   H     H_    0.780080 0.629010 0.729119 0.146492
H24   H     H_    0.782692 0.545447 0.650814 0.060020
H25   H     H_    0.890070 0.549656 0.757657 0.092364
H26   H     H_    0.687069 0.590756 0.797931 0.122746
H27   H     H_    0.613149 0.479376 0.758111 0.181979
H28   H     H_    0.717585 0.473510 0.858568 0.128747
H29   H     H_    0.941024 0.706550 0.786384 0.106001
H30   H     H_    0.016445 0.686980 0.857121 0.137874
H31   H     H_    0.036333 0.804146 0.986305 0.166764
H32   H     H_    0.062961 0.843872 0.917885 0.081270
H33   H     H_    0.960725 0.823115 0.915693 0.148210
H34   H     H_    0.269055 0.255838 0.641420 0.130679
H35   H     H_    0.351521 0.407533 0.741738 0.116162
H36   H     H_    0.348279 0.465142 0.680489 0.130879
H37   H     H_    0.509951 0.553192 0.764975 0.165508
H38   H     H_    0.462257 0.563736 0.834488 0.082931
H39   H     H_    0.512937 0.496560 0.826612 0.145595
H40   H     H_    0.052550 0.047448 0.210058 0.240508
H41   H     H_    0.961004 0.108274 0.208796 0.124598
H42   H     H_    0.068418 0.199897 0.263567 0.116600
H43   H     H_    0.019369 0.169973 0.325223 0.174368
H44   H     H_    0.287960 0.161068 0.238198 0.124801
H45   H     H_    0.160262 0.067929 0.346501 0.151271
H46   H     H_    0.218418 0.061506 0.230963 0.116877
H47   H     H_    0.349035 0.058446 0.318221 0.147869
H48   H     H_    0.347639 0.060858 0.222386 0.088655
H49   H     H_    0.418988 0.158373 0.327387 0.150088
H50   H     H_    0.604986 0.236694 0.573099 0.108977
H51   H     H_    0.549710 0.272771 0.504865 0.144339
H52   H     H_    0.427438 0.226845 0.533745 0.206999
H53   H     H_    0.445307 0.137597 0.487879 0.092073
H54   H     H_    0.481638 0.191538 0.602731 0.155315
H55   H     H_    0.914191 0.959495 0.661743 0.259669
H56   H     H_    0.202866 0.207068 0.290374 0.094032
H57   H     H_    0.989365 0.952719 0.785833 0.130628
H58   H     H_    0.979177 0.867918 0.695141 0.155723
H59   H     H_    0.906571 0.842273 0.738143 0.137305
H60   H     H_    0.969407 0.223101 0.909494 0.150033
H61   H     H_    0.940087 0.116743 0.829142 0.127941
H62   H     H_    0.847601 0.047663 0.881741 0.161574
H63   H     H_    0.959414 0.122077 0.967576 0.081790
H64   H     H_    0.877445 0.153978 0.962058 0.157225
H65   H     H_    0.755313 0.815377 0.144915 0.117578
H66   H     H_    0.766694 0.762420 0.052163 0.116022
H67   H     H_    0.379449 0.641870 0.372693 0.127240
H68   H     H_    0.877376 0.907286 0.089366 0.155415
H69   H     H_    0.774118 0.901961 0.070646 0.080339
H70   H     H_    0.863860 0.958699 0.180369 0.174688
H71   H     H_    0.265885 0.641910 0.257877 0.123875
H72   H     H_    0.060386 0.307115 0.135004 0.140055
N1    N     N_2   0.062733 0.087531 0.269690 -0.516950
N2    N     N_2   0.883042 0.904715 0.664611 -0.519374
O1    O     O_R   0.410140 0.357660 0.448100 -0.477439
O2    O     O_R   0.947040 0.090210 0.537310 -0.512589
O3    O     O_R   0.142640 0.090190 0.552500 -0.514903
O4    O     O_R   0.409510 0.462000 0.551890 -0.502077
O5    O     O_R   0.037710 0.090250 0.447610 -0.492272
O6    O     O_R   0.052960 0.909890 0.462790 -0.523816
O7    O     O_R   0.948020 0.909940 0.357900 -0.461934
O8    O     O_R   0.962290 0.909850 0.552490 -0.514295
O9    O     O_R   0.857360 0.909910 0.447600 -0.514927
O10   O     O_R   0.590970 0.447830 0.538770 -0.519649
O11   O     O_R   0.590340 0.552170 0.642560 -0.525820
O12   O     O_R   0.049970 0.462000 0.907620 -0.522688
O13   O     O_R   0.590490 0.538000 0.448110 -0.514986
O14   O     O_R   0.589860 0.642340 0.551900 -0.515523
O15   O     O_R   0.409660 0.447830 0.357440 -0.514610
O16   O     O_R   0.409030 0.552170 0.461230 -0.514554
O17   O     O_R   0.945590 0.357690 0.907690 -0.494033
O18   O     O_3   0.898704 0.653363 0.856351 -0.545275
O19   O     O_3   0.402257 0.383879 0.658766 -0.539898
O20   O     O_3   0.292946 0.172202 0.353829 -0.555861
O21   O     O_3   0.595806 0.344612 0.637410 -0.546218
O22   O     O_3   0.839846 0.148282 0.810054 -0.537142
O23   O     O_R   0.854460 0.447890 0.906680 -0.526843
O24   O     O_3   0.874497 0.819075 0.174189 -0.518821
O25   O     O_R   0.958840 0.552200 0.906620 -0.485555
O26   O     O_R   0.944630 0.538080 0.087010 -0.508213
O27   O     O_R   0.049020 0.642390 0.086940 -0.509026
O28   O     O_R   0.035760 0.447880 0.088010 -0.510569
O29   O     O_R   0.140150 0.552190 0.087940 -0.518227
O30   O     O_R   0.051980 0.090160 0.642200 -0.519799

loop_
_geom_bond_atom_site_label_1
_geom_bond_atom_site_label_2
_ccdc_geom_bond_type
C5    H56   S    
C41   C42   S    
C61   H39   S    
C58   H29   S    
C73   C74   A    
C68   H58   S    
C35   C36   A    
C14   H4    S    
C65   H50   S    
C68   H57   S    
C7    C8    A    
C39   C41   A    
Cu3   Cu4   S    
C4    O11   A    
C12   C23   S    
Cu2   O4    S    
C70   H63   S    
C60   H35   S    
H55   N2    S    
C23   C54   S    
C71   O24   S    
C54   H24   S    
C36   C37   A    
C33   O9    A    
C1    C56   S    
C67   O19   S    
Cu4   O29   S    
C68   N2    S    
Cu5   O6    S    
C38   C39   A    
C16   O13   A    
C69   H61   S    
C23   H25   S    
C3    N1    S    
Cu5   O30   S    
C17   C18   A    
C18   C19   A    
C5    O20   S    
C1    O1    A    
C65   H51   S    
C66   H54   S    
C44   C53   S    
C9    H71   S    
C23   O18   S    
C19   C20   A    
C45   C56   A    
C53   H21   S    
C8    C9    A    
C64   H48   S    
C4    C57   S    
Cu1   O15   S    
C59   H31   S    
C4    O10   A    
C67   C73   A    
C69   O22   S    
C51   O24   S    
C35   C43   S    
C9    C10   A    
C2    C74   A    
C63   H44   S    
C25   O17   A    
C69   H60   S    
C30   O2    A    
C34   C55   S    
C42   H14   S    
C13   C14   S    
C65   O21   S    
C60   O19   S    
C52   H9    S    
C14   H3    S    
C62   H43   S    
C12   C52   S    
C44   C46   A    
Cu6   O2    S    
C66   H52   S    
C2    C45   A    
C51   H19   S    
C32   C49   S    
Cu4   O12   S    
C18   H5    S    
C70   H62   S    
C29   O28   A    
C37   H11   S    
C55   H26   S    
C61   H37   S    
Cu4   O25   S    
Cu3   O26   S    
C54   H23   S    
C27   O26   A    
C6    C11   A    
C16   C17   S    
C31   C74   S    
C50   C51   S    
C58   C59   S    
C72   H68   S    
C5    C45   S    
C13   H2    S    
C52   H20   S    
Cu3   O23   S    
C7    C28   S    
C42   H15   S    
C12   C26   S    
Cu1   O10   S    
C51   C53   S    
C58   O18   S    
Cu1   Cu2   S    
C27   O27   A    
Cu6   O9    S    
C26   O25   A    
C37   C38   A    
C6    C14   S    
C66   H53   S    
C43   H16   S    
C43   O22   S    
C47   C48   A    
C53   H22   S    
C59   H33   S    
C64   H47   S    
C32   O7    A    
C59   H32   S    
Cu2   O11   S    
C22   H7    S    
C64   H49   S    
Cu2   O16   S    
C24   H8    S    
C31   O3    A    
C20   C33   S    
C27   C46   S    
C28   O16   A    
C15   C24   S    
C71   H65   S    
C65   C66   S    
C72   H70   S    
C55   C57   S    
C49   C50   A    
C22   C24   S    
Cu5   Cu6   S    
C60   H36   S    
C8    H67   S    
C42   C43   S    
Cu5   O8    S    
C12   C34   S    
C3    C5    S    
C62   H42   S    
C63   O20   S    
C26   O23   A    
C44   C50   A    
C15   C17   A    
C46   C47   A    
Cu3   O17   S    
C40   C57   S    
C29   O29   A    
Cu3   O28   S    
C61   H38   S    
C58   H30   S    
C30   O30   A    
C40   H1    S    
C13   H72   S    
Cu6   O5    S    
C24   H10   S    
Cu5   O3    S    
C40   O21   S    
Cu1   O13   S    
C3    H45   S    
C6    C7    A    
C25   O12   A    
C56   C67   A    
C48   H18   S    
C70   H64   S    
C47   H17   S    
C62   N1    S    
Cu4   O27   S    
C34   H28   S    
C33   O8    A    
C71   C72   S    
C40   C52   S    
C11   C13   S    
C10   C29   S    
C1    O4    A    
C16   O14   A    
C48   C49   A    
C38   H13   S    
H40   N1    S    
C30   C39   S    
Cu2   O14   S    
C22   H6    S    
C69   C70   S    
C35   C41   A    
C34   H12   S    
Cu6   O7    S    
C63   H46   S    
C10   C11   A    
C73   H34   S    
C25   C36   S    
C63   C64   S    
Cu1   O1    S    
C28   O15   A    
C15   C21   A    
C71   H66   S    
C20   C21   A    
C72   H69   S    
C55   H27   S    
C19   N2    S    
C60   C61   S    
C68   H59   S    
C2    C3    S    
C21   C22   S    
C62   H41   S    
C31   O5    A    
C32   O6    A    
C54   C57   S    
