data_mof_unit_37196.cif
_audit_creation_date              2012-10-26T19:34:03-0400
_audit_creation_method            fapswitch 2.2
_symmetry_space_group_name_H-M    P1
_symmetry_Int_Tables_number       1
_space_group_crystal_system       triclinic
_cell_length_a                    8.730099
_cell_length_b                    19.399441
_cell_length_c                    18.117791
_cell_angle_alpha                 89.350263
_cell_angle_beta                  97.826719
_cell_angle_gamma                 90.015417
_cell_volume                      3039.62976581

loop_
_atom_site_label
_atom_site_type_symbol
_atom_type_description
_atom_site_fract_x
_atom_site_fract_y
_atom_site_fract_z
_atom_type_partial_charge
C1    C     C_R   0.503520 0.367522 0.500742 0.596756
C2    C     C_R   0.592968 0.543757 0.283394 0.083259
C3    C     C_R   0.372032 0.479027 0.791401 -0.136802
C4    C     C_R   0.592302 0.543858 0.205805 -0.156615
C5    C     C_R   0.503242 0.500292 0.839189 0.008246
C6    C     C_R   0.497276 0.497840 0.161153 0.035611
C7    C     C_R   0.634657 0.521671 0.806974 0.220664
C8    C     C_R   0.403525 0.452011 0.196565 0.278615
C9    C     C_R   0.628429 0.521737 0.728822 0.080562
C10   C     C_R   0.406819 0.454682 0.274492 0.086367
C11   C     C_R   0.410223 0.547655 0.955180 0.287303
C12   C     C_R   0.495298 0.632537 0.499268 0.580074
C13   C     C_R   0.592214 0.450588 0.045870 0.313443
C14   C     C_R   0.409852 0.546100 0.032899 -0.085338
C15   C     C_R   0.588188 0.451130 0.967099 -0.085724
C16   C     C_R   0.203512 0.499991 0.481034 0.570805
C17   C     C_R   0.796475 0.500351 0.518958 0.574826
C18   C     C_R   0.499793 0.498023 0.078588 0.046029
C19   C     C_R   0.500133 0.499775 0.921665 0.037038
C20   C     C_2   0.037921 0.500200 0.470454 -0.109433
C21   C     C_2   0.962058 0.500440 0.529538 -0.125127
C22   C     C_R   0.413575 0.747620 0.438934 0.188419
C23   C     C_R   0.412443 0.963112 0.551865 -0.106519
C24   C     C_R   0.587084 0.252314 0.559189 0.249383
C25   C     C_R   0.421369 0.819407 0.441810 -0.130792
C26   C     C_R   0.575262 0.180562 0.557223 -0.110047
C27   C     C_R   0.498097 0.852800 0.504165 -0.026143
C28   C     C_R   0.482392 0.147701 0.499092 -0.001491
C29   C     C_R   0.571551 0.813977 0.565203 0.236133
C30   C     C_R   0.397274 0.186871 0.441648 0.279749
C31   C     C_R   0.567793 0.742160 0.561597 -0.155601
C32   C     C_R   0.409152 0.258630 0.443203 -0.138891
C33   C     C_R   0.491619 0.708323 0.498924 -0.041463
C34   C     C_R   0.564782 0.037336 0.450739 -0.074481
C35   C     C_R   0.501815 0.291890 0.501530 -0.042037
C36   C     C_3   0.395133 0.653946 0.900589 0.005052
C37   C     C_3   0.293799 0.700664 0.845629 -0.267436
C38   C     C_3   0.379478 0.766087 0.827835 -0.435221
C39   C     C_3   0.816556 0.382616 0.070363 0.031611
C40   C     C_3   0.805673 0.310293 0.036834 -0.272834
C41   C     C_3   0.950383 0.292309 0.002372 -0.425524
C42   C     C_3   0.305758 0.043794 0.665667 0.007758
C43   C     C_3   0.146736 0.010582 0.667077 -0.250935
C44   C     C_3   0.138578 0.972354 0.740476 -0.436491
C45   C     C_R   0.405330 0.035725 0.551491 0.289582
C46   C     C_3   0.788913 0.905668 0.428599 0.001571
C47   C     C_3   0.917773 0.955340 0.413970 -0.239107
C48   C     C_3   0.076324 0.922548 0.436036 -0.443903
C49   C     C_R   0.574217 0.965706 0.452473 0.274820
C50   C     C_R   0.481280 0.072131 0.499551 0.038583
C51   C     C_R   0.497741 0.928422 0.503708 0.020581
C52   C     C_R   0.373339 0.478375 0.714019 0.048755
Cu1   Cu    Cu3+1 0.499960 0.500000 0.573360 1.018171
Cu2   Cu    Cu3+1 0.500040 0.500000 0.426640 1.050579
H1    H     H_    0.978193 0.500155 0.413720 0.146935
H2    H     H_    0.343304 0.289112 0.399470 0.190069
H3    H     H_    0.348917 0.932714 0.587758 0.136949
H4    H     H_    0.622917 0.066070 0.411090 0.167934
H5    H     H_    0.272159 0.460315 0.678538 0.140478
H6    H     H_    0.667453 0.579106 0.317261 0.151049
H7    H     H_    0.269499 0.462090 0.814006 0.165158
H8    H     H_    0.666456 0.579387 0.180744 0.133381
H9    H     H_    0.013305 0.603408 0.841041 0.398101
H10   H     H_    0.147457 0.305861 0.180667 0.369244
H11   H     H_    0.503228 0.642756 0.876635 0.179742
H12   H     H_    0.021719 0.500523 0.586274 0.121519
H13   H     H_    0.424489 0.681465 0.954306 0.153253
H14   H     H_    0.258452 0.672306 0.793064 0.189607
H15   H     H_    0.187861 0.715034 0.869685 0.196789
H16   H     H_    0.414542 0.795833 0.879401 0.167171
H17   H     H_    0.302468 0.798824 0.788038 0.180017
H18   H     H_    0.483882 0.752899 0.801990 0.178578
H19   H     H_    0.902630 0.380835 0.121308 0.224732
H20   H     H_    0.862379 0.421051 0.032734 0.189481
H21   H     H_    0.790446 0.271885 0.081244 0.195314
H22   H     H_    0.703480 0.306639 0.993320 0.187862
H23   H     H_    0.727698 0.539063 0.704209 0.175147
H24   H     H_    0.966903 0.329769 0.957298 0.203591
H25   H     H_    0.937972 0.239943 0.978195 0.164555
H26   H     H_    0.053791 0.292770 0.045363 0.206793
H27   H     H_    0.478217 0.716017 0.291808 0.336624
H28   H     H_    0.884597 0.371636 0.640417 0.363345
H29   H     H_    0.741829 0.770671 0.725841 0.353247
H30   H     H_    0.097115 0.182571 0.279905 0.374312
H31   H     H_    0.317800 0.086330 0.706585 0.174987
H32   H     H_    0.401943 0.007405 0.685241 0.165282
H33   H     H_    0.056290 0.051345 0.659561 0.205699
H34   H     H_    0.335254 0.420151 0.302191 0.175351
H35   H     H_    0.121086 0.973847 0.620525 0.178500
H36   H     H_    0.225269 0.930060 0.747973 0.168836
H37   H     H_    0.021679 0.949673 0.740105 0.220535
H38   H     H_    0.160838 0.008371 0.787951 0.158599
H39   H     H_    0.804571 0.856313 0.399989 0.174630
H40   H     H_    0.799492 0.893069 0.489230 0.171871
H41   H     H_    0.904248 0.969395 0.353782 0.214678
H42   H     H_    0.909832 0.003118 0.446524 0.190777
H43   H     H_    0.094006 0.909547 0.496434 0.145490
H44   H     H_    0.167812 0.959001 0.423894 0.203700
H45   H     H_    0.337801 0.582276 0.057656 0.157673
H46   H     H_    0.086500 0.874859 0.403761 0.185020
H47   H     H_    0.652333 0.413505 0.940159 0.137223
H48   H     H_    0.364864 0.850048 0.395640 0.182239
H49   H     H_    0.640425 0.149517 0.600700 0.172732
H50   H     H_    0.625823 0.712159 0.607911 0.160903
N1    N     N_R   0.499980 0.500020 0.683620 -0.253028
N2    N     N_R   0.500020 0.499980 0.316380 -0.253169
O1    O     O_R   0.499930 0.400180 0.561970 -0.426803
O2    O     O_2   0.900441 0.484458 0.887902 -0.285139
O3    O     O_3   0.912890 0.596599 0.809376 -0.549795
O4    O     O_2   0.183052 0.426931 0.082471 -0.303652
O5    O     O_2   0.380375 0.337963 0.114855 -0.249866
O6    O     O_3   0.168866 0.352287 0.201779 -0.550795
O7    O     O_3   0.313134 0.592827 0.911709 -0.565662
O8    O     O_3   0.673063 0.401334 0.092466 -0.536118
O9    O     O_2   0.199987 0.653561 0.388318 -0.245257
O10   O     O_2   0.191806 0.763345 0.320514 -0.286238
O11   O     O_3   0.410726 0.677363 0.303165 -0.491950
O12   O     O_R   0.500070 0.599820 0.438030 -0.434788
O13   O     O_2   0.624025 0.322335 0.686824 -0.261484
O14   O     O_2   0.820673 0.235564 0.671745 -0.278652
O15   O     O_3   0.824013 0.349987 0.596527 -0.517170
O16   O     O_2   0.753082 0.916764 0.626907 -0.296743
O17   O     O_2   0.553843 0.871976 0.696964 -0.332961
O18   O     O_3   0.799535 0.797500 0.691829 -0.507638
O19   O     O_2   0.364486 0.111105 0.318126 -0.269840
O20   O     O_2   0.168512 0.097286 0.402011 -0.286833
O21   O     O_3   0.160512 0.208288 0.319988 -0.508351
O22   O     O_3   0.314474 0.073276 0.594513 -0.544059
O23   O     O_R   0.500010 0.400190 0.438070 -0.523894
O24   O     O_3   0.643261 0.932802 0.398141 -0.558920
O25   O     O_R   0.499990 0.599810 0.561930 -0.521857
O26   O     O_R   0.274810 0.500000 0.547650 -0.526737
O27   O     O_R   0.725190 0.500000 0.452350 -0.511310
O28   O     O_R   0.274880 0.500000 0.423750 -0.471879
O29   O     O_R   0.725120 0.500000 0.576250 -0.502381
O30   O     O_2   0.775714 0.588206 0.927667 -0.301822
S1    S     S_3+6 0.808695 0.547680 0.861387 -0.024240
S2    S     S_3+6 0.282203 0.391195 0.145774 -0.012921
S3    S     S_3+6 0.297087 0.710260 0.361789 0.031771
S4    S     S_3+6 0.715769 0.289643 0.632042 0.037110
S5    S     S_3+6 0.669743 0.852724 0.646479 -0.030031
S6    S     S_3+6 0.270998 0.148110 0.369176 0.025010

loop_
_geom_bond_atom_site_label_1
_geom_bond_atom_site_label_2
_ccdc_geom_bond_type
Cu1   O26   S    
C38   H16   S    
C23   C45   A    
C12   O25   A    
C4    H8    S    
C21   H12   S    
C27   C29   A    
C14   C18   A    
Cu1   O29   S    
C16   O28   A    
C41   H26   S    
C36   H13   S    
C14   H45   S    
Cu1   Cu2   S    
C24   S4    S    
C15   C19   A    
C48   H43   S    
C10   H34   S    
C43   H35   S    
C13   C18   A    
O13   S4    D    
O15   S4    S    
O3    S1    S    
C36   C37   S    
C24   C26   A    
C1    O23   A    
O2    S1    D    
C11   C14   A    
C2    H6    S    
C25   H48   S    
H10   O6    S    
C45   O22   S    
C9    N1    A    
Cu2   O28   S    
C37   H14   S    
H27   O11   S    
C8    S2    S    
C39   H20   S    
Cu2   O23   S    
C38   H17   S    
C28   C50   S    
C49   C51   A    
C22   C25   A    
C17   O29   A    
C47   H42   S    
C31   C33   A    
C42   H32   S    
H29   O18   S    
H28   O15   S    
C13   O8    S    
C44   H38   S    
C42   O22   S    
O10   S3    D    
H30   O21   S    
C29   S5    S    
O11   S3    S    
C20   H1    S    
C48   H46   S    
C36   O7    S    
C27   C51   S    
C7    C9    A    
C3    H7    S    
C6    C18   S    
C38   H18   S    
C34   C50   A    
C24   C35   A    
Cu2   N2    S    
C32   C35   A    
O6    S2    S    
O4    S2    D    
C4    C6    A    
C41   H24   S    
C5    C7    A    
C36   H11   S    
C6    C8    A    
Cu2   O27   S    
C22   S3    S    
C2    N2    A    
C17   C21   S    
C40   H22   S    
O21   S6    S    
H9    O3    S    
C16   O26   A    
C2    C4    A    
C43   C44   S    
C46   O24   S    
C37   C38   S    
C52   H5    S    
C26   H49   S    
C37   H15   S    
Cu1   O1    S    
C23   C51   A    
C47   C48   S    
C46   H40   S    
O19   S6    D    
C16   C20   S    
C39   O8    S    
C11   C19   A    
O17   S5    D    
C42   H31   S    
C9    H23   S    
C15   H47   S    
C44   H37   S    
C1    O1    A    
O14   S4    D    
C40   C41   S    
O9    S3    D    
C52   N1    A    
C13   C15   A    
C17   O27   A    
C12   O12   A    
O18   S5    S    
C10   N2    A    
C42   C43   S    
C39   C40   S    
C44   H36   S    
C1    C35   S    
C7    S1    S    
C23   H3    S    
C22   C33   A    
C46   C47   S    
C34   C49   A    
Cu1   O25   S    
O30   S1    D    
C3    C5    A    
C41   H25   S    
C3    C52   A    
C5    C19   S    
C25   C27   A    
C48   H44   S    
C49   O24   S    
C26   C28   A    
C30   S6    S    
C40   H21   S    
C43   H33   S    
C31   H50   S    
Cu2   O12   S    
C29   C31   A    
C30   C32   A    
C46   H39   S    
C45   C50   A    
C28   C30   A    
O20   S6    D    
C39   H19   S    
C11   O7    S    
Cu1   N1    S    
C20   C21   D    
C8    C10   A    
C34   H4    S    
C47   H41   S    
O16   S5    D    
C12   C33   S    
C32   H2    S    
O5    S2    D    
