data_mof_unit_20105.cif
_audit_creation_date              2012-12-10T16:51:17-0500
_audit_creation_method            fapswitch 2.2
_symmetry_space_group_name_H-M    P1
_symmetry_Int_Tables_number       1
_space_group_crystal_system       triclinic
_cell_length_a                    27.708386
_cell_length_b                    8.725235
_cell_length_c                    7.494283
_cell_angle_alpha                 103.031397
_cell_angle_beta                  93.94229
_cell_angle_gamma                 94.287101
_cell_volume                      1753.38731317

loop_
_atom_site_label
_atom_site_type_symbol
_atom_type_description
_atom_site_fract_x
_atom_site_fract_y
_atom_site_fract_z
_atom_type_partial_charge
C1    C     C_R   0.497940 0.200071 0.453721 0.784059
C2    C     C_R   0.502061 0.799929 0.546279 0.782348
C3    C     C_R   0.102039 0.493750 0.529378 -0.181496
C4    C     C_R   0.898891 0.540463 0.481653 -0.187821
C5    C     C_R   0.120152 0.347387 0.455153 -0.184463
C6    C     C_R   0.879222 0.674235 0.584355 -0.194866
C7    C     C_R   0.087202 0.212446 0.384795 0.339999
C8    C     C_R   0.910769 0.797048 0.698632 0.371612
C9    C     C_R   0.134741 0.626367 0.614182 -0.159227
C10   C     C_R   0.867537 0.416200 0.367036 -0.184730
C11   C     C_R   0.354144 0.486394 0.507442 -0.374422
C12   C     C_R   0.645830 0.516767 0.493317 -0.373026
C13   C     C_R   0.968973 0.392883 0.397769 -0.064100
C14   C     C_R   0.032864 0.651765 0.599852 -0.027695
C15   C     C_R   0.981553 0.656757 0.604769 -0.051368
C16   C     C_R   0.018890 0.374108 0.430983 -0.063443
C17   C     C_R   0.949916 0.530559 0.493939 -0.067139
C18   C     C_R   0.051202 0.506835 0.519944 -0.071784
C19   C     C_R   0.937789 0.280942 0.266334 0.558962
C20   C     C_R   0.066549 0.786287 0.668301 0.573237
C21   C     C_R   0.887484 0.286674 0.257841 0.340853
C22   C     C_R   0.116639 0.772761 0.684089 0.335031
C23   C     C_R   0.407422 0.496820 0.502018 0.881955
C24   C     C_R   0.592564 0.503455 0.498039 0.883815
C25   C     C_R   0.037301 0.225246 0.385375 0.626758
C26   C     C_R   0.960467 0.780528 0.719933 0.601125
C27   C     C_2   0.493638 0.032285 0.429721 0.281038
C28   C     C_2   0.506363 0.967714 0.570280 0.282174
C29   C     C_R   0.170864 0.340398 0.456538 0.674610
C30   C     C_R   0.828287 0.677547 0.575689 0.700493
C31   C     C_R   0.185033 0.610234 0.618913 0.719312
C32   C     C_R   0.816990 0.425578 0.365005 0.719562
C33   C     C_R   0.283516 0.457069 0.676727 0.655795
C34   C     C_R   0.716504 0.564032 0.331060 0.666930
C35   C     C_R   0.333738 0.467690 0.668963 -0.330163
C36   C     C_R   0.666245 0.547167 0.336574 -0.331274
C37   C     C_R   0.323073 0.492203 0.352415 0.541296
C38   C     C_R   0.676855 0.504176 0.645465 0.541813
C39   C     C_R   0.272829 0.482403 0.361261 0.554585
C40   C     C_R   0.727148 0.519703 0.638784 0.553259
C41   C     C_R   0.252969 0.465650 0.523404 -0.042795
C42   C     C_R   0.747129 0.549380 0.481705 -0.051728
Cu1   Cu    Cu3+1 0.505380 0.517380 0.684380 1.107468
Cu2   Cu    Cu3+1 0.494620 0.482620 0.315620 1.107718
H1    H     H_    0.643387 0.558955 0.218286 0.272339
H2    H     H_    0.356570 0.461417 0.789761 0.277423
N1    N     N_R   0.201711 0.470836 0.536232 -0.416893
N2    N     N_R   0.798699 0.552827 0.471056 -0.423994
N3    N     N_2   0.486510 0.456430 0.038510 0.170563
N4    N     N_2   0.513490 0.543570 0.961490 0.171174
O1    O     O_R   0.503500 0.286120 0.619780 -0.534896
O2    O     O_R   0.496500 0.713880 0.380220 -0.535651
O3    O     O_R   0.494410 0.256780 0.308360 -0.601759
O4    O     O_R   0.505590 0.743220 0.691640 -0.601993
O5    O     O_R   0.434810 0.514700 0.655690 -0.553337
O6    O     O_R   0.565190 0.485300 0.344310 -0.551565
O7    O     O_R   0.425720 0.485350 0.344280 -0.534200
O8    O     O_R   0.574280 0.514650 0.655720 -0.534951
O9    O     O_2   0.189508 0.205632 0.377515 -0.496404
O10   O     O_2   0.808150 0.802587 0.672797 -0.463026
O11   O     O_2   0.785994 0.307371 0.261161 -0.441285
O12   O     O_2   0.217418 0.733451 0.700910 -0.457600
F1    F     F_    0.341044 0.510956 0.193855 -0.570172
F2    F     F_    0.658778 0.473547 0.798997 -0.566200
O13   O     O_3   0.444907 0.393649 0.936361 -0.486214
C43   C     C_3   0.433717 0.242122 0.965691 0.003064
H3    H     H_    0.416117 0.248191 0.094957 0.176489
H4    H     H_    0.466123 0.174055 0.963374 0.203160
H5    H     H_    0.407189 0.175742 0.851882 0.123133
O14   O     O_3   0.555053 0.606571 0.063758 -0.486537
C44   C     C_3   0.566218 0.758040 0.034223 -0.002227
H6    H     H_    0.533792 0.825991 0.036271 0.204961
H7    H     H_    0.583869 0.751872 0.905044 0.175120
H8    H     H_    0.592698 0.824612 0.148093 0.122560
F3    F     F_    0.243266 0.493733 0.213656 -0.549413
F4    F     F_    0.756647 0.501891 0.783545 -0.545969
O15   O     O_3   0.103445 0.064037 0.335509 -0.586611
C45   C     C_3   0.097171 0.011294 0.142899 -0.016611
H9    H     H_    0.058163 0.993107 0.091883 0.256597
H10   H     H_    0.112321 0.895458 0.104598 0.196517
H11   H     H_    0.116950 0.094870 0.074729 0.187015
O16   O     O_3   0.892890 0.929527 0.801635 -0.499515
C46   C     C_3   0.904710 0.058713 0.723002 0.002814
H12   H     H_    0.892774 0.031490 0.573602 0.060304
H13   H     H_    0.944326 0.096208 0.745574 0.213965
H14   H     H_    0.885471 0.160210 0.790290 0.208144
F5    F     F_    0.735481 0.593026 0.178508 -0.548970
F6    F     F_    0.264512 0.441049 0.834240 -0.546247
O17   O     O_3   0.858396 0.172264 0.129116 -0.506560
C47   C     C_3   0.852417 0.034305 0.196878 -0.019751
H15   H     H_    0.828206 0.944202 0.095066 0.238722
H16   H     H_    0.834670 0.057342 0.327906 0.121299
H17   H     H_    0.887569 0.983468 0.215204 0.181373
O18   O     O_3   0.147425 0.899181 0.786175 -0.578839
C48   C     C_3   0.158503 0.007369 0.677865 -0.016558
H18   H     H_    0.166123 0.948014 0.535982 0.196172
H19   H     H_    0.191868 0.083224 0.742721 0.206981
H20   H     H_    0.129043 0.086322 0.676025 0.199857
F7    F     F_    0.955837 0.173310 0.133148 -0.587167
F8    F     F_    0.052048 0.934366 0.705639 -0.625053
F9    F     F_    0.007518 0.089576 0.359341 -0.600487
F10   F     F_    0.986077 0.876338 0.869369 -0.588927
F11   F     F_    0.474060 0.943882 0.263200 -0.669929
F12   F     F_    0.525939 0.056118 0.736803 -0.668504

loop_
_geom_bond_atom_site_label_1
_geom_bond_atom_site_label_2
_ccdc_geom_bond_type
Cu2   N3    S    
C43   H4    S    
C8    C26   A    
C14   C18   A    
C48   H18   S    
C34   C42   A    
C25   F9    S    
C48   H20   S    
C39   C41   A    
C21   O17   S    
O15   C45   S    
N3    O13   S    
C29   N1    A    
C8    O16   S    
C30   N2    A    
C19   C21   A    
C33   F6    S    
C32   O11   S    
C45   H10   S    
C9    C22   A    
C43   H5    S    
C3    C18   A    
C15   C17   A    
C22   O18   S    
C11   C23   S    
C11   C37   A    
Cu2   O6    S    
C1    O3    A    
Cu1   O8    S    
Cu2   O3    S    
C29   O9    S    
C30   O10   S    
O14   C44   S    
C39   F3    S    
C12   C36   A    
C38   F2    S    
C7    O15   S    
Cu2   O2    S    
C40   C42   A    
C43   H3    S    
C31   N1    A    
C32   N2    A    
C31   O12   S    
C37   F1    S    
C5    C29   A    
C10   C21   A    
C13   C19   A    
C24   O8    A    
C14   C20   A    
C4    C6    A    
C2    O4    A    
C5    C7    A    
C19   F7    S    
C45   H9    S    
C15   C26   A    
C6    C8    A    
C40   F4    S    
Cu1   Cu2   S    
C3    C9    A    
C28   F12   S    
Cu1   O4    S    
C47   H16   S    
C46   H12   S    
C20   F8    S    
Cu2   O7    S    
C41   N1    S    
C36   H1    S    
C42   N2    S    
C1    O1    A    
C2    O2    A    
C4    C17   A    
Cu1   O5    S    
C46   H13   S    
C20   C22   A    
N3    N4    D    
C4    C10   A    
C47   H17   S    
C44   H7    S    
C16   C25   A    
C23   O7    A    
C6    C30   A    
C3    C5    A    
C44   H8    S    
C48   H19   S    
Cu1   N4    S    
C23   O5    A    
C24   O6    A    
C12   C24   S    
C7    C25   A    
C13   C17   A    
C33   C41   A    
C11   C35   A    
N4    O14   S    
C44   H6    S    
C37   C39   A    
C26   F10   S    
C38   C40   A    
C45   H11   S    
Cu1   O1    S    
C47   H15   S    
C27   F11   S    
C33   C35   A    
C34   C36   A    
C34   F5    S    
O13   C43   S    
C12   C38   A    
O18   C48   S    
C9    C31   A    
C10   C32   A    
C46   H14   S    
C16   C18   A    
O16   C46   S    
C13   C16   A    
C27   C28   D    
C1    C27   S    
C14   C15   A    
C2    C28   S    
O17   C47   S    
C35   H2    S    
