data_mof_unit_48647.cif
_audit_creation_date              2012-12-10T17:10:14-0500
_audit_creation_method            fapswitch 2.2
_symmetry_space_group_name_H-M    P1
_symmetry_Int_Tables_number       1
_space_group_crystal_system       triclinic
_cell_length_a                    15.689867
_cell_length_b                    10.649339
_cell_length_c                    10.050367
_cell_angle_alpha                 89.267699
_cell_angle_beta                  89.032782
_cell_angle_gamma                 89.766258
_cell_volume                      1678.89383601

loop_
_atom_site_label
_atom_site_type_symbol
_atom_type_description
_atom_site_fract_x
_atom_site_fract_y
_atom_site_fract_z
_atom_type_partial_charge
C1    C     C_R   0.494437 0.262830 0.501060 0.937173
C2    C     C_2   0.494267 0.870600 0.494705 -0.373037
C3    C     C_2   0.458645 0.069828 0.395114 -0.212887
C4    C     C_R   0.338101 0.501057 0.500913 0.893411
C5    C     C_2   0.474720 0.132726 0.505767 -0.354386
C6    C     C_2   0.554847 0.559561 0.925459 -0.286389
C7    C     C_2   0.564793 0.537220 0.073578 0.550335
C8    C     C_R   0.497499 0.737507 0.498922 0.919596
C9    C     C_R   0.662016 0.498895 0.498983 0.903740
C10   C     C_3   0.974507 0.382029 0.547010 -0.099568
C11   C     C_3   0.032388 0.400651 0.422896 -0.050313
C12   C     C_3   0.083365 0.498571 0.498393 0.073162
C13   C     C_1   0.249325 0.502704 0.502566 -0.174500
C14   C     C_1   0.751001 0.494383 0.496445 -0.181913
C15   C     C_3   0.025778 0.481247 0.621135 0.555415
C16   C     C_R   0.073909 0.296617 0.344303 0.140344
C17   C     C_R   0.059465 0.284372 0.207570 -0.143928
C18   C     C_R   0.100717 0.189816 0.135310 -0.150909
C19   C     C_R   0.156437 0.106768 0.199019 -0.118909
C20   C     C_R   0.170552 0.117676 0.335279 -0.128315
C21   C     C_R   0.129303 0.211926 0.407826 -0.138506
C22   C     C_R   0.461461 0.388763 0.899775 0.248986
C23   C     C_3   0.968133 0.588799 0.570323 -0.242290
C24   C     C_R   0.372212 0.380592 0.903709 -0.154372
C25   C     C_R   0.332442 0.269547 0.946307 -0.150141
C26   C     C_R   0.381562 0.165260 0.982683 -0.126817
C27   C     C_R   0.470529 0.171615 0.975603 -0.169637
C28   C     C_R   0.510520 0.282619 0.933521 -0.148340
C29   C     C_3   0.711090 0.519741 0.064996 -0.330568
C30   C     C_R   0.943399 0.254318 0.592220 0.124125
C31   C     C_R   0.973929 0.196451 0.708589 -0.176128
C32   C     C_R   0.946385 0.076133 0.745870 -0.153992
C33   C     C_R   0.888889 0.012148 0.666851 -0.103620
C34   C     C_3   0.917361 0.489308 0.494811 0.091499
C35   C     C_R   0.859121 0.068210 0.550039 -0.139658
C36   C     C_R   0.886546 0.188460 0.512424 -0.127882
C37   C     C_3   0.998068 0.497464 0.846212 -0.391919
C38   C     C_R   0.396340 0.872705 0.301608 0.174438
C39   C     C_R   0.318276 0.818281 0.340330 -0.170364
C40   C     C_R   0.269038 0.756393 0.246963 -0.124262
C41   C     C_R   0.297752 0.747688 0.114942 -0.123694
C42   C     C_R   0.375568 0.801337 0.075947 -0.181389
C43   C     C_R   0.424705 0.863981 0.168861 -0.135104
C44   C     C_3   0.026582 0.605306 0.445556 -0.220352
C45   C     C_3   0.974006 0.506882 0.369504 -0.188616
C46   C     C_1   0.174086 0.502599 0.501635 -0.027640
C47   C     C_1   0.826373 0.490818 0.494847 -0.058573
C48   C     C_2   0.450133 0.934384 0.401493 0.025139
H1    H     H_    0.470337 0.089052 0.603916 0.162240
H2    H     H_    0.089664 0.181191 0.029784 0.126525
H3    H     H_    0.188618 0.033989 0.142900 0.132451
H4    H     H_    0.213668 0.053417 0.384654 0.136122
H5    H     H_    0.141104 0.219708 0.513271 0.134078
H6    H     H_    0.333674 0.460989 0.875871 0.146474
H7    H     H_    0.263569 0.264282 0.950904 0.149397
H8    H     H_    0.350612 0.079436 0.015497 0.140131
H9    H     H_    0.508607 0.090501 0.002057 0.128592
H10   H     H_    0.579411 0.286190 0.926938 0.118156
H11   H     H_    0.726594 0.578662 0.975939 0.154745
H12   H     H_    0.596491 0.627713 0.876929 0.172925
H13   H     H_    0.701612 0.420005 0.036644 0.147337
H14   H     H_    0.767107 0.522166 0.130844 0.189421
H15   H     H_    0.020080 0.242314 0.769635 0.173442
H16   H     H_    0.970177 0.032092 0.835606 0.127107
H17   H     H_    0.867895 0.918830 0.695622 0.116963
H18   H     H_    0.815124 0.018230 0.488236 0.130705
H19   H     H_    0.863820 0.229959 0.420637 0.129602
H20   H     H_    0.937502 0.445924 0.830599 0.163566
H21   H     H_    0.986091 0.600322 0.848427 0.174613
H22   H     H_    0.022266 0.468963 0.945114 0.191349
H23   H     H_    0.441419 0.505355 0.106909 0.134183
H24   H     H_    0.295906 0.823329 0.442676 0.113848
H25   H     H_    0.208896 0.714518 0.277122 0.130466
H26   H     H_    0.259869 0.699012 0.042991 0.132321
H27   H     H_    0.398016 0.793856 0.973909 0.140462
H28   H     H_    0.485532 0.903349 0.138294 0.120906
H29   H     H_    0.949470 0.518744 0.267157 0.129557
H30   H     H_    0.050337 0.696028 0.404195 0.150578
H31   H     H_    0.939220 0.666061 0.629155 0.133462
H32   H     H_    0.534203 0.916189 0.566535 0.138013
H33   H     H_    0.454186 0.116962 0.298850 0.182876
H34   H     H_    0.016712 0.347760 0.156519 0.106250
N1    N     N_2   0.500900 0.501330 0.852150 -0.152959
N2    N     N_2   0.500930 0.501360 0.147810 -0.217007
O1    O     O_R   0.499990 0.319060 0.613040 -0.613831
O2    O     O_3   0.060682 0.468502 0.749163 -0.619015
O3    O     O_R   0.500010 0.319100 0.386900 -0.612335
O4    O     O_R   0.376760 0.499970 0.613050 -0.619877
O5    O     O_R   0.376790 0.500010 0.386910 -0.610082
O6    O     O_R   0.499990 0.680900 0.613100 -0.622250
O7    O     O_R   0.500010 0.680940 0.386960 -0.579190
O8    O     O_R   0.623210 0.499990 0.613090 -0.623345
O9    O     O_R   0.623240 0.500030 0.386950 -0.546328
O10   O     O_3   0.640053 0.568669 0.135323 -0.561544
Zn1   Zn    Zn3+2 0.499980 0.499970 0.650990 0.939921
Zn2   Zn    Zn3+2 0.500020 0.500030 0.349010 1.000535

loop_
_geom_bond_atom_site_label_1
_geom_bond_atom_site_label_2
_ccdc_geom_bond_type
C1    O3    A    
C16   C21   A    
C37   H21   S    
C41   C42   A    
C35   C36   A    
C36   H19   S    
C33   H17   S    
O6    Zn1   S    
C42   H27   S    
C1    C5    S    
C4    O5    A    
C10   C15   S    
C38   C39   A    
C24   H6    S    
C37   H20   S    
C3    C48   S    
C40   H25   S    
C17   H34   S    
N2    Zn2   S    
C4    C13   S    
C41   H26   S    
C19   C20   A    
C16   C17   A    
C3    H33   S    
C39   H24   S    
C38   C48   S    
C15   C23   S    
C7    N2    D    
O7    Zn2   S    
O4    Zn1   S    
C22   C28   A    
C37   H22   S    
C5    H1    S    
C9    O8    A    
C1    O1    A    
C29   H13   S    
C6    H12   S    
C37   O2    S    
C24   C25   A    
C32   H16   S    
C12   C46   S    
C27   H9    S    
C39   C40   A    
C34   C45   S    
C18   C19   A    
C35   H18   S    
C2    C48   D    
C25   C26   A    
O8    Zn1   S    
C23   C44   S    
C9    C14   S    
C31   H15   S    
C11   C16   S    
C10   C30   S    
C31   C32   A    
C12   C15   S    
C23   C34   S    
N1    Zn1   S    
O3    Zn2   S    
C17   C18   A    
C26   C27   A    
C10   C34   S    
C8    O7    A    
C14   C47   T    
C15   O2    S    
C40   C41   A    
O9    Zn2   S    
C29   O10   S    
C22   C24   A    
C11   C45   S    
C8    O6    A    
C42   C43   A    
C9    O9    A    
C44   C45   S    
C18   H2    S    
H23   N2    S    
C43   H28   S    
C7    O10   S    
C29   H14   S    
C6    N1    D    
C2    C8    S    
C25   H7    S    
C3    C5    D    
C26   H8    S    
C11   C12   S    
C6    C7    S    
C4    O4    A    
C28   H10   S    
C30   C36   A    
C22   N1    S    
O5    Zn2   S    
C44   H30   S    
C38   C43   A    
C20   H4    S    
C32   C33   A    
C21   H5    S    
O1    Zn1   S    
C30   C31   A    
C33   C35   A    
C2    H32   S    
C10   C11   S    
C19   H3    S    
C20   C21   A    
C12   C44   S    
C27   C28   A    
C29   H11   S    
C13   C46   T    
C45   H29   S    
C34   C47   S    
C23   H31   S    
