data_mof_unit_49222.cif
_audit_creation_date              2012-12-10T17:07:10-0500
_audit_creation_method            fapswitch 2.2
_symmetry_space_group_name_H-M    P1
_symmetry_Int_Tables_number       1
_space_group_crystal_system       triclinic
_cell_length_a                    17.22607
_cell_length_b                    10.990736
_cell_length_c                    9.781006
_cell_angle_alpha                 108.297642
_cell_angle_beta                  95.366369
_cell_angle_gamma                 91.808764
_cell_volume                      1746.83414994

loop_
_atom_site_label
_atom_site_type_symbol
_atom_type_description
_atom_site_fract_x
_atom_site_fract_y
_atom_site_fract_z
_atom_type_partial_charge
C1    C     C_R   0.492503 0.255974 0.445731 0.844975
C2    C     C_R   0.508819 0.745190 0.553886 0.888728
C3    C     C_2   0.485693 0.120527 0.424265 -0.438781
C4    C     C_2   0.523285 0.881844 0.572596 -0.434095
C5    C     C_2   0.538868 0.064637 0.488823 0.379546
C6    C     C_2   0.528382 0.925312 0.458890 0.382463
C7    C     C_2   0.509047 0.505584 0.078466 -0.027137
C8    C     C_2   0.493793 0.488926 0.920047 -0.090190
C9    C     C_R   0.351570 0.494812 0.516965 0.845887
C10   C     C_R   0.648803 0.503627 0.482985 0.777805
C11   C     C_R   0.266793 0.478046 0.520542 -0.193750
C12   C     C_R   0.734117 0.501128 0.478911 -0.185633
C13   C     C_R   0.220324 0.383082 0.404921 -0.008882
C14   C     C_R   0.784459 0.551662 0.610060 0.014786
C15   C     C_R   0.137474 0.390186 0.391935 0.112972
C16   C     C_R   0.856927 0.497065 0.622744 0.105769
C17   C     C_R   0.104201 0.482064 0.504547 0.050481
C18   C     C_R   0.886676 0.424400 0.494665 0.032886
C19   C     C_R   0.150862 0.564815 0.623189 -0.298230
C20   C     C_R   0.842352 0.397017 0.360573 -0.288796
C21   C     C_R   0.231733 0.561308 0.634911 0.406926
C22   C     C_R   0.764913 0.429449 0.352307 0.404042
C23   C     C_2   0.020109 0.497463 0.504265 -0.213619
C24   C     C_2   0.969349 0.400172 0.495047 -0.201114
Cu1   Cu    Cu3+1 0.513640 0.521550 0.643210 0.938734
Cu2   Cu    Cu3+1 0.486360 0.478450 0.356790 0.946602
H1    H     H_    0.987740 0.304113 0.482137 0.168417
H2    H     H_    0.999881 0.593524 0.522373 0.158505
H3    H     H_    0.123904 0.634756 0.706926 0.145372
H4    H     H_    0.867838 0.350162 0.261684 0.160497
H5    H     H_    0.531922 0.948294 0.682015 0.141356
H6    H     H_    0.436307 0.065138 0.352673 0.121660
H7    H     H_    0.446843 0.421442 0.855188 0.162461
H8    H     H_    0.557389 0.569750 0.142721 0.174619
H9    H     H_    0.579976 0.614429 0.921056 0.185484
H10   H     H_    0.420714 0.384653 0.077858 0.187023
N1    N     N_2   0.465840 0.446060 0.141630 -0.292634
N2    N     N_2   0.534160 0.553940 0.858370 -0.299737
O1    O     O_R   0.507280 0.332200 0.576490 -0.530223
O2    O     O_R   0.492720 0.667800 0.423510 -0.514593
O3    O     O_R   0.484240 0.295800 0.334620 -0.605442
O4    O     O_R   0.515760 0.704200 0.665380 -0.591529
O5    O     O_R   0.399260 0.520290 0.634950 -0.553452
O6    O     O_R   0.600740 0.479710 0.365050 -0.546318
O7    O     O_R   0.376220 0.483890 0.393080 -0.584057
O8    O     O_R   0.623780 0.516110 0.606920 -0.589505
C25   C     C_3   0.258971 0.265005 0.314760 -0.342883
C26   C     C_3   0.269184 0.261289 0.158814 -0.320314
C27   C     C_3   0.319346 0.152387 0.085554 -0.883549
H11   H     H_    0.378646 0.165362 0.144496 0.274157
H12   H     H_    0.291812 0.058426 0.081730 0.249661
H13   H     H_    0.324947 0.151258 0.972980 0.237313
H14   H     H_    0.212649 0.243672 0.090897 0.203893
H15   H     H_    0.296275 0.353963 0.158623 0.227227
H16   H     H_    0.317257 0.258323 0.369876 0.178944
H17   H     H_    0.226612 0.176549 0.314858 0.171711
C28   C     C_3   0.765361 0.673424 0.725982 -0.365914
C29   C     C_3   0.826334 0.784259 0.743133 -0.367351
C30   C     C_3   0.804534 0.909415 0.849324 -0.884902
H18   H     H_    0.748616 0.937763 0.806480 0.257061
H19   H     H_    0.798684 0.898062 0.956890 0.256192
H20   H     H_    0.850463 0.986610 0.862222 0.248833
H21   H     H_    0.885123 0.762445 0.782245 0.216990
H22   H     H_    0.830067 0.798501 0.636185 0.224469
H23   H     H_    0.708225 0.706952 0.695399 0.208953
H24   H     H_    0.760786 0.655286 0.830469 0.191614
O9    O     O_3   0.723196 0.406699 0.218334 -0.597071
C31   C     C_3   0.698032 0.275637 0.160328 0.048036
H25   H     H_    0.643508 0.258619 0.206128 0.170182
H26   H     H_    0.742204 0.210412 0.183365 0.111122
C32   C     C_3   0.681789 0.241819 0.996417 -0.278618
H27   H     H_    0.646709 0.315573 0.968348 0.246199
H28   H     H_    0.738208 0.239671 0.949179 0.203547
C33   C     C_3   0.637289 0.111706 0.932048 -0.944357
H29   H     H_    0.663532 0.041146 0.979605 0.246354
H30   H     H_    0.640046 0.076616 0.813812 0.289079
H31   H     H_    0.575310 0.120733 0.953857 0.270348
O10   O     O_3   0.277147 0.646418 0.752818 -0.591976
C34   C     C_3   0.264639 0.615220 0.879329 0.060287
H32   H     H_    0.274879 0.512266 0.864197 0.125282
H33   H     H_    0.204139 0.634321 0.907648 0.132065
C35   C     C_3   0.321371 0.698278 0.006083 -0.325711
H34   H     H_    0.381864 0.675146 0.983359 0.238733
H35   H     H_    0.314800 0.801350 0.018451 0.217285
C36   C     C_3   0.307182 0.674540 0.147589 -0.877757
H36   H     H_    0.247359 0.699473 0.175246 0.239035
H37   H     H_    0.350110 0.735184 0.236594 0.292222
H38   H     H_    0.314363 0.572287 0.137962 0.251133
C37   C     C_3   0.901301 0.511474 0.770016 -0.403009
C38   C     C_3   0.897162 0.383543 0.802335 -0.335565
C39   C     C_3   0.935616 0.397986 0.954183 -0.869442
H39   H     H_    0.998385 0.429764 0.964914 0.249647
H40   H     H_    0.905860 0.468857 0.037165 0.262933
H41   H     H_    0.930971 0.304173 0.974102 0.238827
H42   H     H_    0.834975 0.348805 0.793850 0.218744
H43   H     H_    0.926975 0.309997 0.722301 0.219474
H44   H     H_    0.963146 0.545015 0.773279 0.197362
H45   H     H_    0.877076 0.583924 0.859254 0.201004
C40   C     C_3   0.085230 0.313124 0.254160 -0.371752
C41   C     C_3   0.071446 0.169706 0.237828 -0.355388
C42   C     C_3   0.992081 0.113398 0.154789 -0.878942
H46   H     H_    0.944048 0.160986 0.215101 0.251803
H47   H     H_    0.987152 0.125387 0.045807 0.252622
H48   H     H_    0.985830 0.009262 0.141183 0.247005
H49   H     H_    0.116452 0.113968 0.175810 0.219431
H50   H     H_    0.074979 0.155592 0.345836 0.213292
H51   H     H_    0.028032 0.355675 0.248904 0.217021
H52   H     H_    0.108636 0.325409 0.157775 0.164498
O11   O     O_3   0.509487 0.842877 0.317219 -0.596287
C43   C     C_3   0.555147 0.871447 0.216378 0.070849
H53   H     H_    0.574848 0.779414 0.148127 0.153019
H54   H     H_    0.610217 0.930703 0.266658 0.092657
C44   C     C_3   0.506362 0.935183 0.120746 -0.414472
H55   H     H_    0.443455 0.927269 0.135217 0.242110
H56   H     H_    0.525913 0.038448 0.151903 0.206164
C45   C     C_3   0.513032 0.874182 0.960519 -0.845959
H57   H     H_    0.484390 0.933336 0.899542 0.251059
H58   H     H_    0.481893 0.778354 0.922334 0.288199
H59   H     H_    0.575032 0.864874 0.939082 0.251297
O12   O     O_3   0.597905 0.136222 0.591796 -0.611965
C46   C     C_3   0.663475 0.158292 0.523535 0.073742
H60   H     H_    0.687758 0.258216 0.580503 0.171523
H61   H     H_    0.649208 0.151825 0.407578 0.093194
C47   C     C_3   0.726384 0.066504 0.538102 -0.381201
H62   H     H_    0.746418 0.085538 0.654633 0.223371
H63   H     H_    0.701762 0.965562 0.492270 0.213886
C48   C     C_3   0.796369 0.083733 0.459703 -0.944725
H64   H     H_    0.778248 0.061960 0.342056 0.248584
H65   H     H_    0.841351 0.017303 0.474026 0.259676
H66   H     H_    0.822415 0.183683 0.505010 0.257908

loop_
_geom_bond_atom_site_label_1
_geom_bond_atom_site_label_2
_ccdc_geom_bond_type
C9    O7    A    
C42   H46   S    
C24   H1    S    
C28   H24   S    
Cu1   O5    S    
C28   C29   S    
Cu2   O6    S    
C7    C8    S    
C20   H4    S    
C36   H36   S    
C26   H15   S    
C40   H52   S    
C41   H49   S    
C17   C23   S    
C33   H30   S    
C18   C24   S    
C47   H63   S    
H10   N1    S    
C19   C21   A    
C5    C6    S    
C12   C22   A    
C45   H57   S    
C43   H53   S    
C46   C47   S    
Cu2   O7    S    
C17   C19   A    
C13   C25   S    
C40   C41   S    
C31   H25   S    
C27   H12   S    
C33   H31   S    
C21   O10   S    
C10   O8    A    
C23   C24   D    
C32   C33   S    
C44   C45   S    
C30   H18   S    
C42   H47   S    
C8    N2    D    
C36   H37   S    
C29   H22   S    
C26   H14   S    
C9    O5    A    
C30   H19   S    
C33   H29   S    
C5    O12   S    
C10   O6    A    
O9    C31   S    
C38   H42   S    
H9    N2    S    
C4    C6    D    
C28   H23   S    
C39   H39   S    
C32   H28   S    
O10   C34   S    
Cu1   Cu2   S    
C11   C21   A    
C37   H44   S    
C1    C3    S    
C2    C4    S    
C48   H65   S    
Cu1   N2    S    
C39   H40   S    
C25   C26   S    
C27   H13   S    
C7    N1    D    
C23   H2    S    
C9    C11   S    
C43   C44   S    
C46   H60   S    
C10   C12   S    
C47   C48   S    
C1    O3    A    
C26   C27   S    
C12   C14   A    
C35   H34   S    
C42   H48   S    
C35   H35   S    
C13   C15   A    
C7    H8    S    
C14   C16   A    
C48   H64   S    
C19   H3    S    
O12   C46   S    
C25   H16   S    
C44   H55   S    
C36   H38   S    
C29   H21   S    
C15   C17   A    
C14   C28   S    
C30   H20   S    
C41   H50   S    
C20   C22   A    
C3    C5    D    
Cu1   O4    S    
C34   C35   S    
Cu2   N1    S    
C38   H43   S    
C35   C36   S    
C40   H51   S    
C34   H33   S    
C45   H59   S    
C37   H45   S    
C29   C30   S    
C48   H66   S    
C32   H27   S    
O11   C43   S    
Cu1   O1    S    
C39   H41   S    
C15   C40   S    
C11   C13   A    
Cu2   O2    S    
C38   C39   S    
C2    O4    A    
C31   C32   S    
C41   C42   S    
C6    O11   S    
C45   H58   S    
C18   C20   A    
C8    H7    S    
C3    H6    S    
C43   H54   S    
C22   O9    S    
C46   H61   S    
C4    H5    S    
C1    O1    A    
C34   H32   S    
C2    O2    A    
C16   C37   S    
C16   C18   A    
C27   H11   S    
C31   H26   S    
C25   H17   S    
C37   C38   S    
Cu1   O8    S    
Cu2   O3    S    
C47   H62   S    
C44   H56   S    
