data_mof_unit_33992.cif
_audit_creation_date              2013-03-05T15:41:51-0500
_audit_creation_method            fapswitch 2.2
_symmetry_space_group_name_H-M    P1
_symmetry_Int_Tables_number       1
_space_group_crystal_system       triclinic
_cell_length_a                    7.805588
_cell_length_b                    8.570127
_cell_length_c                    10.534392
_cell_angle_alpha                 90.970808
_cell_angle_beta                  87.060891
_cell_angle_gamma                 93.505491
_cell_volume                      702.385740032

loop_
_atom_site_label
_atom_site_type_symbol
_atom_site_description
_atom_site_fract_x
_atom_site_fract_y
_atom_site_fract_z
_atom_type_partial_charge
O1    O     O_R   0.389250 0.738570 0.508410 -0.617263
O2    O     O_R   0.610750 0.261430 0.491590 -0.617266
O3    O     O_R   0.678390 0.711620 0.486450 -0.628198
O4    O     O_R   0.321610 0.288380 0.513550 -0.628217
C1    C     C_R   0.545477 0.794439 0.496653 0.944251
C2    C     C_R   0.454523 0.205560 0.503347 0.944226
O5    O     O_R   0.355460 0.513510 0.697030 -0.554099
O6    O     O_R   0.644540 0.486490 0.302970 -0.554078
O7    O     O_R   0.644600 0.486560 0.675070 -0.610159
O8    O     O_R   0.355400 0.513440 0.324930 -0.610126
C3    C     C_R   0.505543 0.508863 0.741676 0.967099
C4    C     C_R   0.494457 0.491136 0.258323 0.967040
Zn1   Zn    Zn3+2 0.306940 0.517990 0.514670 1.035799
Zn2   Zn    Zn3+2 0.693060 0.482010 0.485330 1.035807
N1    N     N_2   0.950320 0.457950 0.465730 -0.153709
N2    N     N_2   0.049680 0.542050 0.534270 -0.153733
C5    C     C_3   0.385357 0.594247 0.962752 0.418033
C6    C     C_3   0.614643 0.405749 0.037243 0.417995
C7    C     C_3   0.530558 0.645158 0.051460 -0.472220
C8    C     C_3   0.469442 0.354838 0.948535 -0.472294
H1    H     H_    0.553680 0.763170 0.094719 0.199821
H2    H     H_    0.446322 0.236827 0.905276 0.199842
C9    C     C_3   0.487354 0.491453 0.124184 -0.227163
C10   C     C_3   0.512643 0.508543 0.875814 -0.227148
C11   C     C_3   0.343112 0.443661 0.035744 0.319902
C12   C     C_3   0.656885 0.556335 0.964250 0.319936
H3    H     H_    0.011174 0.375247 0.411317 0.243334
H4    H     H_    0.988823 0.624741 0.588695 0.243326
C13   C     C_2   0.569329 0.957996 0.494767 -0.338180
C14   C     C_2   0.430671 0.042004 0.505233 -0.338197
H5    H     H_    0.700419 0.008743 0.484778 0.193088
H6    H     H_    0.299581 0.991256 0.515223 0.193091
O9    O     O_3   0.266204 0.693184 0.918563 -0.651096
H7    H     H_    0.249919 0.772969 0.986618 0.362608
O10   O     O_3   0.733802 0.306816 0.081430 -0.651076
H8    H     H_    0.750085 0.227032 0.013374 0.362612
N3    N     N_R   0.169749 0.379526 0.066697 0.267858
O11   O     O_R   0.070578 0.340338 0.974533 -0.316863
O12   O     O_R   0.123469 0.337718 0.181926 -0.382781
N4    N     N_R   0.830239 0.620473 0.933275 0.267846
O13   O     O_R   0.929470 0.659543 0.025427 -0.316754
O14   O     O_R   0.876376 0.662554 0.818095 -0.382893

loop_
_geom_bond_atom_site_label_1
_geom_bond_atom_site_label_2
_geom_bond_distance
_ccdc_geom_bond_type
N3    O12   1.298575 A    
N2    H4    1.027640 S    
C7    C9    1.545707 S    
O7    Zn2   2.015295 S    
C13   C14   1.335007 D    
C14   H6    1.087806 S    
C6    O10   1.398162 S    
N1    H3    1.027635 S    
O10   H8    0.991127 S    
C6    C12   1.523503 S    
O6    C4    1.287643 A    
C5    C11   1.523502 S    
O3    C1    1.291394 A    
N4    O14   1.298500 A    
O9    H7    0.991130 S    
C13   H5    1.087806 S    
O5    C3    1.287636 A    
O7    C3    1.284415 A    
C4    C9    1.417057 S    
C12   N4    1.452386 S    
O2    C2    1.283259 A    
O3    Zn2   1.977894 S    
C5    O9    1.398163 S    
O1    C1    1.283259 A    
O8    C4    1.284417 A    
N4    O13   1.299545 A    
C2    C14   1.403024 S    
N3    O11   1.299562 A    
C10   C12   1.530216 S    
C1    C13   1.403024 S    
C9    C11   1.530238 S    
O2    Zn2   1.960125 S    
C5    C10   1.529225 S    
O1    Zn1   1.960125 S    
C8    C11   1.539807 S    
C8    H2    1.110677 S    
C6    C9    1.529245 S    
C8    C10   1.545698 S    
C3    C10   1.417036 S    
O5    Zn1   1.978444 S    
C6    C8    1.543536 S    
O4    C2    1.291394 A    
Zn1   N2    2.030800 S    
O4    Zn1   1.977894 S    
C7    C12   1.539806 S    
Zn2   N1    2.030800 S    
O6    Zn2   1.978442 S    
C5    C7    1.543537 S    
N1    N2    1.270328 D    
C11   N3    1.452392 S    
C7    H1    1.110677 S    
O8    Zn1   2.015295 S    
