data_mof_unit_57982.cif
_audit_creation_date              2012-12-10T18:33:36-0500
_audit_creation_method            fapswitch 2.2
_symmetry_space_group_name_H-M    P1
_symmetry_Int_Tables_number       1
_space_group_crystal_system       triclinic
_cell_length_a                    10.538768
_cell_length_b                    15.044837
_cell_length_c                    15.490333
_cell_angle_alpha                 82.2969
_cell_angle_beta                  90.16379
_cell_angle_gamma                 105.173736
_cell_volume                      2347.70384551

loop_
_atom_site_label
_atom_site_type_symbol
_atom_type_description
_atom_site_fract_x
_atom_site_fract_y
_atom_site_fract_z
_atom_type_partial_charge
C1    C     C_R   0.478288 0.441825 0.662048 0.907177
C2    C     C_R   0.515879 0.557965 0.337892 0.901454
C3    C     C_R   0.440431 0.469695 0.810637 -0.175940
C4    C     C_R   0.482058 0.525329 0.188351 -0.171767
C5    C     C_R   0.409831 0.440792 0.899164 0.092074
C6    C     C_R   0.444132 0.546078 0.103491 0.094989
C7    C     C_R   0.391412 0.345397 0.931577 0.152296
C8    C     C_R   0.444199 0.639102 0.072878 0.149413
C9    C     C_R   0.408298 0.505793 0.957060 0.067411
C10   C     C_R   0.413248 0.477271 0.047288 0.068866
C11   C     C_R   0.387713 0.381105 0.078251 -0.163493
C12   C     C_R   0.404677 0.598495 0.927992 -0.163601
C13   C     C_R   0.374231 0.316055 0.020876 -0.184326
C14   C     C_R   0.419779 0.663560 0.985690 -0.176190
C15   C     C_R   0.694201 0.843795 0.638342 -0.269228
C16   C     C_R   0.309231 0.156864 0.359859 -0.273508
C17   C     C_R   0.663795 0.755292 0.614893 0.539970
C18   C     C_R   0.336663 0.244617 0.384883 0.536890
C19   C     C_R   0.514464 0.793818 0.511117 -0.082358
C20   C     C_R   0.487368 0.206852 0.487956 -0.078747
C21   C     C_R   0.543718 0.886426 0.530854 0.010871
C22   C     C_R   0.461459 0.115040 0.466483 0.010082
C23   C     C_R   0.742658 0.501996 0.498878 1.057389
C24   C     C_R   0.257356 0.497952 0.501249 1.049236
C25   C     C_R   0.632247 0.909843 0.598822 0.016314
C26   C     C_R   0.373724 0.091725 0.398072 0.022992
C27   C     C_R   0.488355 0.955597 0.485598 0.085506
C28   C     C_R   0.518821 0.046411 0.510695 0.083467
C29   C     C_R   0.603610 0.065524 0.580361 -0.224697
C30   C     C_R   0.406120 0.937109 0.414598 -0.226990
C31   C     C_R   0.659403 0.999108 0.624550 -0.007853
C32   C     C_R   0.349969 0.003429 0.370545 -0.004954
C33   C     C_3   0.933711 0.443637 0.568648 0.262395
C34   C     C_3   0.066357 0.556243 0.431663 0.262819
C35   C     C_3   0.052961 0.527202 0.574056 0.285701
C36   C     C_3   0.947136 0.472661 0.426273 0.283224
C37   C     C_3   0.121838 0.495580 0.501277 -0.440334
C38   C     C_3   0.878210 0.504296 0.499026 -0.444928
C39   C     C_3   0.003459 0.411970 0.495956 0.334398
C40   C     C_3   0.996621 0.587912 0.504375 0.335516
C41   C     C_R   0.448491 0.406409 0.754198 -0.039431
C42   C     C_R   0.503893 0.590944 0.245940 -0.042387
C43   C     C_R   0.394495 0.281111 0.874347 -0.156088
C44   C     C_R   0.470202 0.706376 0.129921 -0.141560
C45   C     C_R   0.422774 0.311508 0.785800 -0.132319
C46   C     C_R   0.497916 0.681994 0.216716 -0.119243
H1    H     H_    0.556198 0.232592 0.535836 0.168434
H2    H     H_    0.444139 0.768053 0.464014 0.168843
H3    H     H_    0.767932 0.860002 0.686565 0.215805
H4    H     H_    0.235821 0.140454 0.311461 0.213023
H5    H     H_    0.626610 0.131630 0.604184 0.176240
H6    H     H_    0.386545 0.871866 0.389261 0.171731
H7    H     H_    0.356554 0.243099 0.046730 0.175337
H8    H     H_    0.416803 0.733951 0.961350 0.169183
H9    H     H_    0.496769 0.457807 0.210583 0.178909
H10   H     H_    0.464395 0.542516 0.785084 0.181037
H11   H     H_    0.512978 0.733634 0.260837 0.168996
H12   H     H_    0.426659 0.261280 0.742574 0.171478
H13   H     H_    0.378427 0.207865 0.898412 0.154569
H14   H     H_    0.468059 0.777362 0.107586 0.155151
H15   H     H_    0.375101 0.354198 0.146741 0.188995
H16   H     H_    0.386721 0.621863 0.861233 0.176629
N1    N     N_R   0.574200 0.731700 0.552740 -0.143417
N2    N     N_R   0.425800 0.268300 0.447260 -0.139886
O1    O     O_R   0.462600 0.383110 0.605620 -0.632720
O2    O     O_R   0.537400 0.616890 0.394380 -0.631937
O3    O     O_R   0.510210 0.531900 0.639510 -0.587128
O4    O     O_R   0.489790 0.468100 0.360490 -0.586047
O5    O     O_R   0.662240 0.425610 0.483080 -0.595927
O6    O     O_R   0.337760 0.574390 0.516920 -0.598794
O7    O     O_R   0.709860 0.574400 0.516970 -0.547115
O8    O     O_R   0.290140 0.425600 0.483030 -0.547391
Zn1   Zn    Zn3+2 0.468210 0.400660 0.477370 1.056999
Zn2   Zn    Zn3+2 0.531790 0.599340 0.522630 1.055310
Cl1   Cl    Cl    0.125401 0.561804 0.672594 -0.467209
Cl2   Cl    Cl    0.875080 0.437813 0.327750 -0.447082
Cl3   Cl    Cl    0.254542 0.323324 0.332769 -0.518740
Cl4   Cl    Cl    0.743091 0.675650 0.668635 -0.487587
Cl5   Cl    Cl    0.841734 0.369739 0.659561 -0.467224
Cl6   Cl    Cl    0.158390 0.630011 0.340675 -0.476682
Cl7   Cl    Cl    0.005195 0.294313 0.492584 -0.406869
Cl8   Cl    Cl    0.994699 0.705496 0.507972 -0.411436
C47   C     C_2   0.741885 0.025444 0.699865 0.918075
O9    O     O_2   0.824059 0.100622 0.693369 -0.536878
O10   O     O_R   0.721604 0.966405 0.779245 -0.802970
H17   H     H_    0.782747 0.992712 0.825615 0.360268
C48   C     C_2   0.270861 0.978214 0.293524 0.915956
O11   O     O_2   0.191884 0.901901 0.297211 -0.541374
O12   O     O_R   0.290820 0.039817 0.215701 -0.812134
H18   H     H_    0.232216 0.014139 0.167911 0.355072

loop_
_geom_bond_atom_site_label_1
_geom_bond_atom_site_label_2
_ccdc_geom_bond_type
C25   C31   A    
C38   C40   S    
C48   O11   D    
C26   C32   A    
C34   C37   S    
C23   O5    A    
C24   O6    A    
O10   H17   S    
C35   Cl1   S    
C33   C39   S    
C34   C40   S    
C28   C29   A    
C19   C21   A    
C16   H4    S    
C2    O4    A    
C33   C35   S    
C15   C25   A    
O2    Zn2   S    
C31   C47   S    
C42   C46   A    
C30   H6    S    
C36   Cl2   S    
C34   Cl6   S    
C19   N1    A    
O6    Zn2   S    
C1    O1    A    
N2    Zn1   S    
O5    Zn1   S    
C7    C43   A    
C9    C10   A    
C43   H13   S    
C21   C27   A    
C22   C28   A    
C27   C30   A    
C44   C46   A    
C13   H7    S    
C24   O8    A    
C16   C26   A    
C45   H12   S    
C40   Cl8   S    
C39   Cl7   S    
C4    C6    A    
O1    Zn1   S    
C4    H9    S    
C5    C7    A    
C19   H2    S    
C33   Cl5   S    
C6    C8    A    
C2    O2    A    
O4    Zn1   S    
C32   C48   S    
C20   N2    A    
C5    C9    A    
C23   O7    A    
C12   H16   S    
C3    H10   S    
C47   O9    D    
C24   C37   S    
O3    Zn2   S    
C44   H14   S    
C43   C45   A    
C1    C41   S    
C47   O10   S    
C20   C22   A    
C48   O12   S    
C46   H11   S    
C35   C37   S    
C29   H5    S    
C15   C17   A    
C21   C25   A    
C3    C41   A    
C8    C14   A    
C14   H8    S    
C36   C39   S    
C8    C44   A    
C12   C14   A    
O8    Zn1   S    
C3    C5    A    
C6    C10   A    
O7    Zn2   S    
N1    Zn2   S    
C23   C38   S    
C33   C38   S    
C16   C18   A    
C36   C38   S    
C35   C40   S    
C37   C39   S    
C17   N1    A    
C30   C32   A    
C11   C13   A    
C18   N2    A    
C4    C42   A    
C2    C42   S    
C18   Cl3   S    
C17   Cl4   S    
C1    O3    A    
C34   C36   S    
C15   H3    S    
C11   H15   S    
C9    C12   A    
C20   H1    S    
C10   C11   A    
C7    C13   A    
C29   C31   A    
C22   C26   A    
C27   C28   A    
C41   C45   A    
O12   H18   S    
