data_mof_unit_23597.cif
_audit_creation_date              2012-12-10T17:54:20-0500
_audit_creation_method            fapswitch 2.2
_symmetry_space_group_name_H-M    P1
_symmetry_Int_Tables_number       1
_space_group_crystal_system       triclinic
_cell_length_a                    27.668126
_cell_length_b                    10.610717
_cell_length_c                    9.96392
_cell_angle_alpha                 89.223915
_cell_angle_beta                  89.351487
_cell_angle_gamma                 93.166983
_cell_volume                      2920.2455243

loop_
_atom_site_label
_atom_site_type_symbol
_atom_type_description
_atom_site_fract_x
_atom_site_fract_y
_atom_site_fract_z
_atom_type_partial_charge
C1    C     C_R   0.500941 0.261048 0.500718 0.904420
C2    C     C_R   0.278001 0.501293 0.627960 -0.096607
C3    C     C_R   0.252386 0.488380 0.508363 0.295241
C4    C     C_R   0.101130 0.496591 0.529293 -0.053715
C5    C     C_R   0.124315 0.392629 0.582618 -0.030364
C6    C     C_R   0.096794 0.293385 0.644652 -0.110410
C7    C     C_R   0.128701 0.595035 0.463668 -0.028607
C8    C     C_R   0.353243 0.494948 0.502993 -0.038316
C9    C     C_R   0.646407 0.501655 0.499733 -0.117800
C10   C     C_R   0.971315 0.395750 0.586718 0.054598
C11   C     C_R   0.977605 0.620062 0.515579 -0.009663
C12   C     C_R   0.406103 0.498615 0.500739 0.913057
C13   C     C_R   0.949188 0.508340 0.548906 0.054104
C14   C     C_R   0.941565 0.285399 0.612695 -0.191661
C15   C     C_R   0.891600 0.286159 0.602810 -0.104525
C16   C     C_R   0.869569 0.397241 0.568468 -0.030843
C17   C     C_R   0.898220 0.509133 0.543789 -0.050943
C18   C     C_R   0.875856 0.621707 0.513276 -0.067942
C19   C     C_R   0.825435 0.619363 0.502960 0.541089
C20   C     C_R   0.819268 0.399258 0.557840 0.528992
C21   C     C_R   0.723390 0.439818 0.412611 -0.086980
C22   C     C_R   0.673081 0.435128 0.405056 0.156683
C23   C     C_R   0.500243 0.739257 0.499082 0.882657
C24   C     C_R   0.670554 0.570433 0.600555 -0.158734
C25   C     C_R   0.720589 0.573946 0.607398 -0.026315
C26   C     C_R   0.747057 0.508621 0.513668 0.231067
C27   C     C_R   0.022373 0.396535 0.593985 0.043377
C28   C     C_R   0.050313 0.501553 0.540128 0.078052
C29   C     C_R   0.027799 0.610435 0.493890 0.054614
C30   C     C_R   0.046630 0.294720 0.649645 -0.189690
C31   C     C_R   0.105411 0.695076 0.404792 -0.117170
C32   C     C_R   0.954217 0.735875 0.505310 0.127128
C33   C     C_R   0.903970 0.734671 0.499158 -0.134078
C34   C     C_R   0.593746 0.499117 0.499353 0.846719
C35   C     C_R   0.055585 0.701120 0.417471 -0.166649
C36   C     C_R   0.586359 0.140862 0.590918 -0.368025
C37   C     C_R   0.627234 0.079684 0.631074 0.636236
C38   C     C_R   0.627280 0.948507 0.627530 0.630127
C39   C     C_R   0.586422 0.878383 0.583918 -0.307546
C40   C     C_R   0.544571 0.939147 0.543418 -0.010176
C41   C     C_R   0.544680 0.071034 0.546563 0.004981
C42   C     C_R   0.503193 0.129083 0.501681 -0.055539
C43   C     C_R   0.463108 0.061465 0.451788 -0.182541
C44   C     C_R   0.462446 0.932509 0.449453 0.135411
C45   C     C_R   0.174746 0.390906 0.572822 0.518700
C46   C     C_R   0.502686 0.872099 0.496937 -0.085373
C47   C     C_R   0.436316 0.334018 0.149184 -0.224665
C48   C     C_R   0.404198 0.250245 0.086826 0.550491
C49   C     C_R   0.403063 0.247251 0.949099 -0.306152
C50   C     C_R   0.433940 0.327652 0.871925 0.602020
C51   C     C_R   0.467948 0.416374 0.931455 -0.099080
C52   C     C_R   0.468400 0.417594 0.075964 -0.030619
C53   C     C_R   0.530350 0.579208 0.067779 0.138885
C54   C     C_R   0.530209 0.578734 0.925261 0.630072
C55   C     C_R   0.179011 0.589468 0.456182 0.518196
C56   C     C_R   0.277042 0.477969 0.386026 -0.065058
C57   C     C_R   0.327335 0.481361 0.383166 -0.165836
C58   C     C_R   0.328212 0.504293 0.625519 -0.164985
H1    H     H_    0.347329 0.514737 0.719323 0.174950
H2    H     H_    0.257178 0.467783 0.293424 0.153018
H3    H     H_    0.125489 0.768427 0.347468 0.201127
H4    H     H_    0.650638 0.621561 0.674397 0.227730
H5    H     H_    0.886869 0.823583 0.488153 0.215202
H6    H     H_    0.738859 0.626350 0.686323 0.181473
H7    H     H_    0.038877 0.774357 0.361399 0.184780
H8    H     H_    0.431942 0.109433 0.416412 0.192043
H9    H     H_    0.587913 0.242731 0.593539 0.187616
H10   H     H_    0.258901 0.510022 0.722565 0.151669
H11   H     H_    0.588158 0.776918 0.580542 0.193083
H12   H     H_    0.434719 0.330085 0.255406 0.229731
H13   H     H_    0.377790 0.181327 0.900656 0.218429
H14   H     H_    0.113878 0.213359 0.688444 0.200711
H15   H     H_    0.744249 0.388232 0.341369 0.170860
H16   H     H_    0.870304 0.198811 0.621702 0.207990
H17   H     H_    0.955978 0.195534 0.636030 0.174928
H18   H     H_    0.027791 0.215812 0.700378 0.165697
H19   H     H_    0.345823 0.473310 0.287521 0.174763
N1    N     N_R   0.200861 0.488961 0.511390 -0.358456
N2    N     N_R   0.798438 0.508933 0.523985 -0.357287
N3    N     N_R   0.499540 0.498800 0.142780 -0.136860
N4    N     N_R   0.499520 0.498720 0.857170 -0.155926
O1    O     O_R   0.500000 0.316780 0.614690 -0.542871
O2    O     O_2   0.791282 0.292906 0.582027 -0.483178
O3    O     O_2   0.206021 0.684429 0.396086 -0.529990
O4    O     O_2   0.803510 0.726092 0.470974 -0.510319
O5    O     O_R   0.500000 0.316750 0.385360 -0.638147
O6    O     O_R   0.428760 0.500030 0.614650 -0.556350
O7    O     O_R   0.428750 0.500010 0.385320 -0.648760
O8    O     O_R   0.500000 0.683250 0.614640 -0.578511
O9    O     O_R   0.500000 0.683220 0.385310 -0.589211
O10   O     O_R   0.571250 0.499990 0.614680 -0.590911
O11   O     O_R   0.571240 0.499970 0.385350 -0.578184
O12   O     O_2   0.197591 0.292033 0.623602 -0.533740
Zn1   Zn    Zn3+2 0.500000 0.500020 0.653130 1.065643
Zn2   Zn    Zn3+2 0.500000 0.499980 0.346870 1.006228
I1    I     I_    0.988150 0.918836 0.536962 -0.408205
F1    F     F_    0.667040 0.148179 0.672296 -0.579852
F2    F     F_    0.667147 0.888902 0.665412 -0.603457
I2    I     I_    0.398605 0.835887 0.377884 -0.229976
I3    I     I_    0.580121 0.709812 0.158760 -0.138051
F3    F     F_    0.373923 0.171302 0.160955 -0.629533
F4    F     F_    0.428107 0.312099 0.740533 -0.641812
F5    F     F_    0.561041 0.659158 0.854791 -0.633928
I4    I     I_    0.640983 0.316587 0.256330 -0.224466

loop_
_geom_bond_atom_site_label_1
_geom_bond_atom_site_label_2
_ccdc_geom_bond_type
C10   C27   A    
C21   C26   A    
O1    Zn1   S    
C41   C42   A    
C31   H3    S    
C7    C55   A    
C38   F2    S    
C45   O12   S    
C37   F1    S    
C36   H9    S    
O9    Zn2   S    
C53   C54   A    
C6    H14   S    
C28   C29   A    
C36   C37   A    
C2    H10   S    
C5    C6    A    
C44   I2    S    
C9    C22   A    
C35   H7    S    
C15   C16   A    
O6    Zn1   S    
C21   H15   S    
C22   I4    S    
C56   C57   A    
C18   C19   A    
O8    Zn1   S    
C34   O10   A    
C8    C58   A    
C16   C17   A    
C23   O8    A    
C45   N1    A    
C51   N4    A    
C12   O6    A    
C16   C20   A    
O7    Zn2   S    
C23   C46   S    
C21   C22   A    
C27   C30   A    
C36   C41   A    
C4    C7    A    
C4    C28   A    
C44   C46   A    
C50   C51   A    
C53   I3    S    
C33   H5    S    
C7    C31   A    
C12   O7    A    
C51   C52   A    
C57   H19   S    
C54   F5    S    
C53   N3    A    
C24   C25   A    
C10   C14   A    
C39   C40   A    
C55   N1    A    
C25   C26   A    
C5    C45   A    
O11   Zn2   S    
C56   H2    S    
C25   H6    S    
C40   C46   A    
C43   C44   A    
C47   H12   S    
C37   C38   A    
C8    C57   A    
C30   H18   S    
C3    C56   A    
C47   C48   A    
C8    C12   S    
C17   C18   A    
C39   H11   S    
C23   O9    A    
N3    Zn2   S    
C19   N2    A    
C40   C41   A    
C32   I1    S    
C11   C32   A    
C50   F4    S    
C9    C34   S    
C31   C35   A    
C58   H1    S    
C42   C43   A    
C1    O5    A    
C48   C49   A    
C24   H4    S    
C20   N2    A    
C6    C30   A    
C4    C5    A    
C19   O4    S    
C10   C13   A    
C2    C58   A    
C9    C24   A    
C47   C52   A    
C29   C35   A    
C26   N2    S    
C13   C17   A    
C14   H17   S    
C2    C3    A    
C1    O1    A    
C32   C33   A    
O10   Zn1   S    
N4    Zn1   S    
C11   C13   A    
C38   C39   A    
C43   H8    S    
C48   F3    S    
C18   C33   A    
C34   O11   A    
O5    Zn2   S    
C1    C42   S    
C15   H16   S    
C11   C29   A    
C49   C50   A    
C49   H13   S    
C20   O2    S    
C27   C28   A    
C14   C15   A    
C55   O3    S    
C52   N3    A    
C3    N1    S    
C54   N4    A    
