data_mof_unit_57421.cif
_audit_creation_date              2012-10-26T20:12:20-0400
_audit_creation_method            fapswitch 2.2
_symmetry_space_group_name_H-M    P1
_symmetry_Int_Tables_number       1
_space_group_crystal_system       triclinic
_cell_length_a                    13.011923
_cell_length_b                    15.10365
_cell_length_c                    13.857244
_cell_angle_alpha                 90.005704
_cell_angle_beta                  96.06332
_cell_angle_gamma                 90.139867
_cell_volume                      2708.08676716

loop_
_atom_site_label
_atom_site_type_symbol
_atom_type_description
_atom_site_fract_x
_atom_site_fract_y
_atom_site_fract_z
_atom_type_partial_charge
C1    C     C_R   0.499952 0.329900 0.499992 0.557799
C2    C     C_R   0.499791 0.951519 0.500343 0.112738
C3    C     C_R   0.580783 0.539387 0.115820 -0.139373
C4    C     C_R   0.449989 0.432653 0.887079 -0.139686
C5    C     C_R   0.578900 0.539340 0.217108 0.049620
C6    C     C_R   0.450365 0.434271 0.785623 0.049111
C7    C     C_R   0.421003 0.460711 0.201598 0.042023
C8    C     C_R   0.549560 0.565675 0.795530 0.047226
C9    C     C_R   0.419061 0.460488 0.099895 -0.142669
C10   C     C_R   0.549792 0.567269 0.897044 -0.139295
C11   C     C_R   0.499903 0.499917 0.054636 0.023055
C12   C     C_R   0.500028 0.670101 0.500028 0.555192
C13   C     C_R   0.499875 0.499947 0.945277 0.024259
C14   C     C_R   0.300445 0.499877 0.481972 0.551253
C15   C     C_R   0.699554 0.500132 0.518017 0.551455
C16   C     C_R   0.812213 0.500082 0.528541 -0.064029
C17   C     C_R   0.187782 0.499972 0.471408 -0.064449
C18   C     C_R   0.024469 0.506251 0.369595 0.272911
C19   C     C_R   0.975530 0.493920 0.630344 0.271405
C20   C     C_R   0.132296 0.506128 0.379403 -0.115372
C21   C     C_R   0.867709 0.493990 0.620536 -0.114615
C22   C     C_R   0.135496 0.494851 0.554344 -0.134912
C23   C     C_R   0.499883 0.233428 0.500045 -0.070085
C24   C     C_R   0.864489 0.505214 0.445594 -0.135910
C25   C     C_R   0.028000 0.496963 0.546539 0.010221
C26   C     C_R   0.971991 0.503149 0.453395 0.011239
C27   C     C_R   0.451733 0.094522 0.571736 0.254905
C28   C     C_R   0.447976 0.904967 0.421532 0.267429
C29   C     C_R   0.450875 0.187397 0.569805 -0.148424
C30   C     C_R   0.451209 0.812679 0.420571 -0.127189
C31   C     C_3   0.966538 0.432505 0.231915 -0.136419
C32   C     C_3   0.033031 0.567826 0.768047 -0.132363
C33   C     C_3   0.420831 0.077545 0.732188 -0.085883
C34   C     C_R   0.499988 0.766541 0.500112 -0.079975
C35   C     C_3   0.292596 0.957132 0.357696 -0.133252
C36   C     C_3   0.578999 0.077147 0.268422 -0.085790
C37   C     C_3   0.707047 0.957533 0.643426 -0.134098
C38   C     C_R   0.548916 0.187418 0.430439 -0.148932
C39   C     C_R   0.548619 0.812809 0.579802 -0.129212
C40   C     C_R   0.548085 0.094537 0.428800 0.253346
C41   C     C_R   0.551648 0.905129 0.579072 0.269347
C42   C     C_R   0.499889 0.048716 0.500318 0.101578
Cu1   Cu    Cu3+1 0.500000 0.499990 0.596430 0.939301
Cu2   Cu    Cu3+1 0.500000 0.500010 0.403570 0.936357
H1    H     H_    0.358587 0.429504 0.234717 0.117787
H2    H     H_    0.410997 0.382351 0.742371 0.117732
H3    H     H_    0.821165 0.510056 0.374600 0.175575
H4    H     H_    0.178817 0.489961 0.625338 0.183233
H5    H     H_    0.353577 0.430501 0.057433 0.090483
H6    H     H_    0.587864 0.621854 0.936841 0.093076
H7    H     H_    0.827790 0.488861 0.685079 0.143531
H8    H     H_    0.172226 0.511271 0.314864 0.137897
H9    H     H_    0.928827 0.381762 0.274786 0.115220
H10   H     H_    0.044854 0.410052 0.217477 0.111691
H11   H     H_    0.919176 0.439024 0.160881 0.144023
H12   H     H_    0.588962 0.617599 0.760144 0.117497
H13   H     H_    0.954602 0.589966 0.782496 0.111879
H14   H     H_    0.070463 0.618742 0.725175 0.117782
H15   H     H_    0.080421 0.561463 0.839084 0.147314
H16   H     H_    0.402895 0.024025 0.782640 0.150954
H17   H     H_    0.370849 0.134782 0.745593 0.096080
H18   H     H_    0.504009 0.094904 0.749865 0.140930
H19   H     H_    0.252526 0.994584 0.295991 0.138162
H20   H     H_    0.282389 0.994533 0.425275 0.136863
H21   H     H_    0.255100 0.890892 0.359240 0.119427
H22   H     H_    0.495807 0.094085 0.250697 0.140116
H23   H     H_    0.410179 0.224018 0.621051 0.120953
H24   H     H_    0.596947 0.023515 0.218191 0.151303
H25   H     H_    0.628942 0.134544 0.254761 0.098338
H26   H     H_    0.746986 0.995245 0.705134 0.139882
H27   H     H_    0.744317 0.891331 0.642279 0.112295
H28   H     H_    0.717714 0.994710 0.575787 0.139032
H29   H     H_    0.413128 0.777231 0.358775 0.148820
H30   H     H_    0.589646 0.224060 0.379111 0.130165
H31   H     H_    0.586720 0.777456 0.641538 0.134095
H32   H     H_    0.646248 0.569336 0.086287 0.096454
H33   H     H_    0.411859 0.378074 0.919269 0.086549
H34   H     H_    0.641290 0.570787 0.262392 0.130054
N1    N     N_R   0.500000 0.500020 0.258690 -0.223748
N2    N     N_R   0.500000 0.499980 0.741310 -0.221778
O1    O     O_R   0.500010 0.371450 0.581430 -0.507399
O2    O     O_3   0.029277 0.484757 0.721373 -0.575658
O3    O     O_3   0.398436 0.046354 0.636159 -0.557601
O4    O     O_3   0.397836 0.949662 0.343310 -0.562956
O5    O     O_3   0.601462 0.046416 0.364576 -0.557989
O6    O     O_3   0.601662 0.949999 0.657394 -0.563411
O7    O     O_R   0.499990 0.628550 0.418570 -0.495391
O8    O     O_R   0.500010 0.371460 0.418560 -0.500288
O9    O     O_R   0.499990 0.628540 0.581440 -0.505710
O10   O     O_R   0.349000 0.499980 0.568210 -0.502888
O11   O     O_R   0.651000 0.500020 0.431790 -0.515173
O12   O     O_R   0.349000 0.499990 0.405340 -0.513771
O13   O     O_R   0.651000 0.500010 0.594660 -0.504620
O14   O     O_3   0.970740 0.515580 0.278580 -0.576647

loop_
_geom_bond_atom_site_label_1
_geom_bond_atom_site_label_2
_ccdc_geom_bond_type
C22   H4    S    
C16   C21   A    
C28   O4    S    
C18   C26   A    
C32   H14   S    
C8    H12   S    
C39   C41   A    
C41   O6    S    
Cu1   O9    S    
C23   C29   A    
C19   C21   A    
C24   C26   A    
C36   H22   S    
C27   C29   A    
C35   H21   S    
C2    C41   A    
C1    O1    A    
C15   C16   S    
C17   C20   A    
C4    C13   A    
C14   O10   A    
C29   H23   S    
C33   H18   S    
C22   C25   A    
C35   H20   S    
C39   H31   S    
C5    N1    A    
C19   O2    S    
Cu2   O12   S    
C1    O8    A    
C40   C42   A    
C16   C24   A    
C37   H26   S    
C14   C17   S    
C32   H13   S    
Cu1   O10   S    
C30   C34   A    
C34   C39   A    
C12   O9    A    
C9    H5    S    
C4    C6    A    
C30   H29   S    
Cu1   N2    S    
C40   O5    S    
Cu1   Cu2   S    
C9    C11   A    
C37   O6    S    
C6    N2    A    
C31   H9    S    
C3    H32   S    
C33   O3    S    
C14   O12   A    
Cu2   O11   S    
C33   H17   S    
C1    C23   S    
C33   H16   S    
C37   H27   S    
C31   O14   S    
Cu1   O1    S    
C12   C34   S    
Cu2   O7    S    
C7    H1    S    
C21   H7    S    
C36   H25   S    
C7    N1    A    
C38   H30   S    
C7    C9    A    
C6    H2    S    
C12   O7    A    
C24   H3    S    
Cu2   N1    S    
C3    C5    A    
C10   C13   A    
C15   O13   A    
C2    C28   A    
C35   O4    S    
C36   H24   S    
C36   O5    S    
C23   C38   A    
C32   O2    S    
C17   C22   A    
C28   C30   A    
C25   C26   A    
C4    H33   S    
C20   H8    S    
C38   C40   A    
C11   C13   S    
C27   C42   A    
C2    C42   S    
C18   O14   S    
C27   O3    S    
Cu1   O13   S    
C18   C20   A    
C31   H10   S    
C19   C25   A    
C3    C11   A    
C15   O11   A    
C8    C10   A    
C37   H28   S    
C8    N2    A    
C35   H19   S    
C32   H15   S    
C31   H11   S    
C5    H34   S    
Cu2   O8    S    
C10   H6    S    
