data_mof_unit_46986.cif
_audit_creation_date              2012-12-11T14:03:48-0500
_audit_creation_method            fapswitch 2.2
_symmetry_space_group_name_H-M    P1
_symmetry_Int_Tables_number       1
_space_group_crystal_system       triclinic
_cell_length_a                    19.171167
_cell_length_b                    10.93711
_cell_length_c                    18.855215
_cell_angle_alpha                 89.770552
_cell_angle_beta                  88.810785
_cell_angle_gamma                 89.967352
_cell_volume                      3952.62425854

loop_
_atom_site_label
_atom_site_type_symbol
_atom_type_description
_atom_site_fract_x
_atom_site_fract_y
_atom_site_fract_z
_atom_type_partial_charge
C1    C     C_R   0.241426 0.463419 0.648829 0.608269
C2    C     C_R   0.758295 0.462443 0.350686 0.602438
C3    C     C_R   0.741428 0.963414 0.648833 0.605945
C4    C     C_R   0.258296 0.962447 0.350689 0.605781
C5    C     C_2   0.264202 0.782791 0.522095 0.178646
C6    C     C_2   0.734383 0.786317 0.477103 0.179351
C7    C     C_2   0.764200 0.282788 0.522094 0.178950
C8    C     C_2   0.234379 0.286324 0.477100 0.179248
C9    C     C_R   0.958381 0.662022 0.437937 -0.041452
C10   C     C_R   0.037884 0.659168 0.561862 -0.037917
C11   C     C_R   0.458388 0.162021 0.437935 -0.041701
C12   C     C_R   0.537892 0.159168 0.561859 -0.038114
C13   C     C_R   0.962783 0.890493 0.439308 -0.070629
C14   C     C_R   0.051619 0.883029 0.550603 -0.082599
C15   C     C_R   0.462790 0.390492 0.439304 -0.070084
C16   C     C_R   0.551626 0.383029 0.550599 -0.082769
C17   C     C_R   0.994297 0.997349 0.461275 -0.061666
C18   C     C_R   0.040582 0.992517 0.515947 -0.055737
C19   C     C_R   0.494308 0.497347 0.461268 -0.061083
C20   C     C_R   0.540592 0.492515 0.515939 -0.056001
C21   C     C_R   0.022462 0.772254 0.528327 0.003717
C22   C     C_R   0.980642 0.774614 0.467647 0.010126
C23   C     C_R   0.522470 0.272254 0.528323 0.003644
C24   C     C_R   0.480649 0.274613 0.467644 0.009824
C25   C     C_R   0.019504 0.549388 0.527975 0.025745
C26   C     C_R   0.969900 0.552366 0.475270 0.019724
C27   C     C_R   0.519514 0.049388 0.527971 0.025634
C28   C     C_R   0.469909 0.052365 0.475267 0.019703
C29   C     C_R   0.045820 0.434632 0.548659 -0.069890
C30   C     C_R   0.933951 0.443821 0.460210 -0.077200
C31   C     C_R   0.545832 0.934634 0.548655 -0.070311
C32   C     C_R   0.433962 0.943818 0.460207 -0.076396
C33   C     C_R   0.010518 0.327969 0.533333 -0.094045
C34   C     C_R   0.952968 0.332677 0.490461 -0.093022
C35   C     C_R   0.510534 0.827969 0.533326 -0.094302
C36   C     C_R   0.452983 0.832674 0.490454 -0.092306
C37   C     C_2   0.239907 0.904641 0.925885 -0.032751
C38   C     C_2   0.760436 0.903234 0.073843 -0.038379
C39   C     C_2   0.742361 0.409453 0.923839 -0.023256
C40   C     C_2   0.260723 0.404288 0.073700 -0.028099
C41   C     C_2   0.248324 0.894498 0.086029 0.235578
C42   C     C_2   0.752349 0.893213 0.913753 0.227317
C43   C     C_2   0.748373 0.400050 0.084461 0.226082
C44   C     C_2   0.251520 0.392984 0.913948 0.219298
C45   C     C_R   0.212166 0.834344 0.639709 0.549206
C46   C     C_R   0.787720 0.834711 0.360220 0.549725
C47   C     C_R   0.712167 0.334345 0.639709 0.546579
C48   C     C_R   0.287718 0.334714 0.360220 0.550918
C49   C     C_2   0.193762 0.926829 0.046735 -0.084258
C50   C     C_2   0.806389 0.927212 0.953179 -0.079927
C51   C     C_2   0.697461 0.443876 0.043686 -0.117561
C52   C     C_2   0.306940 0.422197 0.952607 -0.109349
C53   C     C_2   0.186896 0.893497 0.973043 -0.086808
C54   C     C_2   0.813655 0.894210 0.026939 -0.053914
C55   C     C_2   0.688904 0.412416 0.970435 -0.090812
C56   C     C_2   0.313353 0.388709 0.026542 -0.075572
C57   C     C_2   0.979250 0.666523 0.909432 0.231856
C58   C     C_2   0.999119 0.656413 0.079637 0.277299
C59   C     C_2   0.508608 0.152937 0.925521 0.281723
C60   C     C_2   0.517135 0.172991 0.087883 0.284133
C61   C     C_2   0.953854 0.617140 0.030489 0.243873
C62   C     C_2   0.979946 0.581561 0.960539 0.221251
C63   C     C_2   0.534882 0.079775 0.044798 0.221289
C64   C     C_2   0.555739 0.106936 0.970876 0.232026
C65   C     C_R   0.060163 0.651453 0.636762 0.519886
C66   C     C_R   0.938520 0.651619 0.362778 0.522690
C67   C     C_R   0.560167 0.151453 0.636762 0.519475
C68   C     C_R   0.438522 0.151619 0.362778 0.520272
C69   C     C_R   0.238725 0.463318 0.849809 0.571832
C70   C     C_R   0.761251 0.464170 0.150124 0.601902
C71   C     C_R   0.738970 0.962886 0.849525 0.599572
C72   C     C_R   0.261252 0.963608 0.150233 0.574912
C73   C     C_R   0.225984 0.872034 0.853451 0.559801
C74   C     C_R   0.774259 0.871561 0.146358 0.575254
C75   C     C_R   0.726514 0.373145 0.852728 0.574065
C76   C     C_R   0.274098 0.372168 0.146458 0.562891
C77   C     C_R   0.025769 0.652924 0.847988 0.581575
C78   C     C_R   0.973538 0.652554 0.151400 0.668313
C79   C     C_R   0.528536 0.151835 0.850747 0.584667
C80   C     C_R   0.472623 0.153623 0.150285 0.645172
C81   C     C_2   0.230014 0.862500 0.565311 -0.054383
C82   C     C_2   0.769280 0.864750 0.433651 -0.050861
C83   C     C_2   0.730014 0.362499 0.565310 -0.053630
C84   C     C_2   0.269275 0.364757 0.433649 -0.051065
C85   C     C_2   0.233132 0.884028 0.409054 0.223632
C86   C     C_2   0.765780 0.886736 0.589699 0.225416
C87   C     C_2   0.733130 0.384024 0.409051 0.223199
C88   C     C_2   0.265777 0.386745 0.589693 0.224663
C89   C     C_2   0.276782 0.813199 0.445823 -0.173935
C90   C     C_2   0.720905 0.819103 0.552450 -0.168402
C91   C     C_2   0.776779 0.313194 0.445821 -0.174175
C92   C     C_2   0.220901 0.319111 0.552447 -0.168518
Cr1   Cr    Cr6+3 0.113970 0.508630 0.747920 1.071144
Cr2   Cr    Cr6+3 0.886030 0.508630 0.252080 1.067807
Cr3   Cr    Cr6+3 0.613970 0.008630 0.747920 1.068732
Cr4   Cr    Cr6+3 0.386030 0.008630 0.252080 1.077404
Cr5   Cr    Cr6+3 0.269200 0.666740 0.749850 1.090364
Cr6   Cr    Cr6+3 0.730800 0.666740 0.250150 1.108011
Cr7   Cr    Cr6+3 0.769200 0.166740 0.749850 1.098401
Cr8   Cr    Cr6+3 0.230800 0.166740 0.250150 1.093330
Cr9   Cr    Cr6+3 0.112300 0.820070 0.749800 1.034126
Cr10  Cr    Cr6+3 0.887700 0.820070 0.250200 1.049136
Cr11  Cr    Cr6+3 0.612300 0.320070 0.749800 1.047025
Cr12  Cr    Cr6+3 0.387700 0.320070 0.250200 1.061327
H1    H     H_    0.325212 0.784038 0.420869 0.086076
H2    H     H_    0.671074 0.793256 0.575801 0.085572
H3    H     H_    0.825209 0.284032 0.420866 0.085273
H4    H     H_    0.171070 0.293263 0.575798 0.085826
H5    H     H_    0.134628 0.871076 0.955930 0.155534
H6    H     H_    0.866266 0.874697 0.044296 0.193783
H7    H     H_    0.635476 0.402558 0.953202 0.159999
H8    H     H_    0.365057 0.362306 0.043740 0.196492
H9    H     H_    0.292353 0.928918 0.941299 0.162763
H10   H     H_    0.707535 0.922690 0.058235 0.137095
H11   H     H_    0.796102 0.421342 0.939341 0.144088
H12   H     H_    0.208862 0.432321 0.058171 0.168782
H13   H     H_    0.210974 0.948510 0.544531 0.096796
H14   H     H_    0.788119 0.951239 0.453532 0.098477
H15   H     H_    0.710974 0.448508 0.544530 0.096972
H16   H     H_    0.288112 0.451249 0.453529 0.098587
H17   H     H_    0.983636 0.082944 0.434820 0.107623
H18   H     H_    0.069629 0.071903 0.531150 0.096490
H19   H     H_    0.483649 0.582941 0.434810 0.108953
H20   H     H_    0.569640 0.571900 0.531142 0.096398
H21   H     H_    0.924382 0.902394 0.400662 0.163246
H22   H     H_    0.087943 0.885855 0.590708 0.159128
H23   H     H_    0.424388 0.402395 0.400660 0.163380
H24   H     H_    0.587948 0.385855 0.590706 0.158787
H25   H     H_    0.890330 0.447058 0.426333 0.139047
H26   H     H_    0.090753 0.428299 0.581142 0.141952
H27   H     H_    0.390339 0.947053 0.426330 0.138567
H28   H     H_    0.590764 0.928305 0.581140 0.141994
H29   H     H_    0.025870 0.243861 0.557952 0.107245
H30   H     H_    0.924167 0.250305 0.480106 0.110697
H31   H     H_    0.525888 0.743861 0.557943 0.106810
H32   H     H_    0.424182 0.750301 0.480098 0.110778
H33   H     H_    0.153873 0.988717 0.067131 0.160433
H34   H     H_    0.845567 0.990724 0.932855 0.161780
H35   H     H_    0.660717 0.512194 0.063165 0.177494
H36   H     H_    0.347656 0.482048 0.931620 0.158735
O1    O     O_R   0.043230 0.549300 0.667990 -0.507974
O2    O     O_R   0.956770 0.549300 0.332010 -0.499359
O3    O     O_R   0.543230 0.049300 0.667990 -0.508057
O4    O     O_R   0.456770 0.049300 0.332010 -0.498517
O5    O     O_R   0.262920 0.788600 0.824420 -0.483809
O6    O     O_R   0.737080 0.788600 0.175580 -0.476174
O7    O     O_R   0.762920 0.288600 0.824420 -0.480001
O8    O     O_R   0.237080 0.288600 0.175580 -0.485140
O9    O     O_R   0.167530 0.905110 0.830340 -0.490824
O10   O     O_R   0.832470 0.905110 0.169660 -0.495420
O11   O     O_R   0.667530 0.405110 0.830340 -0.494243
O12   O     O_R   0.332470 0.405110 0.169660 -0.483504
O13   O     O_R   0.054010 0.748440 0.822860 -0.518828
O14   O     O_R   0.945990 0.748440 0.177140 -0.492234
O15   O     O_R   0.554010 0.248440 0.822860 -0.497858
O16   O     O_R   0.445990 0.248440 0.177140 -0.467940
O17   O     O_3   0.165160 0.665150 0.749190 -0.310934
O18   O     O_3   0.834840 0.665150 0.250810 -0.309108
O19   O     O_3   0.665160 0.165150 0.749190 -0.300847
O20   O     O_3   0.334840 0.165150 0.250810 -0.323005
O21   O     O_R   0.178620 0.457600 0.674100 -0.575357
O22   O     O_R   0.821380 0.457600 0.325900 -0.578679
O23   O     O_R   0.678620 0.957600 0.674100 -0.578379
O24   O     O_R   0.321380 0.957600 0.325900 -0.575121
O25   O     O_R   0.284680 0.542100 0.669460 -0.416890
O26   O     O_R   0.715320 0.542100 0.330540 -0.416772
O27   O     O_R   0.784680 0.042100 0.669460 -0.418954
O28   O     O_R   0.215320 0.042100 0.330540 -0.416071
O29   O     O_R   0.262860 0.790390 0.676650 -0.430996
O30   O     O_R   0.737140 0.790390 0.323350 -0.432035
O31   O     O_R   0.762860 0.290390 0.676650 -0.433360
O32   O     O_R   0.237140 0.290390 0.323350 -0.430677
O33   O     O_R   0.167460 0.907030 0.670940 -0.554497
O34   O     O_R   0.832540 0.907030 0.329060 -0.560364
O35   O     O_R   0.667460 0.407030 0.670940 -0.557158
O36   O     O_R   0.332540 0.407030 0.329060 -0.557672
O37   O     O_R   0.053950 0.750220 0.675100 -0.510302
O38   O     O_R   0.946050 0.750220 0.324900 -0.515833
O39   O     O_R   0.553950 0.250220 0.675100 -0.509813
O40   O     O_R   0.446050 0.250220 0.324900 -0.516567
O41   O     O_R   0.043300 0.547370 0.827390 -0.434791
O42   O     O_R   0.956700 0.547370 0.172610 -0.482366
O43   O     O_R   0.543300 0.047370 0.827390 -0.465522
O44   O     O_R   0.456700 0.047370 0.172610 -0.450162
O45   O     O_R   0.178690 0.455820 0.821860 -0.441187
O46   O     O_R   0.821310 0.455820 0.178140 -0.436484
O47   O     O_R   0.678690 0.955820 0.821860 -0.423988
O48   O     O_R   0.321310 0.955820 0.178140 -0.449260
O49   O     O_R   0.284750 0.540170 0.828860 -0.541722
O50   O     O_R   0.715250 0.540170 0.171140 -0.536529
O51   O     O_R   0.784750 0.040170 0.828860 -0.543296
O52   O     O_R   0.215250 0.040170 0.171140 -0.538994
Cl1   Cl    Cl    0.308190 0.779157 0.059633 -0.568208
Cl2   Cl    Cl    0.693680 0.775794 0.940086 -0.608877
Cl3   Cl    Cl    0.803077 0.276732 0.059080 -0.613838
Cl4   Cl    Cl    0.190183 0.280413 0.941389 -0.579194
O53   O     O_3   0.883597 0.604257 0.047629 -0.690988
H37   H     H_    0.859248 0.575847 0.004853 0.339655
O54   O     O_3   0.015870 0.472510 0.952265 -0.653700
H38   H     H_    0.011551 0.425580 0.997284 0.355015
O55   O     O_3   0.527487 0.959672 0.066902 -0.662129
H39   H     H_    0.541656 0.905797 0.026916 0.364629
O56   O     O_3   0.623006 0.082027 0.947419 -0.700819
H40   H     H_    0.650789 0.059562 0.989156 0.324498
O57   O     O_3   0.069478 0.678637 0.067356 -0.727119
H41   H     H_    0.079122 0.686998 0.015832 0.324977
O58   O     O_3   0.943324 0.774856 0.920976 -0.749608
H42   H     H_    0.945639 0.824704 0.876971 0.334405
O59   O     O_3   0.531296 0.293762 0.070200 -0.701952
H43   H     H_    0.573531 0.296889 0.039335 0.309016
O60   O     O_3   0.441942 0.183927 0.948214 -0.725134
H44   H     H_    0.415806 0.211351 0.906166 0.315103
O61   O     O_3   0.291716 0.677077 0.549993 -0.657694
H45   H     H_    0.316898 0.633021 0.511466 0.329017
O62   O     O_3   0.707658 0.679465 0.450331 -0.658212
H46   H     H_    0.683001 0.635659 0.489437 0.325681
O63   O     O_3   0.791713 0.177074 0.549993 -0.657616
H47   H     H_    0.816893 0.133015 0.511465 0.328918
O64   O     O_3   0.207655 0.179469 0.450330 -0.658570
H48   H     H_    0.182997 0.135664 0.489436 0.325688
O65   O     O_3   0.162999 0.892009 0.427029 -0.690244
H49   H     H_    0.148742 0.814217 0.450301 0.320314
O66   O     O_3   0.835969 0.894809 0.571021 -0.691588
H50   H     H_    0.849971 0.819444 0.545338 0.317160
O67   O     O_3   0.662997 0.392003 0.427024 -0.690240
H51   H     H_    0.648740 0.314209 0.450294 0.319985
O68   O     O_3   0.335965 0.394821 0.571013 -0.691598
H52   H     H_    0.349968 0.319456 0.545329 0.317169

loop_
_geom_bond_atom_site_label_1
_geom_bond_atom_site_label_2
_ccdc_geom_bond_type
C7    C83   D    
O56   H40   S    
C79   O43   A    
Cr3   O3    S    
C6    C82   D    
Cr7   O19   S    
Cr8   O32   S    
O55   H39   S    
C14   C18   A    
Cr9   O33   S    
C35   C36   A    
Cr6   O50   S    
C67   O3    A    
C2    O22   A    
C3    O27   A    
C57   C62   D    
Cr12  O36   S    
C40   H12   S    
O57   H41   S    
C15   C19   A    
C66   O38   A    
C12   C23   A    
C19   H19   S    
C59   C64   D    
C50   C54   S    
C60   C63   D    
Cr3   O19   S    
C32   C36   A    
C14   C21   A    
C16   C20   A    
Cr12  O20   S    
C62   O54   S    
C87   C91   D    
C38   H10   S    
Cr5   O25   S    
C9    C22   A    
C88   O68   S    
C37   H9    S    
C4    O24   A    
C34   H30   S    
C53   H5    S    
C29   C33   A    
C11   C24   A    
C65   O1    A    
C54   H6    S    
C43   Cl3   S    
C83   H15   S    
C42   Cl2   S    
Cr4   O48   S    
C9    C66   S    
C72   O48   A    
C41   Cl1   S    
C77   O13   A    
C48   O32   A    
Cr1   O41   S    
C92   H4    S    
C39   C55   D    
C6    O62   S    
Cr6   O18   S    
C75   O11   A    
C87   O67   S    
C17   C18   A    
C77   O41   A    
C23   C24   A    
C46   O34   A    
C59   C79   S    
C33   H29   S    
C8    C92   S    
C39   C75   S    
C60   O59   S    
Cr2   O22   S    
Cr11  O39   S    
C61   C62   S    
Cr11  O11   S    
C37   C53   D    
C44   C52   D    
C58   C61   D    
Cr5   O49   S    
Cr9   O17   S    
O54   H38   S    
Cr2   O18   S    
C46   C82   S    
C21   C22   A    
C3    C86   S    
C79   O15   A    
Cr10  O18   S    
Cr8   O52   S    
Cr4   O44   S    
C36   H32   S    
C41   C49   D    
C59   O60   S    
C9    C26   A    
C80   O16   A    
Cr7   O27   S    
Cr11  O19   S    
C10   C21   A    
C25   C29   A    
C12   C67   S    
C44   Cl4   S    
C30   C34   A    
C12   C27   A    
Cr3   O47   S    
O58   H42   S    
Cr2   O2    S    
C88   C92   D    
C28   C32   A    
C90   H2    S    
O66   H50   S    
O59   H43   S    
C86   C90   D    
C61   O53   S    
O64   H48   S    
C85   C89   D    
C78   O14   A    
C4    C85   S    
Cr6   O6    S    
C58   O57   S    
C40   C56   D    
O63   H47   S    
O61   H45   S    
C27   C31   A    
C68   O40   A    
Cr4   O24   S    
C73   O5    A    
C78   O42   A    
Cr6   O30   S    
O62   H46   S    
C18   H18   S    
O60   H44   S    
C31   H28   S    
C57   C77   S    
Cr4   O4    S    
O65   H49   S    
C5    C81   D    
Cr8   O20   S    
O68   H52   S    
C38   C54   D    
Cr9   O13   S    
C84   H16   S    
C5    O61   S    
Cr11  O35   S    
O67   H51   S    
C2    C87   S    
C76   O12   A    
Cr12  O16   S    
Cr1   O17   S    
C16   H24   S    
Cr6   O26   S    
C46   O30   A    
C73   O9    A    
Cr10  O10   S    
C41   C72   S    
Cr8   O8    S    
C81   H13   S    
C17   H17   S    
C15   C24   A    
Cr4   O20   S    
C64   O56   S    
C42   C50   D    
Cr1   O21   S    
C26   C30   A    
C16   C23   A    
C39   H11   S    
Cr10  O38   S    
C31   C35   A    
Cr10  O34   S    
C86   O66   S    
C82   H14   S    
C35   H31   S    
C15   H23   S    
C69   O45   A    
C7    C91   S    
Cr1   O1    S    
C11   C68   S    
C10   C25   A    
C49   H33   S    
C38   C74   S    
C10   C65   S    
Cr11  O15   S    
C2    O26   A    
C60   C80   S    
C63   O55   S    
Cr3   O43   S    
C55   H7    S    
C1    O25   A    
C8    C84   D    
C4    O28   A    
Cr5   O5    S    
C74   O6    A    
C70   O50   A    
C45   C81   S    
Cr2   O46   S    
C71   O47   A    
C63   C64   S    
C69   O49   A    
C45   O29   A    
C47   O31   A    
C50   H34   S    
C51   H35   S    
C66   O2    A    
C3    O23   A    
C43   C70   S    
C30   H25   S    
C57   O58   S    
C37   C73   S    
C14   H22   S    
C13   C17   A    
Cr3   O23   S    
Cr8   O28   S    
C75   O7    A    
Cr12  O12   S    
C19   C20   A    
C25   C26   A    
Cr5   O29   S    
Cr7   O7    S    
C8    O64   S    
C6    C90   S    
Cr10  O14   S    
C72   O52   A    
Cr7   O51   S    
C43   C51   D    
Cr12  O40   S    
C65   O37   A    
C11   C28   A    
C1    C88   S    
C49   C53   S    
Cr9   O9    S    
C42   C71   S    
C52   H36   S    
C33   C34   A    
C13   C22   A    
C68   O4    A    
C51   C55   S    
C80   O44   A    
O53   H37   S    
C5    C89   S    
C20   H20   S    
Cr9   O37   S    
C58   C78   S    
C1    O21   A    
C47   C83   S    
C7    O63   S    
C29   H26   S    
C48   C84   S    
C45   O33   A    
Cr7   O31   S    
C76   O8    A    
C40   C76   S    
C89   H1    S    
C27   C28   A    
C44   C69   S    
C74   O10   A    
C67   O39   A    
Cr2   O42   S    
C71   O51   A    
C70   O46   A    
C85   O65   S    
C13   H21   S    
C56   H8    S    
C32   H27   S    
C47   O35   A    
C52   C56   S    
Cr5   O17   S    
C48   O36   A    
C91   H3    S    
Cr1   O45   S    
