data_mof_unit_56256.cif
_audit_creation_date              2012-12-10T18:06:38-0500
_audit_creation_method            fapswitch 2.2
_symmetry_space_group_name_H-M    P1
_symmetry_Int_Tables_number       1
_space_group_crystal_system       triclinic
_cell_length_a                    12.593547
_cell_length_b                    13.12505
_cell_length_c                    15.500408
_cell_angle_alpha                 83.16299
_cell_angle_beta                  99.046252
_cell_angle_gamma                 96.80311
_cell_volume                      2499.18572974

loop_
_atom_site_label
_atom_site_type_symbol
_atom_type_description
_atom_site_fract_x
_atom_site_fract_y
_atom_site_fract_z
_atom_type_partial_charge
C1    C     C_R   0.442952 0.308567 0.508961 0.836860
C2    C     C_R   0.621622 0.379184 0.936493 0.156111
C3    C     C_R   0.535032 0.438016 0.901010 0.093810
C4    C     C_R   0.434474 0.511168 0.336306 0.861387
C5    C     C_R   0.692120 0.354899 0.882290 -0.252648
C6    C     C_R   0.676683 0.387178 0.792264 -0.007079
C7    C     C_R   0.529043 0.480613 0.813945 -0.279811
C8    C     C_R   0.622450 0.940119 0.358015 -0.136781
C9    C     C_R   0.581743 0.800894 0.467780 -0.041446
C10   C     C_R   0.349787 0.160224 0.588146 -0.212684
C11   C     C_R   0.337751 0.055158 0.613676 -0.156017
C12   C     C_R   0.417172 0.466382 0.100413 0.098352
C13   C     C_R   0.390036 0.988724 0.575179 -0.152560
C14   C     C_R   0.452551 0.026813 0.507352 0.078703
C15   C     C_R   0.452046 0.131310 0.473931 -0.001558
C16   C     C_R   0.555921 0.691531 0.488839 0.857335
C17   C     C_R   0.515642 0.965013 0.471563 -0.000141
C18   C     C_R   0.563149 0.003331 0.395107 0.038257
C19   C     C_R   0.548078 0.102879 0.355872 0.569339
C20   C     C_R   0.494447 0.166579 0.395481 -0.316284
C21   C     C_R   0.532529 0.865707 0.509732 -0.217126
C22   C     C_R   0.630498 0.838401 0.393657 -0.230924
C23   C     C_R   0.320893 0.510866 0.063260 0.181551
C24   C     C_R   0.409619 0.198751 0.520256 -0.069887
C25   C     C_R   0.140750 0.650407 0.617222 -0.088143
C26   C     C_R   0.758129 0.371723 0.403818 -0.034654
C27   C     C_R   0.854187 0.335583 0.392557 -0.038692
C28   C     C_R   0.563522 0.482293 0.664013 0.849223
C29   C     C_R   0.951560 0.384161 0.431066 -0.269640
C30   C     C_R   0.952915 0.467035 0.481861 0.012746
C31   C     C_R   0.853216 0.495124 0.496238 0.247102
C32   C     C_R   0.049008 0.520339 0.521186 -0.021155
C33   C     C_R   0.044421 0.597008 0.578217 0.126390
C34   C     C_R   0.481178 0.429791 0.045808 0.061728
C35   C     C_R   0.944058 0.616897 0.596004 -0.301541
C36   C     C_R   0.850337 0.567805 0.554562 -0.189273
C37   C     C_R   0.150212 0.501123 0.504952 -0.069159
C38   C     C_R   0.238315 0.624162 0.599846 -0.045160
C39   C     C_R   0.391689 0.509216 0.243342 -0.059703
C40   C     C_R   0.594537 0.452418 0.758044 -0.105482
C41   C     C_R   0.257693 0.547725 0.117323 -0.208260
C42   C     C_R   0.292928 0.546792 0.207224 -0.190744
C43   C     C_R   0.451443 0.467571 0.190391 -0.261103
C44   C     C_R   0.142799 0.734434 0.673670 0.109296
C45   C     C_R   0.458656 0.455339 0.954133 0.078451
C46   C     C_R   0.094214 0.824823 0.640273 -0.154807
C47   C     C_R   0.096112 0.903628 0.693918 -0.158770
C48   C     C_R   0.148084 0.893585 0.780632 -0.124278
C49   C     C_R   0.198324 0.804750 0.813797 -0.130383
C50   C     C_R   0.196004 0.725512 0.760505 -0.172451
C51   C     C_R   0.853833 0.244362 0.345093 0.115604
C52   C     C_R   0.803161 0.242472 0.257865 -0.066347
C53   C     C_R   0.805475 0.156524 0.212942 -0.058624
C54   C     C_R   0.858086 0.072194 0.254769 -0.143713
C55   C     C_R   0.908408 0.073410 0.341665 -0.132720
C56   C     C_R   0.359645 0.495308 0.918447 -0.237391
C57   C     C_R   0.906744 0.159232 0.386654 -0.155343
C58   C     C_R   0.742498 0.345165 0.736435 0.130430
C59   C     C_R   0.695110 0.270225 0.680532 -0.080682
C60   C     C_R   0.757716 0.229211 0.628843 -0.114867
C61   C     C_R   0.868166 0.261373 0.633833 -0.126338
C62   C     C_R   0.916029 0.335089 0.690007 -0.131340
C63   C     C_R   0.853516 0.376905 0.741297 -0.155819
C64   C     C_R   0.290821 0.520655 0.972553 -0.249860
C65   C     C_R   0.567375 0.369574 0.079702 -0.216438
C66   C     C_R   0.635540 0.343737 0.025342 -0.224135
F1    F     F_    0.584876 0.138805 0.279140 -0.705397
H1    H     H_    0.216097 0.552048 0.943152 0.143848
H2    H     H_    0.314165 0.662989 0.628340 0.135024
H3    H     H_    0.472336 0.536124 0.788037 0.158150
H4    H     H_    0.936611 0.670488 0.642080 0.171014
H5    H     H_    0.162012 0.448083 0.460334 0.134875
H6    H     H_    0.681295 0.334934 0.375362 0.156506
H7    H     H_    0.024184 0.353542 0.421858 0.144416
H8    H     H_    0.776688 0.586903 0.571041 0.214628
H9    H     H_    0.700561 0.297419 0.053131 0.138243
H10   H     H_    0.182980 0.580159 0.089709 0.136753
H11   H     H_    0.244674 0.577942 0.247827 0.161516
H12   H     H_    0.756085 0.306609 0.909288 0.140107
H13   H     H_    0.527948 0.441126 0.219896 0.158071
H14   H     H_    0.332161 0.504856 0.848695 0.144248
H15   H     H_    0.581394 0.338178 0.147574 0.175461
H16   H     H_    0.054600 0.833930 0.572932 0.134319
H17   H     H_    0.058010 0.972823 0.668072 0.130272
H18   H     H_    0.149917 0.954871 0.821952 0.128741
H19   H     H_    0.238953 0.797193 0.880835 0.134167
H20   H     H_    0.234904 0.656989 0.786955 0.119798
H21   H     H_    0.763009 0.307757 0.224631 0.111473
H22   H     H_    0.766287 0.154849 0.145790 0.122289
H23   H     H_    0.668022 0.787559 0.360111 0.157724
H24   H     H_    0.859401 0.005704 0.219963 0.125575
H25   H     H_    0.948823 0.007909 0.374153 0.133362
H26   H     H_    0.946264 0.159116 0.453969 0.118366
H27   H     H_    0.609785 0.244096 0.676821 0.115038
H28   H     H_    0.720665 0.172367 0.585106 0.135092
H29   H     H_    0.916656 0.229426 0.594028 0.125309
H30   H     H_    0.001478 0.360221 0.693450 0.137165
H31   H     H_    0.891356 0.434137 0.784437 0.131066
H32   H     H_    0.657884 0.967443 0.299187 0.191921
H33   H     H_    0.502882 0.834068 0.569953 0.129692
H34   H     H_    0.316132 0.211738 0.623863 0.154422
H35   H     H_    0.378011 0.908100 0.598596 0.131777
H36   H     H_    0.291801 0.025637 0.666232 0.158805
H37   H     H_    0.484638 0.243463 0.363311 0.175935
N1    N     N_R   0.239390 0.551900 0.544730 -0.108071
N2    N     N_R   0.759950 0.448600 0.455730 -0.135822
O1    O     O_R   0.374950 0.371210 0.521360 -0.613838
O2    O     O_R   0.542050 0.338030 0.492790 -0.614625
O3    O     O_R   0.368720 0.526070 0.390200 -0.611016
O4    O     O_R   0.535820 0.492890 0.361630 -0.622243
O5    O     O_R   0.457950 0.661970 0.507210 -0.605935
O6    O     O_R   0.625050 0.628790 0.478640 -0.636227
O7    O     O_R   0.464180 0.507110 0.638370 -0.615328
O8    O     O_R   0.631280 0.473930 0.609800 -0.619924
Zn1   Zn    Zn3+2 0.388420 0.522150 0.519080 0.934105
Zn2   Zn    Zn3+2 0.611580 0.477850 0.480920 0.928437

loop_
_geom_bond_atom_site_label_1
_geom_bond_atom_site_label_2
_ccdc_geom_bond_type
C4    O3    A    
C27   C29   A    
C41   C42   A    
C6    C58   S    
C19   C20   A    
C26   N2    A    
C7    H3    S    
C61   H29   S    
C56   H14   S    
C53   C54   A    
C12   C23   A    
C26   C27   A    
C55   H25   S    
C64   H1    S    
C9    C16   S    
C63   H31   S    
C3    C7    A    
C31   C36   A    
C41   H10   S    
C30   C31   A    
C9    C22   A    
C28   C40   S    
C26   H6    S    
C34   C65   A    
C18   C19   A    
C46   C47   A    
C35   C36   A    
C45   C56   A    
C44   C46   A    
C8    C22   A    
C7    C40   A    
C56   C64   A    
C19   F1    S    
C51   C57   A    
C59   H27   S    
C5    H12   S    
C38   H2    S    
C35   H4    S    
C59   C60   A    
C57   H26   S    
C13   C14   A    
C14   C17   A    
C25   C44   S    
C27   C51   S    
C39   C42   A    
C15   C20   A    
C51   C52   A    
C23   C64   A    
C52   H21   S    
C28   O7    A    
C21   H33   S    
C39   C43   A    
C29   H7    S    
C10   C24   A    
C58   C59   A    
C47   H17   S    
C3    C45   A    
C8    C18   A    
N2    Zn2   S    
C60   C61   A    
C37   N1    A    
C29   C30   A    
C36   H8    S    
C25   C38   A    
C62   H30   S    
O5    Zn1   S    
C47   C48   A    
C4    C39   S    
C66   H9    S    
C62   C63   A    
C17   C18   A    
C22   H23   S    
C34   C45   A    
C32   C37   A    
O1    Zn1   S    
C28   O8    A    
C50   H20   S    
C1    O1    A    
C15   C24   A    
C42   H11   S    
C55   C57   A    
C53   H22   S    
C31   N2    A    
C6    C40   A    
C2    C5    A    
C12   C34   A    
O4    Zn2   S    
O6    Zn2   S    
C52   C53   A    
C16   O6    A    
C44   C50   A    
C58   C63   A    
C4    O4    A    
C54   C55   A    
C48   C49   A    
C48   H18   S    
C49   H19   S    
C8    H32   S    
C10   H34   S    
C2    C66   A    
O8    Zn2   S    
C20   H37   S    
C12   C43   A    
C23   C41   A    
N1    Zn1   S    
C32   C33   A    
O2    Zn2   S    
C38   N1    A    
C2    C3    A    
C43   H13   S    
C54   H24   S    
C30   C32   A    
C11   C13   A    
C9    C21   A    
C65   H15   S    
C5    C6    A    
C33   C35   A    
C65   C66   A    
C61   C62   A    
C17   C21   A    
C10   C11   A    
O3    Zn1   S    
C1    O2    A    
C46   H16   S    
C60   H28   S    
C1    C24   S    
C49   C50   A    
C37   H5    S    
C14   C15   A    
C11   H36   S    
C13   H35   S    
C16   O5    A    
C25   C33   A    
O7    Zn1   S    
