data_mof_unit_8478.cif
_audit_creation_date              2012-12-10T21:00:38-0500
_audit_creation_method            fapswitch 2.2
_symmetry_space_group_name_H-M    P1
_symmetry_Int_Tables_number       1
_space_group_crystal_system       triclinic
_cell_length_a                    18.146021
_cell_length_b                    18.167104
_cell_length_c                    18.310488
_cell_angle_alpha                 119.818102
_cell_angle_beta                  89.983579
_cell_angle_gamma                 120.018762
_cell_volume                      4279.3681947

loop_
_atom_site_label
_atom_site_type_symbol
_atom_type_description
_atom_site_fract_x
_atom_site_fract_y
_atom_site_fract_z
_atom_type_partial_charge
Br1   Br    Br    0.197298 0.911297 0.905565 -0.627436
Br2   Br    Br    0.802254 0.089561 0.095989 -0.620313
Br3   Br    Br    0.519184 0.643137 0.432906 -0.585541
Br4   Br    Br    0.479756 0.355426 0.565849 -0.594330
C1    C     C_R   0.110691 0.220021 0.609933 0.803269
C2    C     C_3   0.450515 0.897510 0.947513 0.029533
C3    C     C_3   0.445749 0.032115 0.019465 -0.106320
C4    C     C_3   0.554256 0.967851 0.980655 -0.120770
C5    C     C_3   0.417506 0.460900 0.452707 -0.226846
C6    C     C_3   0.582309 0.538792 0.547098 -0.230165
C7    C     C_3   0.462060 0.401663 0.428635 -0.219687
C8    C     C_3   0.537770 0.598070 0.571145 -0.222958
C9    C     C_3   0.550837 0.499397 0.449157 -0.043041
C10   C     C_3   0.449007 0.500342 0.550668 -0.044262
C11   C     C_3   0.507106 0.558025 0.472667 0.303304
C12   C     C_R   0.889325 0.779968 0.390082 0.804997
C13   C     C_3   0.492679 0.441638 0.527090 0.299936
C14   C     C_R   0.129334 0.184092 0.837648 -0.136900
C15   C     C_R   0.872267 0.823731 0.164212 -0.125768
C16   C     C_R   0.392918 0.781173 0.888324 0.768790
C17   C     C_R   0.607082 0.218818 0.111730 0.771671
C18   C     C_R   0.113998 0.136077 0.746054 -0.143099
C19   C     C_R   0.887714 0.870298 0.255705 -0.154136
C20   C     C_R   0.033255 0.097599 0.689436 0.147996
C21   C     C_R   0.966161 0.902318 0.310671 0.146982
C22   C     C_R   0.966649 0.104179 0.724776 -0.182344
C23   C     C_3   0.924737 0.403482 0.444793 -0.144974
C24   C     C_R   0.030203 0.890161 0.273798 -0.174448
C25   C     C_R   0.981228 0.150487 0.816078 -0.226512
C26   C     C_R   0.015178 0.844528 0.182495 -0.225553
C27   C     C_R   0.062650 0.191368 0.873852 0.303870
C28   C     C_R   0.935407 0.809268 0.126553 0.301263
C29   C     C_R   0.963891 0.943316 0.536595 -0.245667
C30   C     C_R   0.036178 0.056631 0.463494 -0.245716
C31   C     C_R   0.945578 0.892293 0.444472 -0.055903
C32   C     C_R   0.054565 0.107679 0.555627 -0.056133
C33   C     C_R   0.981836 0.949665 0.407199 -0.003824
C34   C     C_3   0.075341 0.596556 0.555176 -0.145124
C35   C     C_R   0.018203 0.050296 0.592930 -0.003804
C36   C     C_R   0.642086 0.604369 0.797914 -0.102747
C37   C     C_R   0.352768 0.395040 0.202228 -0.103693
C38   C     C_R   0.591923 0.554567 0.836357 -0.152897
C39   C     C_R   0.397594 0.445616 0.162536 -0.146052
C40   C     C_R   0.110826 0.500667 0.889689 0.796803
C41   C     C_R   0.889084 0.499216 0.110220 0.795104
C42   C     C_R   0.594143 0.612734 0.924230 0.095192
C43   C     C_R   0.407083 0.391582 0.079978 0.051393
C44   C     C_R   0.647674 0.722376 0.973725 0.231809
C45   C     C_3   0.446342 0.966345 0.924455 -0.133796
C46   C     C_R   0.369877 0.284739 0.036261 0.275641
C47   C     C_R   0.698288 0.771280 0.934296 -0.181158
C48   C     C_R   0.326141 0.235554 0.077936 -0.140885
C49   C     C_R   0.695162 0.712473 0.846774 -0.155743
C50   C     C_R   0.317466 0.290361 0.160210 -0.181877
C51   C     C_R   0.593415 0.558357 0.022251 -0.235775
C52   C     C_R   0.407054 0.448349 0.983775 -0.251028
C53   C     C_R   0.550556 0.502941 0.058775 -0.053819
C54   C     C_R   0.449722 0.501350 0.945163 -0.057378
C55   C     C_R   0.456429 0.448484 0.040723 -0.018986
C56   C     C_3   0.553668 0.033621 0.075667 -0.143983
C57   C     C_R   0.544180 0.557809 0.964864 0.023036
C58   C     C_R   0.184766 0.830107 0.008251 -0.227266
C59   C     C_R   0.815325 0.169633 0.992213 -0.231391
C60   C     C_R   0.148469 0.754939 0.026112 -0.233877
C61   C     C_R   0.851501 0.244321 0.973765 -0.236546
C62   C     C_R   0.067101 0.657832 0.966620 0.125210
C63   C     C_R   0.932624 0.341735 0.033189 0.124360
C64   C     C_R   0.392307 0.500384 0.607782 0.853467
C65   C     C_R   0.607669 0.499550 0.392187 0.853878
C66   C     C_R   0.021168 0.637291 0.890021 -0.253638
C67   C     C_3   0.550792 0.038116 0.958326 -0.187139
C68   C     C_R   0.978475 0.362993 0.110235 -0.234894
C69   C     C_R   0.057180 0.712807 0.871853 0.237573
C70   C     C_R   0.942583 0.288176 0.129185 0.232670
C71   C     C_R   0.140232 0.809177 0.930991 0.332753
C72   C     C_R   0.859651 0.191353 0.070060 0.331388
C73   C     C_R   0.979017 0.572362 0.035064 -0.274496
C74   C     C_R   0.020637 0.427103 0.964563 -0.259955
C75   C     C_R   0.945395 0.497698 0.053537 -0.059665
C76   C     C_R   0.054234 0.501803 0.946089 -0.062358
C77   C     C_R   0.966498 0.423935 0.017756 0.026402
C78   C     C_3   0.449216 0.961845 0.041794 -0.197801
C79   C     C_R   0.032972 0.575392 0.981731 0.030859
C80   C     C_R   0.393923 0.499332 0.888025 0.798901
C81   C     C_R   0.606110 0.501433 0.112723 0.812019
C82   C     C_R   0.108959 0.500155 0.607692 0.776031
C83   C     C_R   0.891066 0.499864 0.392304 0.775874
C84   C     C_3   0.021931 0.435181 0.448218 -0.123903
C85   C     C_3   0.978153 0.564862 0.551749 -0.123344
C86   C     C_3   0.045220 0.531696 0.452028 -0.200866
C87   C     C_3   0.954854 0.468350 0.547944 -0.203808
C88   C     C_3   0.948846 0.499920 0.449340 0.045881
C89   C     C_3   0.549495 0.102462 0.052608 0.033563
C90   C     C_3   0.051226 0.500121 0.550634 0.044577
C91   C     C_3   0.148879 0.262854 0.024886 -0.792736
C92   C     C_3   0.836353 0.660934 0.974843 -0.798202
C93   C     C_3   0.579464 0.796111 0.071593 -0.711519
C94   C     C_3   0.300817 0.134302 0.879542 -0.769012
C95   C     C_3   0.960263 0.732422 0.804122 -0.756204
C96   C     C_3   0.027483 0.258067 0.201043 -0.749033
H1    H     H_    0.081580 0.557962 0.412020 0.127691
H2    H     H_    0.065318 0.835537 0.155210 0.137151
H3    H     H_    0.935875 0.899897 0.565574 0.180164
H4    H     H_    0.064096 0.100013 0.434471 0.179761
H5    H     H_    0.734203 0.750788 0.816870 0.145741
H6    H     H_    0.283550 0.251669 0.191588 0.146102
H7    H     H_    0.640511 0.559237 0.730410 0.169459
H8    H     H_    0.345638 0.437119 0.265826 0.164500
H9    H     H_    0.551862 0.470621 0.797989 0.157109
H10   H     H_    0.425355 0.527162 0.196288 0.162305
H11   H     H_    0.040674 0.381872 0.406389 0.158448
H12   H     H_    0.918515 0.442165 0.588006 0.128550
H13   H     H_    0.959482 0.618241 0.593552 0.157212
H14   H     H_    0.739920 0.855102 0.971465 0.180007
H15   H     H_    0.299677 0.154843 0.047034 0.181395
H16   H     H_    0.665728 0.600282 0.036282 0.166051
H17   H     H_    0.334746 0.406801 0.970198 0.170794
H18   H     H_    0.248620 0.904093 0.053703 0.163301
H19   H     H_    0.751636 0.095414 0.946774 0.165462
H20   H     H_    0.184708 0.771454 0.085197 0.146055
H21   H     H_    0.815307 0.227209 0.914299 0.146533
H22   H     H_    0.958389 0.562064 0.843826 0.133839
H23   H     H_    0.193365 0.215220 0.879271 0.137343
H24   H     H_    0.041000 0.438535 0.156407 0.134475
H25   H     H_    0.963759 0.629448 0.062650 0.181329
H26   H     H_    0.036294 0.370323 0.937334 0.186869
H27   H     H_    0.862180 0.324183 0.398496 0.151582
H28   H     H_    0.137902 0.675853 0.601468 0.151368
H29   H     H_    0.593060 0.070573 0.924433 0.134357
H30   H     H_    0.406972 0.929364 0.075685 0.135251
H31   H     H_    0.401667 0.937734 0.861711 0.158101
H32   H     H_    0.598320 0.062172 0.138394 0.160645
H33   H     H_    0.401545 0.059511 0.036041 0.172887
H34   H     H_    0.811393 0.799598 0.123039 0.132057
H35   H     H_    0.598472 0.940481 0.964045 0.172021
H36   H     H_    0.432153 0.321218 0.369751 0.169149
H37   H     H_    0.567680 0.678531 0.629995 0.170579
H38   H     H_    0.349559 0.429672 0.414814 0.163883
H39   H     H_    0.650259 0.570003 0.584966 0.164485
H40   H     H_    0.017439 0.218770 0.983427 0.229101
H41   H     H_    0.147423 0.299064 0.094164 0.246736
H42   H     H_    0.214706 0.319151 0.026058 0.245140
H43   H     H_    0.142044 0.189892 0.002352 0.247406
H44   H     H_    0.975191 0.766367 0.014434 0.231829
H45   H     H_    0.165895 0.131103 0.719447 0.129675
H46   H     H_    0.836255 0.626041 0.905005 0.236221
H47   H     H_    0.779045 0.667898 0.977340 0.243896
H48   H     H_    0.827265 0.608248 0.993767 0.247634
H49   H     H_    0.714405 0.854155 0.102702 0.234160
H50   H     H_    0.588177 0.844320 0.143264 0.229839
H51   H     H_    0.513654 0.719733 0.039611 0.240177
H52   H     H_    0.579345 0.835335 0.040509 0.245405
H53   H     H_    0.431655 0.270490 0.936748 0.227173
H54   H     H_    0.290482 0.145924 0.827340 0.222430
H55   H     H_    0.239384 0.111253 0.899458 0.255683
H56   H     H_    0.838218 0.880411 0.283625 0.137562
H57   H     H_    0.309470 0.070204 0.850663 0.279405
H58   H     H_    0.975268 0.612185 0.740236 0.219109
H59   H     H_    0.901750 0.693793 0.822840 0.226272
H60   H     H_    0.934700 0.719084 0.740655 0.234714
H61   H     H_    0.002419 0.817310 0.856503 0.278317
H62   H     H_    0.028684 0.391056 0.260686 0.216314
H63   H     H_    0.102227 0.312724 0.227695 0.209241
H64   H     H_    0.007368 0.194014 0.130447 0.257392
H65   H     H_    0.005423 0.224652 0.240166 0.264734
H66   H     H_    0.903768 0.074260 0.681693 0.144685
H67   H     H_    0.091477 0.915565 0.315718 0.141986
H68   H     H_    0.929148 0.155569 0.842089 0.138721
N1    N     N_2   0.075790 0.241202 0.967254 -0.319274
N2    N     N_2   0.920529 0.762251 0.033417 -0.314644
N3    N     N_2   0.652451 0.783722 0.063311 -0.325501
N4    N     N_2   0.381292 0.228375 0.954046 -0.314934
N5    N     N_2   0.012124 0.689804 0.792204 -0.279327
N6    N     N_2   0.987701 0.312960 0.209870 -0.282247
O1    O     O_3   0.251620 0.500000 0.748430 -0.486947
O2    O     O_R   0.570330 0.268390 0.136490 -0.645265
O3    O     O_R   0.134680 0.268390 0.572240 -0.644433
O4    O     O_R   0.865320 0.731610 0.427760 -0.644592
O5    O     O_R   0.306670 0.731630 0.863510 -0.620180
O6    O     O_R   0.693330 0.268370 0.136490 -0.621285
O7    O     O_R   0.135450 0.439270 0.865360 -0.644019
O8    O     O_R   0.864550 0.560730 0.134640 -0.650108
O9    O     O_R   0.429670 0.560710 0.692610 -0.629961
O10   O     O_R   0.570330 0.439290 0.307390 -0.629760
O11   O     O_R   0.308540 0.439240 0.865360 -0.650299
O12   O     O_3   0.748380 0.500000 0.251570 -0.487769
O13   O     O_R   0.691460 0.560760 0.134640 -0.652853
O14   O     O_R   0.133580 0.439310 0.571150 -0.649752
O15   O     O_R   0.866420 0.560690 0.428850 -0.650008
O16   O     O_R   0.430770 0.560690 0.864590 -0.635132
O17   O     O_R   0.569230 0.439310 0.135410 -0.634412
O18   O     O_R   0.133580 0.560760 0.692610 -0.635860
O19   O     O_R   0.866420 0.439240 0.307390 -0.634756
O20   O     O_R   0.134680 0.560740 0.864590 -0.635079
O21   O     O_R   0.865320 0.439260 0.135410 -0.634891
O22   O     O_R   0.306670 0.439270 0.571150 -0.641159
O23   O     O_R   0.693330 0.560730 0.428850 -0.641675
O24   O     O_R   0.135450 0.268370 0.694460 -0.638215
O25   O     O_R   0.864550 0.731630 0.305540 -0.636065
O26   O     O_R   0.429670 0.731610 0.863510 -0.649095
Zn1   Zn    Zn3+2 0.207400 0.586780 0.791530 0.980397
Zn2   Zn    Zn3+2 0.792600 0.413220 0.208470 0.980983
Zn3   Zn    Zn3+2 0.208510 0.413230 0.792630 0.972230
Zn4   Zn    Zn3+2 0.791490 0.586770 0.207370 0.969433
Zn5   Zn    Zn3+2 0.383150 0.586740 0.791530 0.983931
Zn6   Zn    Zn3+2 0.616850 0.413260 0.208470 0.990878
Zn7   Zn    Zn3+2 0.207400 0.413250 0.618010 0.974629
Zn8   Zn    Zn3+2 0.792600 0.586750 0.381990 0.975092

loop_
_geom_bond_atom_site_label_1
_geom_bond_atom_site_label_2
_ccdc_geom_bond_type
C81   O13   A    
C94   H54   S    
O14   Zn7   S    
C82   O14   A    
H40   N1    S    
C2    C78   S    
C37   H8    S    
C95   H59   S    
C30   C33   A    
C69   C71   A    
C52   H17   S    
C41   O21   A    
O1    Zn7   S    
C83   C88   S    
C45   C67   S    
C56   H32   S    
C59   C61   A    
Br3   C11   S    
C64   O9    A    
O21   Zn2   S    
C21   C24   A    
C91   H43   S    
C45   H31   S    
C34   C85   S    
O26   Zn5   S    
C70   C72   A    
O8    Zn4   S    
C25   H68   S    
C31   C33   A    
C38   H9    S    
C20   C22   A    
C70   N6    S    
O6    Zn2   S    
C12   C31   S    
C74   C76   A    
C53   C55   A    
C51   H16   S    
C73   C79   A    
O15   Zn8   S    
C1    C32   S    
H44   N2    S    
C20   C35   S    
O10   Zn6   S    
O12   Zn2   S    
C63   C68   A    
C38   C42   A    
O2    Zn6   S    
C16   O26   A    
C58   C60   A    
C82   C90   S    
C24   H67   S    
C21   C33   S    
C62   C79   S    
C95   H61   S    
C84   H11   S    
C23   H27   S    
C17   O6    A    
C7    C13   S    
O5    Zn1   S    
C12   O4    A    
C61   C63   A    
O4    Zn8   S    
C46   C48   A    
O18   Zn1   S    
C18   H45   S    
C23   C87   S    
C39   H10   S    
C61   H21   S    
C52   C54   A    
C85   C87   S    
C14   H23   S    
C83   O15   A    
C94   N4    S    
C56   C89   S    
C54   C57   A    
C36   C38   A    
C29   H3    S    
C95   H60   S    
C68   H24   S    
C4    H35   S    
C65   O23   A    
C37   C39   A    
C10   C13   S    
C26   H2    S    
C80   O11   A    
O7    Zn3   S    
C56   C78   S    
C76   C79   A    
C3    C89   S    
C15   C28   A    
C73   H25   S    
C48   C50   A    
C41   O8    A    
C43   C46   A    
C84   C90   S    
C73   C75   A    
C92   H48   S    
O16   Zn5   S    
C85   H13   S    
C44   C47   A    
C47   H14   S    
C50   H6    S    
C42   C57   S    
Br1   C71   S    
C40   C76   S    
O1    Zn1   S    
C68   C70   A    
C75   C77   A    
C3    H33   S    
O12   Zn6   S    
C2    C4    S    
C41   C75   S    
C27   N1    S    
O20   Zn1   S    
O13   Zn4   S    
C30   H4    S    
O19   Zn2   S    
O3    Zn7   S    
C96   H65   S    
C47   C49   A    
O17   Zn6   S    
C60   C62   A    
C87   H12   S    
C83   O19   A    
C15   C19   A    
C5    C10   S    
C96   H64   S    
C86   H1    S    
C54   C80   S    
C67   H29   S    
C44   N3    S    
C59   H19   S    
C5    H38   S    
C66   H22   S    
H58   N5    S    
C86   C88   S    
C95   N5    S    
C94   H57   S    
C93   H50   S    
C17   O2    A    
C1    O3    A    
C34   C90   S    
C66   C69   A    
C93   H51   S    
O12   Zn4   S    
C23   C88   S    
C64   O22   A    
C51   C53   A    
C29   C35   A    
C85   C88   S    
C80   O16   A    
C5    C7    S    
C3    C45   S    
C92   N2    S    
C12   O25   A    
C6    C8    S    
C91   H42   S    
C36   H7    S    
C67   C89   S    
Br4   C13   S    
C8    C10   S    
C63   C77   S    
C8    C11   S    
C9    C11   S    
C96   N6    S    
O25   Zn4   S    
O9    Zn5   S    
C18   C20   A    
C58   C71   A    
C17   C89   S    
C78   H30   S    
C6    H39   S    
O1    Zn5   S    
C74   H26   S    
O24   Zn3   S    
Br2   C72   S    
C48   H15   S    
C92   H47   S    
C28   N2    S    
C94   H55   S    
C22   H66   S    
C4    C67   S    
H49   N3    S    
C82   O18   A    
C32   C35   A    
C84   C86   S    
C6    C9    S    
C93   N3    S    
C34   H28   S    
C15   H34   S    
C91   H41   S    
C1    O24   A    
H62   N6    S    
C81   O17   A    
C2    C16   S    
C34   C86   S    
C40   O20   A    
C60   H20   S    
C52   C55   A    
O12   Zn8   S    
C16   O5    A    
O11   Zn3   S    
O22   Zn7   S    
C14   C18   A    
C5    C11   S    
O1    Zn3   S    
C25   C27   A    
C7    H36   S    
C4    C56   S    
C87   C90   S    
C26   C28   A    
C7    C9    S    
C74   C77   A    
C62   C66   A    
C9    C65   S    
C51   C57   A    
H53   N4    S    
C24   C26   A    
C29   C31   A    
C93   H52   S    
C53   C81   S    
C96   H63   S    
C30   C32   A    
C19   C21   A    
C2    C45   S    
C69   N5    S    
C23   C84   S    
C37   C50   A    
C58   H18   S    
C65   O10   A    
C43   C55   S    
C42   C44   A    
C49   H5    S    
C3    C78   S    
C22   C25   A    
C36   C49   A    
C59   C72   A    
C92   H46   S    
C10   C64   S    
C8    H37   S    
O23   Zn8   S    
C46   N4    S    
C14   C27   A    
C6    C13   S    
C19   H56   S    
C39   C43   A    
C40   O7    A    
C91   N1    S    
