data_mof_unit_11133.cif
_audit_creation_date              2012-12-10T19:27:35-0500
_audit_creation_method            fapswitch 2.2
_symmetry_space_group_name_H-M    P1
_symmetry_Int_Tables_number       1
_space_group_crystal_system       triclinic
_cell_length_a                    23.365007
_cell_length_b                    10.535958
_cell_length_c                    9.809718
_cell_angle_alpha                 88.443101
_cell_angle_beta                  89.236841
_cell_angle_gamma                 89.697628
_cell_volume                      2413.75027545

loop_
_atom_site_label
_atom_site_type_symbol
_atom_type_description
_atom_site_fract_x
_atom_site_fract_y
_atom_site_fract_z
_atom_type_partial_charge
C1    C     C_R   0.500773 0.257909 0.501734 0.889696
C2    C     C_R   0.699572 0.591185 0.419813 -0.219246
C3    C     C_R   0.236331 0.450388 0.591325 0.202681
C4    C     C_R   0.758885 0.596977 0.414023 0.197181
C5    C     C_R   0.209101 0.540332 0.505075 0.311667
C6    C     C_R   0.791058 0.504366 0.485503 0.313462
C7    C     C_3   0.509344 0.032951 0.627956 0.001519
C8    C     C_3   0.492410 0.966769 0.370725 0.035200
C9    C     C_3   0.551632 0.952912 0.543331 -0.280558
C10   C     C_3   0.450029 0.046805 0.455116 -0.223396
C11   C     C_3   0.500224 0.876786 0.494399 -0.100606
C12   C     C_R   0.499977 0.742061 0.498120 0.932125
C13   C     C_3   0.501336 0.123120 0.504638 -0.122741
C14   C     C_3   0.458522 0.955534 0.579167 0.116258
C15   C     C_3   0.543108 0.044522 0.419556 0.076341
C16   C     C_R   0.389763 0.503988 0.500450 0.910559
C17   C     C_R   0.610194 0.497078 0.499418 0.874978
C18   C     C_3   0.469336 0.408953 0.051693 0.164917
C19   C     C_3   0.530546 0.591205 0.948564 0.172337
C20   C     C_3   0.520501 0.393999 0.953112 -0.144718
C21   C     C_3   0.479452 0.605896 0.047025 -0.154877
C22   C     C_3   0.449007 0.513950 0.954202 -0.007514
C23   C     C_R   0.241121 0.621909 0.416898 0.116162
C24   C     C_3   0.550968 0.486222 0.045927 -0.001674
C25   C     C_R   0.877071 0.572760 0.590006 0.516385
C26   C     C_R   0.122463 0.487681 0.392843 0.519154
C27   C     C_R   0.882344 0.464320 0.379804 0.522212
C28   C     C_R   0.117800 0.600906 0.599892 0.516817
C29   C     C_R   0.942667 0.472623 0.376113 -0.062594
C30   C     C_R   0.057333 0.599723 0.599673 -0.060703
C31   C     C_R   0.969833 0.531527 0.487132 -0.097721
C32   C     C_R   0.029965 0.540804 0.489303 -0.097402
C33   C     C_R   0.937007 0.576198 0.598899 -0.061136
C34   C     C_R   0.764062 0.405080 0.561488 0.120454
C35   C     C_R   0.062837 0.494162 0.379076 -0.062013
C36   C     C_R   0.976371 0.427040 0.265194 0.166201
C37   C     C_R   0.023687 0.651294 0.706939 0.168064
C38   C     C_R   0.035539 0.452284 0.260533 0.188435
C39   C     C_R   0.964702 0.624378 0.714527 0.182126
C40   C     C_3   0.950984 0.346867 0.154683 -0.778084
C41   C     C_3   0.048914 0.739956 0.809743 -0.781352
C42   C     C_3   0.433055 0.302500 0.114675 -0.709591
C43   C     C_3   0.565391 0.700773 0.887365 -0.651301
C44   C     C_2   0.389684 0.536898 0.902600 0.974757
C45   C     C_R   0.301132 0.609678 0.412278 -0.066654
C46   C     C_2   0.610237 0.465148 0.098572 0.995948
C47   C     C_3   0.067601 0.449085 0.124764 -0.796811
C48   C     C_3   0.933586 0.633496 0.851088 -0.792779
C49   C     C_3   0.211496 0.722994 0.329976 -0.788166
C50   C     C_3   0.798983 0.304727 0.637078 -0.794873
C51   C     C_2   0.335393 0.692421 0.317381 0.947808
C52   C     C_2   0.674602 0.297806 0.647033 0.915170
C53   C     C_3   0.202239 0.359950 0.681688 -0.848730
C54   C     C_3   0.787690 0.703034 0.333580 -0.833502
C55   C     C_2   0.518504 0.064346 0.773831 0.922044
C56   C     C_R   0.703849 0.401757 0.568728 -0.053646
C57   C     C_2   0.483920 0.931840 0.225450 0.927435
C58   C     C_3   0.410263 0.904560 0.670655 -0.712555
C59   C     C_3   0.590974 0.096924 0.327953 -0.687899
C60   C     C_R   0.327968 0.520032 0.500848 -0.173776
C61   C     C_R   0.672175 0.496187 0.497500 -0.169393
C62   C     C_R   0.295726 0.442783 0.589941 -0.221081
H1    H     H_    0.539521 0.307358 0.909328 0.204161
H2    H     H_    0.075585 0.813241 0.756453 0.266790
H3    H     H_    0.015776 0.795269 0.864596 0.219625
H4    H     H_    0.074385 0.685289 0.886164 0.261352
H5    H     H_    0.408948 0.255394 0.033817 0.268281
H6    H     H_    0.460927 0.230914 0.165840 0.230451
H7    H     H_    0.402029 0.341403 0.189245 0.259176
H8    H     H_    0.587984 0.749575 0.969558 0.276236
H9    H     H_    0.597366 0.664830 0.813164 0.246022
H10   H     H_    0.536566 0.770544 0.836373 0.230596
H11   H     H_    0.308383 0.475228 0.892386 0.359887
H12   H     H_    0.460618 0.692758 0.090661 0.180444
H13   H     H_    0.690075 0.533192 0.118358 0.358969
H14   H     H_    0.038872 0.472162 0.038247 0.214685
H15   H     H_    0.101014 0.523617 0.118022 0.259354
H16   H     H_    0.087140 0.354032 0.110403 0.268888
H17   H     H_    0.963369 0.625867 0.938143 0.214135
H18   H     H_    0.909787 0.724748 0.856366 0.272381
H19   H     H_    0.904066 0.552110 0.867505 0.259014
H20   H     H_    0.165767 0.735982 0.357905 0.219640
H21   H     H_    0.232360 0.816279 0.342888 0.238998
H22   H     H_    0.213884 0.697275 0.221105 0.281442
H23   H     H_    0.317114 0.373289 0.655304 0.178891
H24   H     H_    0.790092 0.209919 0.595885 0.272371
H25   H     H_    0.845785 0.319516 0.627878 0.220588
H26   H     H_    0.787550 0.304400 0.747324 0.249402
H27   H     H_    0.349911 0.754803 0.123841 0.356220
H28   H     H_    0.659285 0.110011 0.667177 0.370142
H29   H     H_    0.177274 0.413349 0.758346 0.265512
H30   H     H_    0.172468 0.304982 0.618972 0.243918
H31   H     H_    0.230318 0.291457 0.737500 0.243269
H32   H     H_    0.815034 0.758408 0.401767 0.249413
H33   H     H_    0.814625 0.663366 0.250852 0.257538
H34   H     H_    0.674334 0.662443 0.365501 0.177247
H35   H     H_    0.756062 0.769133 0.286098 0.245235
H36   H     H_    0.483375 0.117752 0.950614 0.340197
H37   H     H_    0.431159 0.930059 0.064643 0.339455
H38   H     H_    0.384393 0.984863 0.709329 0.247583
H39   H     H_    0.382323 0.841415 0.612546 0.268155
H40   H     H_    0.428624 0.850589 0.758470 0.254368
H41   H     H_    0.618168 0.017692 0.291753 0.251310
H42   H     H_    0.572203 0.147887 0.238630 0.258128
H43   H     H_    0.617516 0.163610 0.385144 0.263253
H44   H     H_    0.592944 0.911488 0.577929 0.179523
H45   H     H_    0.408714 0.087925 0.420155 0.182563
H46   H     H_    0.926492 0.266709 0.201847 0.268799
H47   H     H_    0.923364 0.406241 0.087111 0.260951
H48   H     H_    0.983697 0.300263 0.090063 0.218345
N1    N     N_R   0.851953 0.514125 0.484841 -0.345026
N2    N     N_R   0.148053 0.542776 0.499704 -0.344513
N3    N     N_3   0.499960 0.500030 0.863290 -0.123726
N4    N     N_3   0.500040 0.499970 0.136710 -0.124909
O1    O     O_R   0.500000 0.313960 0.616610 -0.602631
O2    O     O_2   0.155040 0.422747 0.303644 -0.546886
O3    O     O_2   0.853270 0.410428 0.278871 -0.561536
O4    O     O_2   0.146916 0.654835 0.700741 -0.563427
O5    O     O_2   0.378498 0.636322 0.841524 -0.633062
O6    O     O_R   0.346979 0.446855 0.928456 -0.800537
O7    O     O_2   0.622381 0.364423 0.155925 -0.619986
O8    O     O_R   0.651637 0.559344 0.079600 -0.805419
O9    O     O_2   0.373892 0.757253 0.361113 -0.647273
O10   O     O_R   0.323603 0.695546 0.178011 -0.780344
O11   O     O_2   0.646420 0.321307 0.749231 -0.590752
O12   O     O_R   0.500000 0.686040 0.383390 -0.591646
O13   O     O_R   0.680783 0.172610 0.605531 -0.817927
O14   O     O_2   0.565046 0.044415 0.825852 -0.625095
O15   O     O_R   0.472997 0.111093 0.851229 -0.813359
O16   O     O_2   0.522987 0.881830 0.162282 -0.639872
O17   O     O_R   0.431786 0.958491 0.162515 -0.804026
O18   O     O_R   0.500030 0.313950 0.383350 -0.622854
O19   O     O_R   0.499970 0.686050 0.616650 -0.629675
O20   O     O_R   0.416140 0.499970 0.616650 -0.592749
O21   O     O_R   0.583860 0.500030 0.383350 -0.600859
O22   O     O_R   0.416170 0.499960 0.383400 -0.620265
O23   O     O_R   0.583830 0.500040 0.616600 -0.593305
O24   O     O_2   0.843415 0.630544 0.682638 -0.549813
Zn1   Zn    Zn3+2 0.499980 0.500010 0.655740 1.002597
Zn2   Zn    Zn3+2 0.500020 0.499990 0.344260 0.994967

loop_
_geom_bond_atom_site_label_1
_geom_bond_atom_site_label_2
_ccdc_geom_bond_type
C45   C60   A    
C34   C56   A    
C43   H10   S    
C23   C45   A    
C27   C29   A    
H13   O8    S    
C51   O9    D    
C6    N1    S    
C7    C55   S    
O22   Zn2   S    
C1    O18   A    
C16   O20   A    
C18   N4    S    
C28   N2    A    
C24   N4    S    
O23   Zn1   S    
C29   C36   A    
O12   Zn2   S    
C59   H43   S    
C59   H42   S    
C48   H17   S    
C19   C21   S    
C47   H14   S    
C18   C42   S    
C20   N3    S    
C11   C14   S    
C23   C49   S    
C12   O12   A    
C45   C51   S    
C48   H19   S    
C60   C62   A    
C16   C60   S    
C17   C61   S    
C7    C14   S    
C22   C44   S    
O18   Zn2   S    
C20   C24   S    
C55   O15   S    
C53   H29   S    
H28   O13   S    
C31   C33   A    
C54   H35   S    
C58   H40   S    
N4    Zn2   S    
C2    C61   A    
C50   H26   S    
C40   H46   S    
C27   N1    A    
H11   O6    S    
C21   C22   S    
C42   H6    S    
C51   O10   S    
C10   H45   S    
C52   O13   S    
C19   C43   S    
C27   O3    S    
O21   Zn2   S    
C14   C58   S    
C62   H23   S    
C34   C50   S    
C53   H31   S    
C32   C35   A    
C57   O16   D    
C36   C40   S    
C35   C38   A    
C58   H38   S    
C4    C6    A    
C10   C14   S    
O20   Zn1   S    
C25   N1    A    
C40   H48   S    
C44   O5    D    
C9    H44   S    
C21   H12   S    
C42   H7    S    
C6    C34   A    
C30   C37   A    
C49   H20   S    
C2    C4    A    
C17   O21   A    
C8    C57   S    
C31   C32   A    
C5    C23   A    
C2    H34   S    
C11   C12   S    
C53   H30   S    
N3    Zn1   S    
C54   H33   S    
C46   O7    D    
C58   H39   S    
C33   C39   A    
C9    C11   S    
C38   C47   S    
C41   H4    S    
C50   H25   S    
C8    C10   S    
C5    N2    S    
O1    Zn1   S    
O19   Zn1   S    
C43   H8    S    
C12   O19   A    
C13   C15   S    
C42   H5    S    
C1    C13   S    
C47   H15   S    
C16   O22   A    
C26   N2    A    
C49   H22   S    
C3    C62   A    
C22   N3    S    
C7    C9    S    
C43   H9    S    
C4    C54   S    
C18   C22   S    
C15   C59   S    
C57   O17   S    
C21   N4    S    
C3    C5    A    
C10   C13   S    
C41   H3    S    
C52   O11   D    
C19   N3    S    
C40   H47   S    
H27   O10   S    
C8    C15   S    
C47   H16   S    
H37   O17   S    
C59   H41   S    
C48   H18   S    
C20   H1    S    
C36   C38   A    
C25   O24   S    
C9    C15   S    
C24   C46   S    
C29   C31   A    
C28   O4    S    
C30   C32   A    
C3    C53   S    
C49   H21   S    
C8    C11   S    
H36   O15   S    
C28   C30   A    
C19   C24   S    
C18   C20   S    
C37   C41   S    
C26   O2    S    
C54   H32   S    
C50   H24   S    
C26   C35   A    
C7    C13   S    
C55   O14   D    
C37   C39   A    
C44   O6    S    
C56   C61   A    
C46   O8    S    
C17   O23   A    
C1    O1    A    
C41   H2    S    
C52   C56   S    
C25   C33   A    
C39   C48   S    
