data_mof_unit_45231.cif
_audit_creation_date              2012-12-11T17:39:32-0500
_audit_creation_method            fapswitch 2.2
_symmetry_space_group_name_H-M    P1
_symmetry_Int_Tables_number       1
_space_group_crystal_system       triclinic
_cell_length_a                    15.114391
_cell_length_b                    15.084916
_cell_length_c                    14.966179
_cell_angle_alpha                 108.437109
_cell_angle_beta                  110.343261
_cell_angle_gamma                 110.140493
_cell_volume                      2609.55231861

loop_
_atom_site_label
_atom_site_type_symbol
_atom_type_description
_atom_site_fract_x
_atom_site_fract_y
_atom_site_fract_z
_atom_type_partial_charge
C1    C     C_R   0.910006 0.975422 0.721706 -0.116219
C2    C     C_R   0.908876 0.703869 0.507848 0.041995
C3    C     C_R   0.737302 0.779082 0.185637 -0.129003
C4    C     C_R   0.092410 0.314584 0.559500 -0.137725
C5    C     C_R   0.261080 0.947011 0.537851 -0.142607
C6    C     C_R   0.700114 0.676473 0.174827 0.122634
C7    C     C_R   0.292905 0.971556 0.468286 0.056456
C8    C     C_R   0.999313 0.700342 0.566128 -0.005078
C9    C     C_R   0.995352 0.052188 0.189468 0.057065
C10   C     C_R   0.461458 0.594971 0.268206 -0.126203
C11   C     C_R   0.459340 0.691039 0.294028 -0.169695
C12   C     C_R   0.999960 0.322867 0.542352 0.041313
C13   C     C_R   0.447457 0.738684 0.383204 -0.059555
C14   C     C_R   0.435993 0.686301 0.446109 0.499157
C15   C     C_R   0.432835 0.586791 0.415161 -0.125698
C16   C     C_R   0.304019 0.206292 0.797348 -0.150603
C17   C     C_R   0.446347 0.541826 0.327306 -0.150448
C18   C     C_R   0.367617 0.856513 0.420207 -0.249625
C19   C     C_R   0.373813 0.957088 0.448052 0.052197
C20   C     C_R   0.459609 0.044842 0.459354 0.049742
C21   C     C_R   0.537290 0.029870 0.441935 -0.245010
C22   C     C_R   0.536747 0.933181 0.422830 0.065388
C23   C     C_R   0.367145 0.297893 0.797990 0.139292
C24   C     C_R   0.451200 0.844092 0.409883 0.030952
C25   C     C_R   0.471918 0.207139 0.440547 -0.395655
C26   C     C_R   0.504262 0.318068 0.487622 0.601062
C27   C     C_R   0.550857 0.379601 0.600954 -0.148818
C28   C     C_R   0.698114 0.996002 0.403075 -0.168782
C29   C     C_R   0.564666 0.331450 0.666628 -0.229853
C30   C     C_R   0.529410 0.220894 0.619572 -0.111905
C31   C     C_R   0.483080 0.158174 0.506330 0.102439
C32   C     C_R   0.797761 0.181497 0.187221 -0.120723
C33   C     C_R   0.872592 0.275077 0.289553 -0.116002
C34   C     C_R   0.636779 0.938582 0.435249 0.066104
C35   C     C_R   0.835489 0.317741 0.356606 0.111842
C36   C     C_R   0.722500 0.267802 0.318688 -0.185292
C37   C     C_R   0.647988 0.173787 0.216388 -0.124802
C38   C     C_R   0.685569 0.130426 0.150812 -0.099318
C39   C     C_R   0.915476 0.508439 0.478343 -0.213806
C40   C     C_R   0.302716 0.297888 0.706697 -0.122103
C41   C     C_R   0.994102 0.606777 0.574702 0.071398
C42   C     C_R   0.071251 0.612640 0.666249 0.028540
C43   C     C_R   0.070716 0.516863 0.655005 -0.243320
C44   C     C_R   0.993971 0.419032 0.555712 0.073132
C45   C     C_R   0.734494 0.686376 0.277368 -0.144428
C46   C     C_R   0.914606 0.414832 0.466845 0.010186
C47   C     C_R   0.262290 0.748650 0.828222 -0.164012
C48   C     C_R   0.336747 0.847101 0.926868 -0.119153
C49   C     C_R   0.300515 0.913777 0.970692 -0.088761
C50   C     C_R   0.189615 0.881802 0.916501 -0.112024
C51   C     C_R   0.114767 0.783176 0.818331 -0.137938
C52   C     C_R   0.697155 0.907482 0.497180 -0.125356
C53   C     C_R   0.150507 0.715995 0.772495 0.118191
C54   C     C_2   0.535977 0.466596 0.878585 -0.158479
C55   C     C_2   0.483747 0.372321 0.874652 -0.200926
C56   C     C_R   0.254569 0.035218 0.441390 -0.106892
C57   C     C_2   0.628321 0.561365 0.982623 -0.112647
C58   C     C_2   0.626607 0.574992 0.074357 -0.197472
C59   C     C_R   0.397816 0.252091 0.121667 -0.122234
C60   C     C_R   0.293018 0.198594 0.105193 -0.200315
C61   C     C_R   0.213049 0.222224 0.055326 0.120285
C62   C     C_R   0.240223 0.301433 0.023844 -0.131991
C63   C     C_R   0.345013 0.353707 0.039264 -0.133026
C64   C     C_R   0.909212 0.219826 0.477111 -0.104795
C65   C     C_R   0.423809 0.329387 0.088684 -0.115246
C66   C     C_R   0.091174 0.155620 0.121278 -0.233888
C67   C     C_R   0.091019 0.790232 0.592981 -0.138826
C68   C     C_R   0.991630 0.081003 0.103441 0.050254
C69   C     C_R   0.894366 0.033321 0.001627 0.010578
C70   C     C_R   0.903144 0.057218 0.921848 -0.215503
C71   C     C_R   0.004757 0.100013 0.928742 0.050270
C72   C     C_R   0.100872 0.161045 0.033786 0.027344
C73   C     C_R   0.770926 0.837290 0.931840 -0.142091
C74   C     C_R   0.665198 0.746647 0.873733 -0.139345
C75   C     C_R   0.574048 0.759681 0.848299 -0.045146
C76   C     C_R   0.093255 0.062810 0.812711 -0.141682
C77   C     C_R   0.588105 0.863157 0.877224 -0.098914
C78   C     C_R   0.907052 0.998175 0.197923 -0.142489
C79   C     C_R   0.693264 0.953501 0.931427 -0.200955
C80   C     C_R   0.785899 0.941781 0.961836 0.109448
C81   C     C_R   0.004027 0.052914 0.825332 0.051185
C82   C     C_1   0.803248 0.649539 0.496950 0.002991
C83   C     C_R   0.089281 0.088120 0.286531 -0.138241
H1    H     H_    0.825318 0.944269 0.698935 0.099125
H2    H     H_    0.469151 0.729645 0.245417 0.136531
H3    H     H_    0.176782 0.379924 0.604474 0.103395
H4    H     H_    0.423360 0.545772 0.461821 0.161115
H5    H     H_    0.299587 0.789308 0.409547 0.155623
H6    H     H_    0.605818 0.099444 0.455887 0.138003
H7    H     H_    0.438538 0.159083 0.353365 0.122614
H8    H     H_    0.577985 0.465383 0.638469 0.129132
H9    H     H_    0.605107 0.380299 0.754477 0.158266
H10   H     H_    0.541734 0.184955 0.671705 0.119290
H11   H     H_    0.627520 0.057399 0.071925 0.101971
H12   H     H_    0.265455 0.068607 0.389543 0.107355
H13   H     H_    0.334285 0.174197 0.848387 0.108232
H14   H     H_    0.827470 0.148808 0.136946 0.115324
H15   H     H_    0.959359 0.313302 0.317357 0.117097
H16   H     H_    0.692679 0.300299 0.369390 0.130397
H17   H     H_    0.561270 0.134164 0.188265 0.098071
H18   H     H_    0.858855 0.505247 0.406951 0.134237
H19   H     H_    0.129540 0.518021 0.723009 0.129995
H20   H     H_    0.292168 0.698873 0.794621 0.110685
H21   H     H_    0.422689 0.871946 0.969202 0.102933
H22   H     H_    0.358273 0.990104 0.046734 0.092696
H23   H     H_    0.175821 0.817207 0.646201 0.117479
H24   H     H_    0.161533 0.933368 0.950592 0.114203
H25   H     H_    0.670873 0.021752 0.344156 0.108768
H26   H     H_    0.028965 0.759377 0.777967 0.117504
H27   H     H_    0.501602 0.480824 0.811460 0.124528
H28   H     H_    0.522669 0.357767 0.940187 0.136311
H29   H     H_    0.688820 0.626381 0.983054 0.126728
H30   H     H_    0.564974 0.512845 0.075485 0.124469
H31   H     H_    0.505127 0.369743 0.101537 0.097962
H32   H     H_    0.458762 0.233247 0.159574 0.107213
H33   H     H_    0.273584 0.137264 0.129460 0.108276
H34   H     H_    0.823512 0.977177 0.149931 0.111985
H35   H     H_    0.179717 0.320499 0.985149 0.117018
H36   H     H_    0.364932 0.412889 0.012604 0.117858
H37   H     H_    0.330266 0.347843 0.672911 0.091834
H38   H     H_    0.164934 0.202699 0.201077 0.129830
H39   H     H_    0.828228 0.021933 0.845803 0.129128
H40   H     H_    0.840592 0.825666 0.948739 0.116767
H41   H     H_    0.653564 0.665931 0.845424 0.101470
H42   H     H_    0.492386 0.689336 0.803619 0.099021
H43   H     H_    0.517271 0.872949 0.854370 0.109420
H44   H     H_    0.702181 0.031979 0.946405 0.115044
H45   H     H_    0.173139 0.145571 0.316164 0.092696
H46   H     H_    0.669503 0.853430 0.527166 0.106178
H47   H     H_    0.824711 0.197246 0.449228 0.111923
H48   H     H_    0.179071 0.109403 0.872957 0.132270
H49   H     H_    0.715774 0.621486 0.296537 0.111207
H50   H     H_    0.460543 0.808868 0.567488 0.313814
H51   H     H_    0.459599 0.314567 0.347979 0.303305
H52   H     H_    0.720114 0.799557 0.121011 0.110236
H53   H     H_    0.281301 0.902105 0.577174 0.109503
H54   H     H_    0.446510 0.466413 0.305830 0.183132
H55   H     H_    0.475551 0.562431 0.202531 0.126857
N1    N     N_R   0.941940 0.944580 0.650780 -0.044091
N2    N     N_R   0.204460 0.150250 0.707090 -0.043164
N3    N     N_R   0.794270 0.003240 0.446420 -0.039071
N4    N     N_R   0.204920 0.207570 0.650770 -0.044504
N5    N     N_R   0.793810 0.945920 0.502740 -0.041151
N6    N     N_R   0.943620 0.152590 0.446420 -0.042403
N7    N     N_R   0.055110 0.000900 0.707100 -0.043153
N8    N     N_R   0.795080 0.792430 0.349230 -0.040460
N9    N     N_1   0.718565 0.606018 0.488357 -0.058399
N10   N     N_R   0.206190 0.054080 0.497260 -0.042421
N11   N     N_R   0.056380 0.847410 0.553580 -0.049032
N12   N     N_R   0.944890 0.999100 0.292900 -0.039954
N13   N     N_R   0.058060 0.055420 0.349220 -0.040405
N14   N     N_R   0.943200 0.791100 0.497260 -0.057520
N15   N     N_R   0.795540 0.849750 0.292910 -0.044540
N16   N     N_R   0.205730 0.996760 0.553580 -0.040637
N17   N     N_R   0.056800 0.208900 0.502740 -0.041727
Ni1   Ni    Ni4+2 0.869690 0.869690 0.500000 0.227523
Ni2   Ni    Ni4+2 0.130310 0.130310 0.500000 0.214563
Ni3   Ni    Ni4+2 0.129250 0.998840 0.629170 0.211982
Ni4   Ni    Ni4+2 0.870750 0.001160 0.370830 0.215609
O1    O     O_3   0.431351 0.730079 0.539372 -0.779293
O2    O     O_3   0.493528 0.368812 0.425789 -0.794591

loop_
_geom_bond_atom_site_label_1
_geom_bond_atom_site_label_2
_ccdc_geom_bond_type
C25   C31   A    
C5    H53   S    
C66   C68   A    
C63   C65   A    
C41   C42   A    
C56   N10   A    
C6    C45   A    
C40   N4    A    
N17   Ni2   S    
C65   H31   S    
C6    C58   S    
C74   H41   S    
C35   C36   A    
C83   H45   S    
C3    C6    A    
N10   Ni2   S    
C82   N9    T    
C57   C58   D    
C39   C41   A    
C21   H6    S    
C8    C67   A    
C32   H14   S    
C1    H1    S    
C25   H7    S    
C37   C38   A    
C18   C24   A    
C52   H46   S    
N13   Ni2   S    
C36   C37   A    
N2    N4    A    
N16   Ni3   S    
C30   H10   S    
N3    N5    A    
C42   C53   S    
C30   C31   A    
C12   C64   A    
C76   H48   S    
C57   H29   S    
C67   N11   A    
C56   H12   S    
C1    C81   A    
C5    N16   A    
C48   H21   S    
C3    N15   A    
C27   C29   A    
C54   H27   S    
C33   H15   S    
C73   C74   A    
N2    Ni3   S    
N3    Ni4   S    
C66   C72   A    
N14   Ni1   S    
C68   C69   A    
C73   H40   S    
C58   H30   S    
C27   H8    S    
C70   C71   A    
C32   C38   A    
C4    C12   A    
C29   C30   A    
N11   Ni3   S    
C61   C62   A    
C1    N1    A    
C47   C53   A    
C28   C34   A    
C59   C60   A    
C51   H26   S    
C13   C14   A    
C16   N2    A    
N10   N16   A    
C7    C56   A    
C62   H35   S    
C44   C46   A    
C39   H18   S    
C83   N13   A    
C77   C79   A    
C2    N14   A    
C22   C34   S    
C16   H13   S    
C52   N5    A    
C47   H20   S    
C74   C75   A    
C45   N8    A    
C78   H34   S    
C8    C41   S    
N12   Ni4   S    
N11   N14   A    
C5    C7    A    
C18   C19   A    
C49   H22   S    
C64   N6    A    
C25   C26   A    
C18   H5    S    
C13   C24   S    
C14   O1    S    
C60   C61   A    
C75   H42   S    
N15   Ni4   S    
C43   C44   A    
N6    N17   A    
C62   C63   A    
C63   H36   S    
C70   H39   S    
C47   C48   A    
C38   H11   S    
C50   C51   A    
C26   C27   A    
C66   H38   S    
N8    Ni1   S    
N6    Ni4   S    
C75   C77   A    
C9    C83   A    
C39   C46   A    
C61   C72   S    
C48   C49   A    
C40   H37   S    
C64   H47   S    
C76   N7    A    
C16   C23   A    
C7    C19   S    
C50   H24   S    
C22   C24   A    
C2    C82   S    
C42   C43   A    
N4    Ni2   S    
C78   N12   A    
C15   H4    S    
C15   C17   A    
C79   H44   S    
C54   C55   D    
N1    N7    A    
C55   H28   S    
N12   N13   A    
C2    C8    A    
C76   C81   A    
C67   H23   S    
C23   C55   S    
C10   H55   S    
C26   O2    S    
C34   C52   A    
H51   O2    S    
H50   O1    S    
C32   C33   A    
C19   C20   A    
C9    C68   S    
C71   C72   A    
C12   C44   S    
C59   C65   A    
N7    Ni3   S    
C11   C13   A    
N5    Ni1   S    
N8    N15   A    
N1    Ni1   S    
C11   H2    S    
C33   C35   A    
C73   C80   A    
C36   H16   S    
C3    H52   S    
C9    C78   A    
C37   H17   S    
C69   C70   A    
C28   H25   S    
C43   H19   S    
C60   H33   S    
C10   C11   A    
C79   C80   A    
C4    N17   A    
C4    H3    S    
C20   C21   A    
C45   H49   S    
C59   H32   S    
C49   C50   A    
C14   C15   A    
C69   C80   S    
C17   H54   S    
C28   N3    A    
C10   C17   A    
C51   C53   A    
C21   C22   A    
C35   C46   S    
C54   C57   S    
C29   H9    S    
C77   H43   S    
C23   C40   A    
C71   C81   S    
C20   C31   S    
