data_mof_unit_31311.cif
_audit_creation_date              2012-12-10T20:37:31-0500
_audit_creation_method            fapswitch 2.2
_symmetry_space_group_name_H-M    P1
_symmetry_Int_Tables_number       1
_space_group_crystal_system       triclinic
_cell_length_a                    15.722395
_cell_length_b                    10.672457
_cell_length_c                    9.869425
_cell_angle_alpha                 90.036895
_cell_angle_beta                  90.229287
_cell_angle_gamma                 89.966715
_cell_volume                      1656.04192595

loop_
_atom_site_label
_atom_site_type_symbol
_atom_type_description
_atom_site_fract_x
_atom_site_fract_y
_atom_site_fract_z
_atom_type_partial_charge
C1    C     C_R   0.501884 0.260134 0.500234 0.938339
C2    C     C_3   0.083259 0.497159 0.498611 -0.051035
C3    C     C_3   0.973159 0.599858 0.560620 0.457558
C4    C     C_3   0.917171 0.496713 0.500327 -0.033197
C5    C     C_3   0.028033 0.599507 0.431315 -0.298918
C6    C     C_3   0.971208 0.494195 0.370497 -0.224226
C7    C     C_1   0.173967 0.497847 0.498843 0.036652
C8    C     C_1   0.826284 0.497405 0.501055 0.082269
C9    C     C_R   0.496432 0.064001 0.622645 -0.129168
C10   C     C_R   0.512003 0.128564 0.502599 -0.074848
C11   C     C_R   0.540373 0.064727 0.387179 -0.179237
C12   C     C_R   0.337980 0.499751 0.499756 0.919453
C13   C     C_R   0.540065 0.935186 0.387039 -0.187104
C14   C     C_R   0.511133 0.871595 0.502153 -0.105559
C15   C     C_R   0.495381 0.936218 0.621913 -0.012325
C16   C     C_3   0.420986 0.927057 0.715721 0.239001
C17   C     C_3   0.421523 0.071262 0.718481 0.892464
C18   C     C_R   0.427810 0.527603 0.070749 0.069264
C19   C     C_R   0.573075 0.480095 0.072270 -0.101501
C20   C     C_R   0.573077 0.480170 0.928538 -0.106548
C21   C     C_R   0.427864 0.527859 0.928208 0.146772
C22   C     C_3   0.345567 0.458971 0.920922 -0.528892
C23   C     C_R   0.501379 0.739933 0.500140 0.871024
C24   C     C_3   0.345592 0.457904 0.074637 0.463386
C25   C     C_R   0.662084 0.499780 0.500283 0.883336
C26   C     C_3   0.973496 0.396460 0.565429 0.452809
C27   C     C_3   0.028421 0.391799 0.436198 -0.286305
C28   C     C_1   0.249189 0.498725 0.499235 -0.171186
C29   C     C_1   0.750995 0.498503 0.500908 -0.160081
C30   C     C_3   0.028852 0.499665 0.627673 0.493704
H1    H     H_    0.053547 0.307013 0.384857 0.175351
H2    H     H_    0.631744 0.462092 0.126276 0.147163
H3    H     H_    0.631715 0.462139 0.875163 0.151580
H4    H     H_    0.293907 0.517588 0.877044 0.172639
H5    H     H_    0.352459 0.364698 0.874375 0.268690
H6    H     H_    0.292980 0.512550 0.120930 0.072680
H7    H     H_    0.945162 0.491940 0.265808 0.190265
H8    H     H_    0.052830 0.682243 0.376023 0.168203
H9    H     H_    0.558268 0.114115 0.295742 0.165711
H10   H     H_    0.557949 0.885657 0.295609 0.173095
H11   H     H_    0.365513 0.882229 0.664050 0.049371
N1    N     N_R   0.499430 0.499140 0.142800 -0.077431
N2    N     N_R   0.499430 0.499180 0.857150 -0.077725
O1    O     O_R   0.500010 0.316790 0.614690 -0.612927
O2    O     O_R   0.500000 0.316760 0.385350 -0.590689
O3    O     O_R   0.376780 0.500010 0.614650 -0.611175
O4    O     O_R   0.376770 0.499970 0.385310 -0.596371
O5    O     O_R   0.500000 0.683240 0.614650 -0.579417
O6    O     O_R   0.499990 0.683210 0.385310 -0.635811
O7    O     O_R   0.623230 0.500030 0.614690 -0.622106
O8    O     O_R   0.623220 0.499990 0.385350 -0.634732
Zn1   Zn    Zn3+2 0.500010 0.500020 0.653130 0.993957
Zn2   Zn    Zn3+2 0.499990 0.499980 0.346870 0.990625
O9    O     O_3   0.446034 0.870982 0.839277 -0.576239
C31   C     C_3   0.373366 0.845061 0.917442 -0.264880
H12   H     H_    0.331616 0.775411 0.866048 0.139112
H13   H     H_    0.337294 0.931978 0.940883 0.182571
H14   H     H_    0.394175 0.803916 0.015277 0.180084
O10   O     O_3   0.350597 0.125889 0.651292 -0.645101
C32   C     C_3   0.275871 0.114928 0.729323 -0.303244
H15   H     H_    0.282314 0.161547 0.829501 0.219176
H16   H     H_    0.256892 0.015477 0.742145 0.122793
H17   H     H_    0.223368 0.162743 0.674495 0.185279
O11   O     O_3   0.435856 0.125612 0.849627 -0.598729
C33   C     C_3   0.522241 0.133816 0.889125 -0.231143
H18   H     H_    0.556431 0.204443 0.827502 0.165619
H19   H     H_    0.554916 0.041696 0.883724 0.186174
H20   H     H_    0.525027 0.165644 0.996082 0.197670
F1    F     F_    0.355171 0.338334 0.127088 -0.613014
O12   O     O_3   0.938498 0.293736 0.635705 -0.581209
C34   C     C_3   0.003928 0.209322 0.670556 -0.265960
H21   H     H_    0.054597 0.255321 0.731836 0.194818
H22   H     H_    0.031544 0.165060 0.578710 0.141119
H23   H     H_    0.976418 0.133358 0.733247 0.183765
O13   O     O_3   0.937657 0.705071 0.626055 -0.578394
C35   C     C_3   0.002594 0.791631 0.656443 -0.260192
H24   H     H_    0.029614 0.832425 0.562386 0.141340
H25   H     H_    0.053740 0.748796 0.719398 0.191283
H26   H     H_    0.974741 0.869739 0.715761 0.183855
F2    F     F_    0.060400 0.502511 0.758659 -0.673400

loop_
_geom_bond_atom_site_label_1
_geom_bond_atom_site_label_2
_ccdc_geom_bond_type
C31   H12   S    
C18   C21   A    
C2    C7    S    
C35   H26   S    
C4    C8    S    
C22   H5    S    
C26   C27   S    
C24   H6    S    
C12   C28   S    
C32   H17   S    
C18   C24   S    
C8    C29   T    
C21   C22   S    
C35   H25   S    
C18   N1    A    
N1    Zn2   S    
C5    C6    S    
N2    Zn1   S    
C23   O6    A    
C15   C16   S    
O3    Zn1   S    
C32   H16   S    
C25   O7    A    
C13   H10   S    
C21   N2    A    
C19   C20   A    
C16   C17   S    
C33   H19   S    
O7    Zn1   S    
O12   C34   S    
C3    O13   S    
C9    C10   A    
C19   N1    A    
O4    Zn2   S    
C30   F2    S    
O1    Zn1   S    
O2    Zn2   S    
O10   C32   S    
C13   C14   A    
C12   O4    A    
C19   H2    S    
C24   F1    S    
C25   C29   S    
C22   H4    S    
C27   H1    S    
C35   H24   S    
C4    C6    S    
C34   H22   S    
C7    C28   T    
C32   H15   S    
O8    Zn2   S    
C12   O3    A    
C14   C23   S    
C3    C30   S    
O13   C35   S    
C25   O8    A    
C1    O1    A    
C6    C27   S    
C33   H20   S    
C6    H7    S    
C11   H9    S    
C2    C27   S    
C17   O10   S    
C20   H3    S    
C9    C17   S    
C26   C30   S    
C31   H13   S    
C26   O12   S    
C22   C24   S    
C2    C5    S    
C3    C4    S    
C20   N2    A    
O9    C31   S    
C23   O5    A    
C1    C10   S    
C3    C5    S    
C34   H23   S    
C4    C26   S    
C2    C30   S    
O11   C33   S    
C9    C15   A    
C34   H21   S    
C17   O11   S    
C11   C13   A    
C1    O2    A    
O6    Zn2   S    
C16   O9    S    
C10   C11   A    
O5    Zn1   S    
C33   H18   S    
C31   H14   S    
C14   C15   A    
C5    H8    S    
C16   H11   S    
