data_mof_unit_31627.cif
_audit_creation_date              2012-12-10T19:47:21-0500
_audit_creation_method            fapswitch 2.2
_symmetry_space_group_name_H-M    P1
_symmetry_Int_Tables_number       1
_space_group_crystal_system       triclinic
_cell_length_a                    15.009716
_cell_length_b                    14.140899
_cell_length_c                    10.640536
_cell_angle_alpha                 90.103149
_cell_angle_beta                  90.096446
_cell_angle_gamma                 89.764039
_cell_volume                      2258.43712453

loop_
_atom_site_label
_atom_site_type_symbol
_atom_type_description
_atom_site_fract_x
_atom_site_fract_y
_atom_site_fract_z
_atom_type_partial_charge
C1    C     C_R   0.327320 0.500350 0.499080 0.836679
C2    C     C_R   0.672111 0.499769 0.503434 0.871750
C3    C     C_R   0.230691 0.500546 0.503137 -0.081000
C4    C     C_R   0.767695 0.498364 0.513483 -0.072183
C5    C     C_R   0.188121 0.416771 0.539920 -0.205281
C6    C     C_R   0.814123 0.428027 0.447621 -0.214341
C7    C     C_R   0.096469 0.413695 0.548420 -0.187239
C8    C     C_R   0.905899 0.424534 0.453785 -0.175727
C9    C     C_R   0.046847 0.494470 0.521012 0.104844
C10   C     C_R   0.951198 0.491417 0.525847 0.102449
C11   C     C_R   0.459362 0.105299 0.597669 -0.269461
C12   C     C_R   0.538529 0.104537 0.400898 -0.270593
C13   C     C_R   0.460487 0.204730 0.596088 0.015368
C14   C     C_R   0.538709 0.204004 0.403341 0.020101
C15   C     C_R   0.498700 0.053626 0.499140 0.127570
C16   C     C_R   0.540563 0.895393 0.598105 -0.084854
C17   C     C_R   0.457348 0.894669 0.401244 -0.081367
C18   C     C_R   0.538700 0.795631 0.596248 -0.032849
C19   C     C_R   0.460448 0.794900 0.403713 -0.013614
C20   C     C_R   0.498839 0.946939 0.499421 0.008106
C21   C     C_R   0.496677 0.499996 0.260294 0.875386
C22   C     C_R   0.496782 0.500142 0.739695 0.874374
C23   C     C_R   0.353943 0.600273 0.130841 -0.196349
C24   C     C_R   0.354113 0.600667 0.868983 -0.188057
C25   C     C_R   0.288265 0.649847 0.065300 -0.128866
C26   C     C_R   0.288324 0.650002 0.934592 -0.143369
C27   C     C_R   0.422503 0.551701 0.934051 0.092173
C28   C     C_R   0.422398 0.551500 0.065816 0.092684
C29   C     C_R   0.489848 0.499780 0.128152 -0.096585
C30   C     C_R   0.490081 0.500169 0.871798 -0.101104
C31   C     C_R   0.553130 0.446315 0.064110 -0.212577
C32   C     C_R   0.553273 0.446549 0.935872 -0.206204
C33   C     C_R   0.087913 0.578129 0.483779 -0.216164
C34   C     C_R   0.905387 0.559835 0.595337 -0.218063
C35   C     C_R   0.179728 0.582091 0.473888 -0.000593
C36   C     C_R   0.813273 0.563622 0.590332 -0.003953
H1    H     H_    0.603912 0.406260 0.113762 0.145691
H2    H     H_    0.604141 0.406625 0.886264 0.154692
H3    H     H_    0.569654 0.755950 0.671388 0.159809
H4    H     H_    0.429051 0.754545 0.329496 0.147018
H5    H     H_    0.349374 0.599346 0.232117 0.153010
H6    H     H_    0.349661 0.600199 0.767616 0.156858
H7    H     H_    0.236439 0.687112 0.116079 0.150717
H8    H     H_    0.236533 0.687379 0.883809 0.139849
H9    H     H_    0.047878 0.639731 0.460249 0.140234
H10   H     H_    0.941770 0.610268 0.652548 0.139110
H11   H     H_    0.225617 0.353588 0.563444 0.161230
H12   H     H_    0.779403 0.377136 0.389288 0.147691
H13   H     H_    0.064221 0.348804 0.577072 0.134534
H14   H     H_    0.941709 0.371943 0.399290 0.135443
H15   H     H_    0.427601 0.068899 0.674918 0.141314
H16   H     H_    0.569882 0.067529 0.323418 0.139655
H17   H     H_    0.429496 0.243781 0.671900 0.128825
H18   H     H_    0.569954 0.242496 0.327654 0.122934
N1    N     N_R   0.500000 0.252470 0.500000 -0.092201
N2    N     N_R   0.500000 0.747550 0.500000 -0.106820
O1    O     O_R   0.369060 0.579480 0.500010 -0.623344
O2    O     O_R   0.630940 0.579480 0.499990 -0.603728
O3    O     O_R   0.369050 0.420520 0.500010 -0.620411
O4    O     O_R   0.630950 0.420520 0.499990 -0.623127
O5    O     O_R   0.500000 0.579490 0.316770 -0.629780
O6    O     O_R   0.500000 0.579490 0.683230 -0.627784
O7    O     O_R   0.499990 0.420540 0.316770 -0.623622
O8    O     O_R   0.500010 0.420540 0.683230 -0.625580
Zn1   Zn    Zn3+2 0.500000 0.606140 0.500000 0.951178
Zn2   Zn    Zn3+2 0.500000 0.393860 0.500000 0.941323
C37   C     C_R   0.588315 0.943072 0.702561 0.123081
C38   C     C_R   0.656673 0.008106 0.677714 -0.111956
C39   C     C_R   0.700942 0.053223 0.776594 -0.139410
C40   C     C_R   0.678180 0.033036 0.900916 -0.109949
C41   C     C_R   0.611442 0.967303 0.926582 -0.121883
C42   C     C_R   0.566809 0.922169 0.827978 -0.172779
H19   H     H_    0.675917 0.023626 0.581942 0.127805
H20   H     H_    0.753117 0.103632 0.756810 0.128337
H21   H     H_    0.712553 0.067975 0.977378 0.119923
H22   H     H_    0.594388 0.951366 0.022952 0.128354
H23   H     H_    0.515114 0.871487 0.849275 0.122764
C43   C     C_R   0.407494 0.941241 0.297628 0.124101
C44   C     C_R   0.339567 0.007184 0.323749 -0.105304
C45   C     C_R   0.292183 0.049919 0.225770 -0.138965
C46   C     C_R   0.311217 0.026312 0.101111 -0.110362
C47   C     C_R   0.377401 0.959604 0.074228 -0.125619
C48   C     C_R   0.425273 0.916990 0.171880 -0.180069
H24   H     H_    0.322687 0.024914 0.419848 0.127855
H25   H     H_    0.240305 0.100948 0.246557 0.128486
H26   H     H_    0.274305 0.059271 0.025369 0.122156
H27   H     H_    0.391431 0.940845 0.977655 0.128138
H28   H     H_    0.476379 0.865396 0.149472 0.124394
C49   C     C_1   0.217952 0.669885 0.430824 0.153772
N3    N     N_1   0.247835 0.740518 0.396323 -0.227001
C50   C     C_1   0.767837 0.632288 0.668222 0.164144
N4    N     N_1   0.731931 0.687232 0.731186 -0.215821

loop_
_geom_bond_atom_site_label_1
_geom_bond_atom_site_label_2
_ccdc_geom_bond_type
C19   N2    A    
C4    C36   A    
C24   H6    S    
C24   C27   A    
C25   H7    S    
C46   C47   A    
C26   H8    S    
C5    H11   S    
C42   H23   S    
C6    H12   S    
C28   C29   A    
C24   C26   A    
C1    O3    A    
O3    Zn2   S    
C41   H22   S    
C2    O4    A    
N2    Zn1   S    
C17   C20   A    
C33   H9    S    
C37   C42   A    
C17   C19   A    
C11   C15   A    
C43   C48   A    
C38   C39   A    
C40   C41   A    
C34   H10   S    
C32   H2    S    
C9    C10   S    
C21   O5    A    
C46   H26   S    
C18   N2    A    
C48   H28   S    
O7    Zn2   S    
O4    Zn2   S    
C27   C30   A    
C9    C33   A    
C12   H16   S    
C13   H17   S    
C15   C20   S    
C37   C38   A    
C7    H13   S    
C4    C6    A    
C50   N4    T    
C5    C7    A    
C43   C44   A    
C6    C8    A    
C25   C26   A    
C21   C29   S    
C31   H1    S    
C1    C3    S    
O8    Zn2   S    
C2    C4    S    
C18   H3    S    
C45   H25   S    
C1    O1    A    
C22   O6    A    
O2    Zn1   S    
C31   C32   A    
C12   C15   A    
C3    C35   A    
C16   C20   A    
C39   H20   S    
C10   C34   A    
C16   C37   S    
C23   C28   A    
C35   C49   S    
C36   C50   S    
C16   C18   A    
C14   H18   S    
C12   C14   A    
C8    H14   S    
C40   H21   S    
N1    Zn2   S    
C7    C9    A    
C22   C30   S    
O6    Zn1   S    
O1    Zn1   S    
C45   C46   A    
C3    C5    A    
C2    O2    A    
C23   H5    S    
C38   H19   S    
C41   C42   A    
C29   C31   A    
C30   C32   A    
C11   C13   A    
C44   H24   S    
C17   C43   S    
C33   C35   A    
C14   N1    A    
C34   C36   A    
C23   C25   A    
C39   C40   A    
C21   O7    A    
C11   H15   S    
C19   H4    S    
C22   O8    A    
C44   C45   A    
O5    Zn1   S    
C8    C10   A    
C47   C48   A    
C27   C28   A    
C49   N3    T    
C47   H27   S    
C13   N1    A    
