data_mof_unit_42173.cif
_audit_creation_date              2012-12-11T14:01:35-0500
_audit_creation_method            fapswitch 2.2
_symmetry_space_group_name_H-M    P1
_symmetry_Int_Tables_number       1
_space_group_crystal_system       triclinic
_cell_length_a                    19.106545
_cell_length_b                    10.91698
_cell_length_c                    19.046866
_cell_angle_alpha                 89.968443
_cell_angle_beta                  90.164596
_cell_angle_gamma                 90.071254
_cell_volume                      3972.88514324

loop_
_atom_site_label
_atom_site_type_symbol
_atom_type_description
_atom_site_fract_x
_atom_site_fract_y
_atom_site_fract_z
_atom_type_partial_charge
C1    C     C_R   0.292180 0.989631 0.858503 0.550665
C2    C     C_R   0.983045 0.669836 0.968427 -0.073568
C3    C     C_R   0.516939 0.169879 0.031547 -0.073289
C4    C     C_R   0.483046 0.169838 0.968426 -0.073767
C5    C     C_2   0.247705 0.598331 0.924337 -0.039818
C6    C     C_2   0.752261 0.598358 0.075670 -0.039821
C7    C     C_2   0.747700 0.098318 0.924333 -0.038425
C8    C     C_2   0.252261 0.098363 0.075670 -0.039746
C9    C     C_2   0.216251 0.486968 0.065427 -0.090061
C10   C     C_2   0.783698 0.486997 0.934626 -0.089014
C11   C     C_2   0.716248 0.986959 0.065426 -0.090152
C12   C     C_R   0.707800 0.989683 0.141540 0.550402
C13   C     C_2   0.283697 0.987003 0.934625 -0.089842
C14   C     C_2   0.278681 0.485629 0.031713 0.102779
C15   C     C_2   0.721267 0.485561 0.968336 0.103039
C16   C     C_2   0.778676 0.985612 0.031708 0.103014
C17   C     C_2   0.221266 0.985572 0.968334 0.102893
C18   C     C_2   0.281233 0.504302 0.954691 -0.145183
C19   C     C_2   0.718717 0.504212 0.045356 -0.145082
C20   C     C_2   0.781226 0.004285 0.954686 -0.145718
C21   C     C_2   0.218715 0.004222 0.045354 -0.145008
C22   C     C_2   0.500232 0.834197 0.578902 -0.090816
C23   C     C_R   0.792180 0.489630 0.858503 0.548763
C24   C     C_2   0.502642 0.833153 0.422424 -0.085617
C25   C     C_2   0.997958 0.333534 0.577797 -0.084384
C26   C     C_2   0.000367 0.333740 0.421362 -0.086998
C27   C     C_2   0.513603 0.737528 0.464731 -0.118951
C28   C     C_2   0.494588 0.736498 0.537285 -0.116545
C29   C     C_2   0.006935 0.236305 0.463110 -0.117392
C30   C     C_2   0.988494 0.237005 0.535832 -0.112770
C31   C     C_2   0.265631 0.648818 0.566153 -0.076929
C32   C     C_2   0.734864 0.648323 0.433621 -0.073758
C33   C     C_2   0.751558 0.103124 0.573105 -0.076944
C34   C     C_R   0.207801 0.489685 0.141540 0.550282
C35   C     C_2   0.234375 0.148920 0.433844 -0.076889
C36   C     C_2   0.259705 0.610896 0.410523 0.069146
C37   C     C_2   0.739997 0.608446 0.588891 0.068803
C38   C     C_2   0.756151 0.100662 0.414419 0.073653
C39   C     C_2   0.240322 0.110632 0.589401 0.068857
C40   C     C_R   0.441804 0.818615 0.861536 0.518531
C41   C     C_R   0.558275 0.818705 0.138470 0.518653
C42   C     C_R   0.941803 0.318614 0.861536 0.518067
C43   C     C_R   0.058274 0.318705 0.138470 0.518613
C44   C     C_2   0.221444 0.689727 0.448448 -0.131732
C45   C     C_R   0.534815 0.059828 0.062539 -0.095956
C46   C     C_2   0.776374 0.691584 0.552084 -0.137215
C47   C     C_2   0.713312 0.164270 0.455788 -0.144482
C48   C     C_2   0.278389 0.190135 0.551590 -0.131652
C49   C     C_2   0.241222 0.729201 0.519059 -0.141508
C50   C     C_2   0.756281 0.730124 0.481363 -0.142994
C51   C     C_2   0.729688 0.190386 0.528275 -0.123122
C52   C     C_2   0.258594 0.229493 0.480947 -0.141688
C53   C     C_R   0.260900 0.638420 0.852150 0.532203
C54   C     C_R   0.739090 0.638382 0.147852 0.532625
C55   C     C_R   0.760899 0.138415 0.852148 0.523510
C56   C     C_R   0.465232 0.059742 0.937430 -0.096886
C57   C     C_R   0.239090 0.138383 0.147852 0.532616
C58   C     C_R   0.271363 0.047843 0.649271 0.571681
C59   C     C_R   0.728366 0.046742 0.350938 0.572980
C60   C     C_R   0.771337 0.547542 0.649188 0.579373
C61   C     C_R   0.228650 0.547836 0.350715 0.570786
C62   C     C_R   0.470115 0.824197 0.648019 0.571070
C63   C     C_R   0.530280 0.823999 0.352254 0.573613
C64   C     C_R   0.969825 0.324124 0.647797 0.581332
C65   C     C_R   0.029940 0.324061 0.352014 0.572625
C66   C     C_R   0.273831 0.686164 0.638340 0.556390
C67   C     C_R   0.034817 0.559826 0.062538 -0.096035
C68   C     C_R   0.726203 0.686230 0.361660 0.554049
C69   C     C_R   0.761012 0.139542 0.645254 0.550802
C70   C     C_R   0.226152 0.186281 0.361664 0.556153
C71   C     C_R   0.532980 0.827989 0.065853 -0.032880
C72   C     C_R   0.467182 0.827912 0.934119 -0.032810
C73   C     C_R   0.032979 0.327988 0.065853 -0.032801
C74   C     C_R   0.967179 0.327912 0.934120 -0.032247
C75   C     C_R   0.517238 0.943289 0.032903 0.004075
C76   C     C_R   0.482872 0.943248 0.967064 0.003891
C77   C     C_R   0.017237 0.443287 0.032903 0.004062
C78   C     C_R   0.965230 0.559741 0.937432 -0.096413
C79   C     C_R   0.982870 0.443246 0.967065 0.004170
C80   C     C_R   0.480987 0.716421 0.969338 -0.032460
C81   C     C_R   0.519260 0.716480 0.030623 -0.032643
C82   C     C_R   0.980983 0.216420 0.969339 -0.032273
C83   C     C_R   0.019256 0.216478 0.030624 -0.032597
C84   C     C_1   0.458637 0.597731 0.941793 0.291207
C85   C     C_1   0.541584 0.597859 0.058217 0.291059
C86   C     C_1   0.958632 0.097731 0.941793 0.291652
C87   C     C_1   0.041579 0.097857 0.058218 0.291038
C88   C     C_1   0.202436 0.676578 0.965730 0.225516
C89   C     C_R   0.016941 0.669877 0.031546 -0.073288
C90   C     C_1   0.797586 0.676726 0.034244 0.225300
C91   C     C_1   0.702432 0.176564 0.965727 0.226612
C92   C     C_1   0.297587 0.176733 0.034245 0.225508
Cr1   Cr    Cr6+3 0.230530 0.836340 0.748870 1.088268
Cr2   Cr    Cr6+3 0.614360 0.677860 0.250770 1.069316
Cr3   Cr    Cr6+3 0.885640 0.177860 0.749230 1.069863
Cr4   Cr    Cr6+3 0.114360 0.177860 0.250770 1.067652
Cr5   Cr    Cr6+3 0.769470 0.836340 0.251130 1.087910
Cr6   Cr    Cr6+3 0.730530 0.336340 0.748870 1.088916
Cr7   Cr    Cr6+3 0.269470 0.336340 0.251130 1.088650
Cr8   Cr    Cr6+3 0.387420 0.989430 0.750820 1.024228
Cr9   Cr    Cr6+3 0.612580 0.989430 0.249180 1.026028
Cr10  Cr    Cr6+3 0.887420 0.489430 0.750820 1.030687
Cr11  Cr    Cr6+3 0.112580 0.489430 0.249180 1.026409
Cr12  Cr    Cr6+3 0.385640 0.677860 0.749230 1.067336
H1    H     H_    0.170267 0.719043 0.430056 0.156973
H2    H     H_    0.728355 0.552049 0.446287 0.145289
H3    H     H_    0.763345 0.010273 0.556644 0.118349
H4    H     H_    0.224661 0.053793 0.447319 0.140206
H5    H     H_    0.564787 0.074379 0.108296 0.186830
H6    H     H_    0.435258 0.074216 0.891672 0.186755
H7    H     H_    0.064791 0.574376 0.108294 0.186780
H8    H     H_    0.935255 0.574214 0.891674 0.186597
H9    H     H_    0.030794 0.755870 0.056259 0.181112
H10   H     H_    0.969159 0.755794 0.943708 0.181057
H11   H     H_    0.530790 0.255872 0.056260 0.181204
H12   H     H_    0.825975 0.726263 0.571820 0.155470
H13   H     H_    0.469160 0.255794 0.943707 0.181235
H14   H     H_    0.316671 0.448979 0.923904 0.189684
H15   H     H_    0.683288 0.448710 0.076174 0.189735
H16   H     H_    0.816664 0.948964 0.923898 0.189042
H17   H     H_    0.183285 0.948720 0.076172 0.189631
H18   H     H_    0.168350 0.486402 0.034893 0.072973
H19   H     H_    0.831592 0.486590 0.965174 0.073226
H20   H     H_    0.668345 0.986397 0.034894 0.072520
H21   H     H_    0.331591 0.986595 0.965174 0.073245
H22   H     H_    0.534524 0.651524 0.445265 0.201531
H23   H     H_    0.661784 0.192437 0.437744 0.157262
H24   H     H_    0.476649 0.648369 0.556832 0.203217
H25   H     H_    0.025036 0.148436 0.443494 0.201527
H26   H     H_    0.968812 0.150183 0.555584 0.204136
H27   H     H_    0.481110 0.919017 0.441349 0.108222
H28   H     H_    0.518888 0.922041 0.559673 0.105644
H29   H     H_    0.981491 0.421315 0.440582 0.109461
H30   H     H_    0.018386 0.420164 0.558604 0.106994
H31   H     H_    0.329390 0.220243 0.570154 0.156440
H32   H     H_    0.226840 0.821100 0.535383 0.156635
H33   H     H_    0.767513 0.823695 0.465695 0.152496
H34   H     H_    0.716767 0.281862 0.546643 0.179261
H35   H     H_    0.272757 0.321606 0.464632 0.155701
H36   H     H_    0.275687 0.553887 0.552618 0.139690
I1    I     I_    0.366361 0.566443 0.432739 -0.405730
I2    I     I_    0.635768 0.551136 0.563724 -0.419092
I3    I     I_    0.861793 0.056194 0.440455 -0.410753
I4    I     I_    0.133963 0.064097 0.566874 -0.410664
I5    I     I_    0.378456 0.482363 0.082722 -0.265827
I6    I     I_    0.621514 0.481969 0.917299 -0.269125
I7    I     I_    0.878453 0.982333 0.082713 -0.266928
I8    I     I_    0.121514 0.981986 0.917296 -0.267010
N1    N     N_1   0.442758 0.503483 0.918956 -0.271239
N2    N     N_1   0.557407 0.503646 0.081102 -0.270978
N3    N     N_1   0.942752 0.003485 0.918955 -0.271712
N4    N     N_1   0.057402 0.003643 0.081102 -0.271325
N5    N     N_1   0.166439 0.736023 0.000347 -0.297033
N6    N     N_1   0.833629 0.736276 0.999607 -0.297391
N7    N     N_1   0.666436 0.236009 0.000344 -0.297055
N8    N     N_1   0.333632 0.236286 0.999612 -0.296970
O1    O     O_R   0.215090 0.709860 0.828130 -0.491476
O2    O     O_R   0.543740 0.718170 0.330000 -0.495556
O3    O     O_R   0.956260 0.218170 0.670000 -0.490745
O4    O     O_R   0.043740 0.218170 0.330000 -0.498437
O5    O     O_R   0.320940 0.626760 0.674370 -0.490636
O6    O     O_R   0.679060 0.626760 0.325630 -0.490550
O7    O     O_R   0.820940 0.126760 0.674370 -0.489772
O8    O     O_R   0.179060 0.126760 0.325630 -0.490804
O9    O     O_3   0.334530 0.834540 0.749640 -0.331999
O10   O     O_3   0.665470 0.834540 0.250360 -0.333712
O11   O     O_3   0.834530 0.334540 0.749640 -0.314960
O12   O     O_R   0.784910 0.709860 0.171870 -0.491373
O13   O     O_3   0.165470 0.334540 0.250360 -0.332780
O14   O     O_R   0.236990 0.958390 0.823710 -0.446873
O15   O     O_R   0.763010 0.958390 0.176290 -0.447341
O16   O     O_R   0.736990 0.458390 0.823710 -0.448107
O17   O     O_R   0.263010 0.458390 0.176290 -0.446951
O18   O     O_R   0.332380 0.074750 0.830850 -0.520504
O19   O     O_R   0.667620 0.074750 0.169150 -0.519980
O20   O     O_R   0.832380 0.574750 0.830850 -0.523672
O21   O     O_R   0.167620 0.574750 0.169150 -0.520411
O22   O     O_R   0.445800 0.917770 0.825070 -0.531196
O23   O     O_R   0.715090 0.209860 0.828130 -0.495188
O24   O     O_R   0.554200 0.917770 0.174930 -0.529598
O25   O     O_R   0.945800 0.417770 0.825070 -0.531879
O26   O     O_R   0.054200 0.417770 0.174930 -0.529952
O27   O     O_R   0.456410 0.716580 0.829970 -0.470181
O28   O     O_R   0.543590 0.716580 0.170030 -0.469038
O29   O     O_R   0.956410 0.216580 0.829970 -0.470199
O30   O     O_R   0.043590 0.216580 0.170030 -0.469754
O31   O     O_R   0.321080 0.625290 0.822650 -0.505895
O32   O     O_R   0.678920 0.625290 0.177350 -0.505848
O33   O     O_R   0.821080 0.125290 0.822650 -0.511356
O34   O     O_R   0.284910 0.209860 0.171870 -0.491265
O35   O     O_R   0.178920 0.125290 0.177350 -0.506010
O36   O     O_R   0.214930 0.711450 0.668160 -0.486405
O37   O     O_R   0.785070 0.711450 0.331840 -0.484785
O38   O     O_R   0.714930 0.211450 0.668160 -0.501823
O39   O     O_R   0.285070 0.211450 0.331840 -0.486177
O40   O     O_R   0.236850 0.959870 0.675420 -0.480674
O41   O     O_R   0.763150 0.959870 0.324580 -0.481882
O42   O     O_R   0.736850 0.459870 0.675420 -0.466226
O43   O     O_R   0.263150 0.459870 0.324580 -0.481092
O44   O     O_R   0.332230 0.076350 0.670880 -0.519694
O45   O     O_R   0.445660 0.919250 0.676780 -0.494357
O46   O     O_R   0.667770 0.076350 0.329120 -0.520469
O47   O     O_R   0.832230 0.576350 0.670880 -0.520672
O48   O     O_R   0.167770 0.576350 0.329120 -0.519563
O49   O     O_R   0.554340 0.919250 0.323220 -0.494506
O50   O     O_R   0.945660 0.419250 0.676780 -0.491171
O51   O     O_R   0.054340 0.419250 0.323220 -0.493171
O52   O     O_R   0.456260 0.718170 0.670000 -0.497784

loop_
_geom_bond_atom_site_label_1
_geom_bond_atom_site_label_2
_ccdc_geom_bond_type
C44   C49   S    
C43   C73   S    
C31   C66   S    
C83   C87   S    
C75   C76   A    
Cr10  O11   S    
C56   C76   A    
Cr11  O26   S    
C38   I3    S    
C14   C18   S    
C48   H31   S    
C11   H20   S    
C33   H3    S    
C24   C27   D    
C7    C55   S    
Cr4   O13   S    
C80   C84   S    
C5    C18   D    
Cr8   O22   S    
C61   O43   A    
C50   H33   S    
C44   H1    S    
C15   C19   S    
C6    C19   D    
C14   I5    S    
C58   O44   A    
C16   I7    S    
Cr3   O3    S    
C55   O33   A    
Cr4   O35   S    
C5    C53   S    
Cr2   O32   S    
C57   O35   A    
Cr3   O7    S    
C10   C15   D    
C19   H15   S    
C61   O48   A    
C27   H22   S    
C45   H5    S    
Cr10  O20   S    
Cr5   O10   S    
Cr7   O39   S    
C1    O14   A    
C67   C89   A    
C52   H35   S    
Cr6   O38   S    
C11   C16   D    
C56   H6    S    
C46   H12   S    
Cr11  O48   S    
C35   H4    S    
C41   O24   A    
Cr12  O9    S    
C85   N2    T    
C5    C88   S    
C29   H25   S    
C23   O16   A    
C35   C70   S    
C70   O39   A    
C66   O36   A    
C41   O28   A    
C68   O37   A    
C8    C92   S    
C90   N6    T    
Cr2   O6    S    
Cr6   O11   S    
C37   C46   D    
C33   C69   S    
C87   N4    T    
C32   C68   S    
C40   O27   A    
Cr6   O16   S    
C84   N1    T    
C15   I6    S    
Cr1   O9    S    
Cr2   O2    S    
C32   H2    S    
C4    C56   A    
Cr10  O25   S    
Cr2   O10   S    
Cr2   O28   S    
C31   C49   D    
C65   O4    A    
Cr11  O51   S    
C62   O52   A    
C8    C21   D    
C12   O15   A    
C77   C79   A    
C42   O25   A    
Cr1   O14   S    
C89   H9    S    
C1    O18   A    
C42   C74   S    
C37   I2    S    
Cr6   O42   S    
Cr5   O41   S    
C17   I8    S    
C10   H19   S    
Cr12  O5    S    
C9    C14   D    
C78   C79   A    
C47   C51   S    
C23   O20   A    
C43   O30   A    
C6    C90   S    
C39   C58   S    
C64   O50   A    
C3    C45   A    
C17   C21   S    
Cr4   O8    S    
C66   O5    A    
C70   O8    A    
Cr8   O9    S    
Cr11  O21   S    
C25   C64   S    
C2    C89   A    
C36   I1    S    
C62   O45   A    
C91   N7    T    
C29   C30   S    
C2    C78   A    
Cr4   O30   S    
C8    C57   S    
C22   C62   S    
Cr8   O45   S    
C60   O47   A    
Cr7   O17   S    
C16   C20   S    
C7    C91   S    
C9    H18   S    
C41   C71   S    
C30   H26   S    
C72   C76   A    
C92   N8    T    
Cr1   O1    S    
C25   H30   S    
Cr10  O50   S    
C32   C50   D    
C38   C47   D    
Cr9   O49   S    
C12   O19   A    
C40   O22   A    
Cr8   O44   S    
C42   O29   A    
C67   H7    S    
Cr4   O4    S    
C49   H32   S    
C71   C75   A    
C6    C54   S    
C24   C63   S    
C68   O6    A    
C74   C79   A    
Cr8   O18   S    
C9    C34   S    
C4    H13   S    
C36   C44   D    
Cr1   O40   S    
C1    C13   S    
C24   H27   S    
Cr7   O43   S    
C3    C4    A    
C20   H16   S    
Cr3   O29   S    
Cr11  O13   S    
C74   C82   A    
Cr1   O36   S    
C25   C30   D    
Cr12  O31   S    
C18   H14   S    
C35   C52   D    
C40   C72   S    
C22   H28   S    
Cr9   O46   S    
C67   C77   A    
C26   C65   S    
C55   O23   A    
C69   O7    A    
C54   O12   A    
C80   C81   A    
C54   O32   A    
Cr3   O11   S    
Cr7   O34   S    
C78   H8    S    
C11   C12   S    
C47   H23   S    
C36   C61   S    
C65   O51   A    
C60   O42   A    
C10   C23   S    
C33   C51   D    
Cr5   O12   S    
C46   C50   S    
C43   O26   A    
C53   O1    A    
Cr5   O15   S    
C13   C17   D    
C45   C75   A    
C88   N5    T    
Cr6   O23   S    
C13   H21   S    
C57   O34   A    
C72   C80   A    
Cr9   O24   S    
C3    H11   S    
C86   N3    T    
C82   C86   S    
C2    H10   S    
C59   O46   A    
C26   H29   S    
C59   O41   A    
C64   O3    A    
C58   O40   A    
C69   O38   A    
Cr10  O47   S    
Cr12  O52   S    
C21   H17   S    
Cr9   O10   S    
C37   C60   S    
Cr9   O19   S    
Cr3   O33   S    
C53   O31   A    
C38   C59   S    
C51   H34   S    
Cr7   O13   S    
C48   C52   S    
Cr12  O27   S    
C39   I4    S    
C26   C29   D    
C7    C20   D    
C63   O49   A    
Cr5   O37   S    
C27   C28   S    
C34   O17   A    
C73   C77   A    
C34   O21   A    
C22   C28   D    
C63   O2    A    
C82   C83   A    
C31   H36   S    
C73   C83   A    
C81   C85   S    
C28   H24   S    
C39   C48   D    
C71   C81   A    
