data_mof_unit_43265.cif
_audit_creation_date              2012-12-10T17:46:28-0500
_audit_creation_method            fapswitch 2.2
_symmetry_space_group_name_H-M    P1
_symmetry_Int_Tables_number       1
_space_group_crystal_system       triclinic
_cell_length_a                    20.730111
_cell_length_b                    21.250298
_cell_length_c                    14.787031
_cell_angle_alpha                 90.188424
_cell_angle_beta                  127.943371
_cell_angle_gamma                 89.912764
_cell_volume                      5137.03307591

loop_
_atom_site_label
_atom_site_type_symbol
_atom_type_description
_atom_site_fract_x
_atom_site_fract_y
_atom_site_fract_z
_atom_type_partial_charge
C1    C     C_R   0.603150 0.913835 0.631533 0.836798
C2    C     C_R   0.706263 0.199443 0.116379 -0.185987
C3    C     C_R   0.735016 0.782828 0.978384 0.094237
C4    C     C_R   0.243296 0.709903 0.989052 0.086779
C5    C     C_R   0.797810 0.259651 0.058782 0.090065
C6    C     C_R   0.786242 0.730969 0.044518 0.093497
C7    C     C_R   0.232960 0.281711 0.976481 0.096162
C8    C     C_R   0.350715 0.783364 0.036929 -0.197278
C9    C     C_R   0.701102 0.178677 0.023088 -0.208498
C10   C     C_R   0.695601 0.815833 0.015472 -0.216868
C11   C     C_R   0.334253 0.203667 0.016777 -0.217923
C12   C     C_R   0.850720 0.283457 0.036809 -0.199425
C13   C     C_R   0.702793 0.796858 0.110838 -0.176632
C14   C     C_R   0.200141 0.679247 0.022134 -0.201871
C15   C     C_R   0.191270 0.313356 0.011324 -0.212659
C16   C     C_R   0.833468 0.702855 0.015620 -0.216800
C17   C     C_R   0.329382 0.224312 0.923965 -0.173891
C18   C     C_R   0.846279 0.262238 0.944365 -0.179616
C19   C     C_R   0.205154 0.700107 0.115255 -0.172840
C20   C     C_R   0.197548 0.293770 0.105690 -0.201819
C21   C     C_R   0.827803 0.722944 0.921899 -0.173867
C22   C     C_R   0.323223 0.012182 0.666697 -0.264853
C23   C     C_R   0.677970 0.990738 0.335219 -0.271601
C24   C     C_R   0.823170 0.512227 0.666587 -0.264884
C25   C     C_R   0.397105 0.086294 0.368783 0.837250
C26   C     C_R   0.177912 0.490951 0.335025 -0.273293
C27   C     C_R   0.352038 0.004761 0.603725 0.053327
C28   C     C_R   0.648176 0.996062 0.397228 0.056494
C29   C     C_R   0.852036 0.504856 0.603669 0.052843
C30   C     C_R   0.148197 0.496410 0.397137 0.055787
C31   C     C_R   0.488695 0.999371 0.775066 0.714560
C32   C     C_R   0.511988 0.001774 0.224926 0.710767
C33   C     C_R   0.988641 0.499223 0.775084 0.714758
C34   C     C_R   0.011909 0.501536 0.224908 0.710455
C35   C     C_R   0.462682 0.002031 0.845374 -0.159042
C36   C     C_R   0.397626 0.913214 0.369267 0.836966
C37   C     C_R   0.539071 0.001355 0.155913 -0.159139
C38   C     C_R   0.962548 0.501801 0.845286 -0.159157
C39   C     C_R   0.038898 0.500925 0.155789 -0.159565
C40   C     C_R   0.377945 0.012455 0.787519 0.071047
C41   C     C_R   0.623991 0.991813 0.214433 0.068739
C42   C     C_R   0.877833 0.512330 0.787411 0.070832
C43   C     C_R   0.123771 0.491253 0.214239 0.066149
C44   C     C_R   0.516589 0.997011 0.969268 0.054951
C45   C     C_R   0.485796 0.007645 0.032411 0.053265
C46   C     C_R   0.016402 0.496630 0.969135 0.054812
C47   C     C_R   0.603895 0.085573 0.632609 0.838941
C48   C     C_R   0.985616 0.507254 0.032292 0.053512
C49   C     C_R   0.403480 0.026247 0.970353 -0.206827
C50   C     C_R   0.599684 0.980291 0.032126 -0.221994
C51   C     C_R   0.903321 0.525913 0.970256 -0.206705
C52   C     C_R   0.099393 0.479619 0.031896 -0.220768
C53   C     C_R   0.349219 0.025989 0.850414 0.161196
C54   C     C_R   0.653677 0.980738 0.152106 0.149588
C55   C     C_R   0.849082 0.525782 0.850307 0.160145
C56   C     C_R   0.153339 0.479740 0.151874 0.156182
C57   C     C_R   0.667173 0.131753 0.711702 -0.179301
C58   C     C_R   0.103149 0.413849 0.631528 0.836554
C59   C     C_R   0.343745 0.859767 0.301511 -0.179537
C60   C     C_R   0.340959 0.137953 0.298474 -0.177154
C61   C     C_R   0.663122 0.864920 0.706378 -0.177388
C62   C     C_R   0.167128 0.631776 0.711646 -0.179639
C63   C     C_R   0.843966 0.359606 0.301748 -0.179355
C64   C     C_R   0.841833 0.638578 0.299436 -0.177584
C65   C     C_R   0.163176 0.365013 0.706471 -0.176534
C66   C     C_R   0.781316 0.199543 0.772614 -0.250407
C67   C     C_R   0.253354 0.774906 0.267875 -0.248727
C68   C     C_R   0.249970 0.222605 0.263319 -0.256130
C69   C     C_R   0.897252 0.586411 0.368949 0.837713
C70   C     C_R   0.767851 0.789395 0.756253 -0.244574
C71   C     C_R   0.281608 0.699270 0.773017 -0.249842
C72   C     C_R   0.754249 0.274344 0.268808 -0.252595
C73   C     C_R   0.754220 0.725222 0.267615 -0.247610
C74   C     C_R   0.269836 0.290957 0.758680 -0.244953
C75   C     C_R   0.721739 0.156514 0.694522 0.615150
C76   C     C_R   0.299522 0.827715 0.330555 0.616528
C77   C     C_R   0.298317 0.171403 0.328873 0.615989
C78   C     C_R   0.713198 0.836398 0.683961 0.614993
C79   C     C_R   0.221998 0.656284 0.694843 0.616099
C80   C     C_R   0.897668 0.413178 0.369313 0.836242
C81   C     C_R   0.800121 0.327320 0.331188 0.616322
C82   C     C_R   0.801180 0.673216 0.331811 0.614683
C83   C     C_R   0.214799 0.337636 0.685860 0.614337
C84   C     C_R   0.674055 0.149948 0.808254 -0.304094
C85   C     C_R   0.340577 0.838446 0.209381 -0.311307
C86   C     C_R   0.333434 0.155781 0.201528 -0.319232
C87   C     C_R   0.669689 0.846504 0.802403 -0.311341
C88   C     C_R   0.173692 0.650214 0.807842 -0.302398
C89   C     C_R   0.840701 0.338351 0.209499 -0.312980
C90   C     C_R   0.833551 0.655957 0.201723 -0.317900
C91   C     C_R   0.103879 0.585582 0.632586 0.839919
C92   C     C_R   0.168378 0.345654 0.800995 -0.310787
C93   C     C_R   0.735404 0.191575 0.890059 0.080318
C94   C     C_R   0.297687 0.783659 0.148629 0.082849
C95   C     C_R   0.288521 0.209147 0.137636 0.086739
C96   C     C_R   0.726289 0.800763 0.878657 0.082330
C97   C     C_R   0.235099 0.691751 0.889780 0.081140
C98   C     C_R   0.798107 0.283413 0.149032 0.083167
C99   C     C_R   0.790058 0.710049 0.139129 0.085196
C100  C     C_R   0.225372 0.300326 0.877893 0.081166
C101  C     C_R   0.787965 0.217768 0.869193 0.062597
C102  C     C_R   0.346436 0.762030 0.944673 -0.178734
C103  C     C_R   0.251907 0.752768 0.177248 0.061648
C104  C     C_R   0.245057 0.241861 0.168673 0.069682
C105  C     C_R   0.774202 0.770983 0.852395 0.063739
C106  C     C_R   0.288006 0.717673 0.869330 0.062181
C107  C     C_R   0.752717 0.252275 0.178071 0.065154
C108  C     C_R   0.748720 0.744062 0.172314 0.063698
C109  C     C_R   0.275060 0.271797 0.853618 0.064180
C110  C     C_R   0.743833 0.209592 0.989564 0.089337
C111  C     C_R   0.297490 0.759808 0.058513 0.090197
C112  C     C_R   0.285327 0.230568 0.043777 0.092639
Cu1   Cu    Cu3+1 0.526640 0.000000 0.436960 1.048122
Cu2   Cu    Cu3+1 0.473360 1.000000 0.563040 1.050769
Cu3   Cu    Cu3+1 0.026640 0.500000 0.436960 1.047891
Cu4   Cu    Cu3+1 0.973360 0.500000 0.563040 1.050912
F1    F     F_    0.300990 0.846873 0.419471 -0.651028
F2    F     F_    0.568600 0.002025 0.820884 -0.699997
F3    F     F_    0.931685 0.497845 0.177424 -0.695866
F4    F     F_    0.068603 0.501820 0.821122 -0.698039
F5    F     F_    0.717270 0.139978 0.602052 -0.654473
F6    F     F_    0.708576 0.852808 0.591479 -0.652770
F7    F     F_    0.303834 0.155391 0.422216 -0.651541
F8    F     F_    0.801716 0.346392 0.420249 -0.651444
F9    F     F_    0.217827 0.639515 0.602703 -0.652796
F10   F     F_    0.211516 0.354979 0.594833 -0.655362
F11   F     F_    0.807554 0.657698 0.426006 -0.650172
F12   F     F_    0.431742 0.998107 0.177337 -0.695535
H1    H     H_    0.388244 0.781326 0.931064 0.151275
H2    H     H_    0.624966 0.965295 0.990629 0.205403
H3    H     H_    0.879415 0.542655 0.012937 0.201908
H4    H     H_    0.124416 0.463948 0.990326 0.204389
H5    H     H_    0.371029 0.866237 0.185079 0.207753
H6    H     H_    0.629141 0.132355 0.816263 0.205872
H7    H     H_    0.628118 0.867513 0.814144 0.199883
H8    H     H_    0.362850 0.126606 0.177088 0.199780
H9    H     H_    0.870845 0.366303 0.184890 0.207948
H10   H     H_    0.128508 0.632857 0.815480 0.205308
H11   H     H_    0.125556 0.365693 0.811131 0.198894
H12   H     H_    0.672645 0.174433 0.139314 0.152015
H13   H     H_    0.861316 0.625904 0.175746 0.199590
H14   H     H_    0.322591 0.718504 0.757846 0.174435
H15   H     H_    0.720223 0.250284 0.291951 0.175576
H16   H     H_    0.723081 0.751428 0.293528 0.178949
H17   H     H_    0.308337 0.269587 0.740598 0.177092
H18   H     H_    0.822042 0.218982 0.757129 0.174057
H19   H     H_    0.219026 0.751032 0.290694 0.176469
H20   H     H_    0.217216 0.247847 0.287612 0.175050
H21   H     H_    0.805035 0.767087 0.736669 0.178148
H22   H     H_    0.398356 0.817094 0.091907 0.154868
H23   H     H_    0.671913 0.823772 0.136475 0.163285
H24   H     H_    0.664980 0.136876 0.981108 0.166002
H25   H     H_    0.660440 0.857950 0.974900 0.143808
H26   H     H_    0.379100 0.167598 0.067446 0.144377
H27   H     H_    0.898229 0.317311 0.091613 0.154084
H28   H     H_    0.163787 0.637568 0.979952 0.167521
H29   H     H_    0.154820 0.354829 0.969707 0.143815
H30   H     H_    0.877591 0.666226 0.065493 0.144564
H31   H     H_    0.690077 0.994650 0.489932 0.190182
H32   H     H_    0.309636 0.005587 0.511020 0.180202
H33   H     H_    0.190190 0.495419 0.489858 0.192007
H34   H     H_    0.368146 0.202499 0.906691 0.156029
H35   H     H_    0.809673 0.505789 0.510967 0.179173
H36   H     H_    0.258127 0.018787 0.620030 0.190418
H37   H     H_    0.743232 0.984779 0.382573 0.192569
H38   H     H_    0.758084 0.518921 0.619879 0.190582
H39   H     H_    0.243253 0.485630 0.382228 0.196266
H40   H     H_    0.255735 0.061458 0.848354 0.227677
H41   H     H_    0.231115 0.000150 0.760705 0.227200
H42   H     H_    0.749591 0.951196 0.154630 0.226260
H43   H     H_    0.770889 0.009685 0.245554 0.226562
H44   H     H_    0.755512 0.560878 0.848419 0.227688
H45   H     H_    0.887836 0.281734 0.930444 0.150706
H46   H     H_    0.730863 0.500081 0.759816 0.227511
H47   H     H_    0.252569 0.464522 0.154228 0.231070
H48   H     H_    0.248744 0.419960 0.244311 0.220685
H49   H     H_    0.171207 0.675298 0.137843 0.155940
H50   H     H_    0.164721 0.319523 0.129389 0.147288
H51   H     H_    0.865250 0.700189 0.903131 0.156847
H52   H     H_    0.379582 0.043063 0.013008 0.202032
N1    N     N_R   0.433280 1.000000 0.657760 -0.217585
N2    N     N_R   0.566720 0.000000 0.342240 -0.221464
N3    N     N_R   0.933280 0.500000 0.657760 -0.217716
N4    N     N_R   0.066720 0.500000 0.342240 -0.221610
N5    N     N_3   0.264639 0.042042 0.791704 -0.583676
N6    N     N_3   0.739028 0.967246 0.211414 -0.589011
N7    N     N_3   0.764518 0.541897 0.791604 -0.582991
N8    N     N_3   0.238459 0.465390 0.211038 -0.583019
O1    O     O_R   0.600040 0.935040 0.546740 -0.544788
O2    O     O_R   0.444990 0.064930 0.346780 -0.552455
O3    O     O_R   0.444990 0.935070 0.346780 -0.543461
O4    O     O_R   0.555010 0.064930 0.653220 -0.542317
O5    O     O_R   0.055010 0.435070 0.653220 -0.550500
O6    O     O_R   0.944990 0.564930 0.346780 -0.551895
O7    O     O_R   0.944990 0.435070 0.346780 -0.544081
O8    O     O_R   0.055010 0.564930 0.653220 -0.542035
O9    O     O_R   0.399960 0.064960 0.453260 -0.544189
O10   O     O_R   0.399960 0.935040 0.453260 -0.542910
O11   O     O_R   0.600040 0.064960 0.546740 -0.543271
O12   O     O_R   0.100040 0.435040 0.546740 -0.544984
O13   O     O_R   0.899960 0.564960 0.453260 -0.544365
O14   O     O_R   0.899960 0.435040 0.453260 -0.543055
O15   O     O_R   0.100040 0.564960 0.546740 -0.542857
O16   O     O_R   0.555010 0.935070 0.653220 -0.550136

loop_
_geom_bond_atom_site_label_1
_geom_bond_atom_site_label_2
_ccdc_geom_bond_type
C72   H15   S    
C96   C105  A    
C9    H24   S    
C69   O13   A    
C16   C21   A    
C65   C92   A    
C36   O3    A    
C24   C42   A    
C94   C111  A    
C74   H17   S    
C8    H22   S    
C102  H1    S    
C64   C90   A    
C74   C83   A    
C3    C6    A    
C74   C109  A    
C71   C79   A    
Cu3   N4    S    
C67   C103  A    
C95   C104  A    
C99   C108  A    
C58   O12   A    
C50   C54   A    
C63   C81   A    
C68   C77   A    
C32   N2    A    
C36   O10   A    
C38   C42   A    
C95   C112  A    
C42   C55   A    
C65   C83   A    
C70   C78   A    
C5    C110  A    
H44   N7    S    
Cu3   Cu4   S    
Cu4   N3    S    
C46   C52   A    
C2    C107  A    
C34   F3    S    
C7    C112  A    
C11   C17   A    
C47   O4    A    
C28   N2    A    
C24   C29   A    
C53   N5    S    
C61   C87   A    
C11   H26   S    
H47   N8    S    
C23   H37   S    
C19   C103  A    
C48   C51   A    
C80   O14   A    
C56   N8    S    
Cu2   O9    S    
Cu3   O15   S    
C33   N3    A    
C34   N4    A    
C3    C96   A    
C25   C60   S    
C55   N7    S    
C50   H2    S    
C19   H49   S    
C51   C55   A    
C72   C81   A    
C68   H20   S    
C93   C110  A    
C84   C93   A    
C49   H52   S    
C36   C59   S    
C7    C15   A    
C79   F9    S    
C100  C109  A    
C4    C97   A    
C31   N1    A    
C4    C14   A    
C66   C101  A    
C47   O11   A    
C70   H21   S    
C13   C108  A    
C10   H25   S    
C26   C43   A    
Cu4   O13   S    
C63   C80   S    
C15   C20   A    
Cu1   O3    S    
C46   C48   A    
C26   H39   S    
Cu2   O4    S    
C7    C100  A    
C81   F8    S    
C16   H30   S    
C34   C39   A    
C52   H4    S    
C87   H7    S    
C62   C79   A    
C13   H23   S    
C5    C12   A    
C86   C95   A    
C8    C111  A    
C93   C101  A    
C60   C77   A    
C60   C86   A    
C73   C108  A    
C39   C43   A    
C27   H32   S    
C23   C28   A    
C62   C88   A    
C10   C13   A    
C28   H31   S    
C98   C107  A    
C1    C61   S    
C18   C101  A    
Cu1   O2    S    
C24   H38   S    
C29   H35   S    
C59   C85   A    
C31   F2    S    
C77   F7    S    
H46   N7    S    
C47   C57   S    
C22   H36   S    
C85   C94   A    
C58   C65   S    
Cu4   O14   S    
Cu1   N2    S    
C72   C107  A    
C45   C49   A    
C61   C78   A    
C22   C40   A    
C62   C91   S    
H42   N6    S    
Cu1   O11   S    
C57   C84   A    
C32   C37   A    
C35   C44   A    
C64   C82   A    
C92   H11   S    
C27   N1    A    
C71   H14   S    
C97   C106  A    
C86   H8    S    
Cu3   O6    S    
C94   C103  A    
C26   C30   A    
C89   H9    S    
C22   C27   A    
Cu2   O10   S    
C67   H19   S    
C31   C35   A    
Cu4   O5    S    
C12   H27   S    
C37   C45   A    
C73   C82   A    
C44   C45   A    
C92   C100  A    
Cu1   Cu2   S    
C44   C50   A    
C9    C110  A    
C90   C99   A    
C80   O7    A    
Cu3   O7    S    
C84   H6    S    
H48   N8    S    
C51   H3    S    
H40   N5    S    
C29   N3    A    
H43   N6    S    
C14   H28   S    
C11   C112  A    
C75   F5    S    
C30   N4    A    
C14   C19   A    
C4    C111  A    
C88   C97   A    
C70   C105  A    
C17   C109  A    
C20   H50   S    
C87   C96   A    
C15   H29   S    
C20   C104  A    
Cu2   N1    S    
Cu1   O1    S    
Cu3   O12   S    
C88   H10   S    
C58   O5    A    
C76   F1    S    
C23   C41   A    
C89   C98   A    
C25   O2    A    
C2    H12   S    
C6    C99   A    
C32   F12   S    
C68   C104  A    
C35   C40   A    
H41   N5    S    
C3    C10   A    
C38   C46   A    
C91   O8    A    
C1    O16   A    
C57   C75   A    
C49   C53   A    
C66   C75   A    
C69   O6    A    
C102  C106  A    
Cu2   O16   S    
C63   C89   A    
C41   C54   A    
C37   C41   A    
C64   C69   S    
C78   F6    S    
C91   O15   A    
C82   F11   S    
C66   H18   S    
C90   H13   S    
C25   O9    A    
C17   H34   S    
C6    C16   A    
Cu4   O8    S    
C18   H45   S    
C43   C56   A    
C21   H51   S    
C5    C98   A    
C33   F4    S    
C40   C53   A    
C54   N6    S    
C71   C106  A    
C12   C18   A    
C33   C38   A    
C67   C76   A    
C83   F10   S    
C30   H33   S    
C2    C9    A    
C8    C102  A    
C59   C76   A    
C21   C105  A    
C52   C56   A    
C85   H5    S    
C39   C48   A    
C73   H16   S    
C1    O1    A    
