data_mof_unit_50339.cif
_audit_creation_date              2012-12-10T17:00:01-0500
_audit_creation_method            fapswitch 2.2
_symmetry_space_group_name_H-M    P1
_symmetry_Int_Tables_number       1
_space_group_crystal_system       triclinic
_cell_length_a                    23.509203
_cell_length_b                    10.913573
_cell_length_c                    9.721741
_cell_angle_alpha                 89.631502
_cell_angle_beta                  89.787682
_cell_angle_gamma                 90.20863
_cell_volume                      2494.21581956

loop_
_atom_site_label
_atom_site_type_symbol
_atom_type_description
_atom_site_fract_x
_atom_site_fract_y
_atom_site_fract_z
_atom_type_partial_charge
C1    C     C_R   0.498247 0.265417 0.500331 0.856359
C2    C     C_R   0.969968 0.283950 0.419808 -0.216827
C3    C     C_R   0.029469 0.282169 0.420313 0.163435
C4    C     C_R   0.060344 0.385739 0.467132 -0.008257
C5    C     C_R   0.030245 0.489539 0.514963 -0.107703
C6    C     C_R   0.060072 0.593996 0.562716 -0.007831
C7    C     C_R   0.028989 0.696584 0.610580 0.162624
C8    C     C_R   0.969528 0.694038 0.609939 -0.215240
C9    C     C_R   0.120342 0.389974 0.466907 0.561869
C10   C     C_R   0.120032 0.592058 0.560214 0.560544
C11   C     C_R   0.237226 0.569922 0.411055 -0.069515
C12   C     C_R   0.391141 0.502843 0.500195 0.768814
C13   C     C_R   0.296871 0.577103 0.407367 -0.045908
C14   C     C_R   0.328621 0.504624 0.501184 -0.117797
C15   C     C_R   0.300062 0.430300 0.597839 -0.202914
C16   C     C_R   0.240911 0.425267 0.600701 -0.083691
C17   C     C_R   0.209375 0.494750 0.507250 0.292948
C18   C     C_R   0.758456 0.417454 0.595937 0.205236
C19   C     C_R   0.699083 0.423012 0.592196 -0.226218
C20   C     C_R   0.671358 0.502533 0.500573 -0.138792
C21   C     C_R   0.703759 0.579858 0.412618 -0.081950
C22   C     C_R   0.763290 0.571485 0.415051 -0.122333
C23   C     C_R   0.503339 0.734446 0.499607 0.739227
C24   C     C_R   0.790643 0.491398 0.506176 0.318640
C25   C     C_2   0.497424 0.933737 0.392857 -0.148109
C26   C     C_2   0.516589 0.864587 0.498335 -0.149063
C27   C     C_2   0.501484 0.067360 0.388484 -0.095236
C28   C     C_2   0.493280 0.133368 0.502232 -0.257279
C29   C     C_2   0.460683 0.446762 0.922583 -0.086068
C30   C     C_2   0.466243 0.432221 0.076710 -0.117452
C31   C     C_R   0.608858 0.502192 0.499847 0.787831
C32   C     C_R   0.880129 0.589611 0.559945 0.556469
C33   C     C_R   0.880270 0.389033 0.463781 0.592153
C34   C     C_R   0.939992 0.386456 0.465859 -0.039302
C35   C     C_R   0.970052 0.489123 0.514479 -0.017429
C36   C     C_R   0.939807 0.591653 0.561979 -0.030833
Cu1   Cu    Cu3+1 0.500010 0.500020 0.638630 0.961710
Cu2   Cu    Cu3+1 0.499990 0.499980 0.361370 0.987698
H1    H     H_    0.947369 0.204004 0.382861 0.190395
H2    H     H_    0.674521 0.364423 0.660749 0.170918
H3    H     H_    0.789009 0.629872 0.348898 0.188488
H4    H     H_    0.474842 0.891315 0.308090 0.152961
H5    H     H_    0.508060 0.111334 0.289110 0.168347
H6    H     H_    0.482970 0.089386 0.599783 0.150453
H7    H     H_    0.423222 0.408952 0.873603 0.165891
H8    H     H_    0.538700 0.512258 0.890226 0.215349
H9    H     H_    0.441093 0.360734 0.125872 0.159822
H10   H     H_    0.946760 0.773597 0.646785 0.191260
H11   H     H_    0.211877 0.624615 0.341116 0.180856
H12   H     H_    0.323699 0.374655 0.670346 0.152540
H13   H     H_    0.219487 0.367598 0.675849 0.151450
N1    N     N_R   0.851684 0.489566 0.510664 -0.455169
N2    N     N_R   0.148376 0.491858 0.512162 -0.485965
N3    N     N_2   0.499380 0.498660 0.846910 -0.291390
N4    N     N_2   0.499370 0.498630 0.153040 -0.214448
O1    O     O_R   0.500010 0.321960 0.617040 -0.567876
O2    O     O_2   0.850980 0.292416 0.414266 -0.518093
O3    O     O_2   0.150818 0.294131 0.420557 -0.483521
O4    O     O_2   0.150227 0.688969 0.605602 -0.480392
O5    O     O_R   0.499990 0.321920 0.382900 -0.578417
O6    O     O_R   0.417890 0.499980 0.617100 -0.567857
O7    O     O_R   0.417870 0.499940 0.382950 -0.599280
O8    O     O_R   0.500010 0.678080 0.617100 -0.582897
O9    O     O_R   0.499990 0.678040 0.382960 -0.568630
O10   O     O_R   0.582130 0.500060 0.617050 -0.571100
O11   O     O_R   0.582110 0.500020 0.382900 -0.546044
O12   O     O_2   0.850672 0.686694 0.607161 -0.520852
C37   C     C_2   0.676666 0.675153 0.325421 0.479016
H14   H     H_    0.632967 0.702024 0.343580 0.108764
O13   O     O_2   0.703240 0.726679 0.233521 -0.502997
C38   C     C_2   0.556507 0.909127 0.606054 0.361742
H15   H     H_    0.558097 0.863098 0.705242 0.093301
O14   O     O_2   0.590195 0.992190 0.582657 -0.508296
N5    N     N_3   0.057866 0.174344 0.372721 -0.497276
H16   H     H_    0.045179 0.158183 0.271443 0.227520
H17   H     H_    0.044315 0.100125 0.433183 0.218492
C39   C     C_2   0.516267 0.616386 0.102726 0.611049
H18   H     H_    0.489658 0.667762 0.031818 0.010227
O15   O     O_2   0.560972 0.661774 0.140408 -0.548209
N6    N     N_3   0.057124 0.804448 0.659696 -0.496404
H19   H     H_    0.043872 0.819585 0.760950 0.227704
H20   H     H_    0.043929 0.878960 0.599793 0.218318
C40   C     C_2   0.324609 0.665303 0.310895 0.381066
H21   H     H_    0.368871 0.690936 0.323091 0.076522
O16   O     O_2   0.297906 0.712331 0.216979 -0.528446
N7    N     N_3   0.786271 0.338038 0.692010 -0.551726
H22   H     H_    0.773071 0.362125 0.790999 0.230836
H23   H     H_    0.772410 0.248480 0.673791 0.252189

loop_
_geom_bond_atom_site_label_1
_geom_bond_atom_site_label_2
_ccdc_geom_bond_type
C24   N1    S    
C31   O11   A    
C19   C20   A    
C16   H13   S    
C7    C8    A    
C39   H18   S    
C33   N1    A    
C18   N7    S    
N5    H17   S    
C18   C24   A    
C32   C36   A    
Cu1   Cu2   S    
C34   C35   A    
C5    C6    A    
N4    C39   S    
N7    H23   S    
C15   H12   S    
C22   H3    S    
C29   N3    D    
C15   C16   A    
C18   C19   A    
C8    C36   A    
C23   C26   S    
C3    N5    S    
C10   N2    A    
C32   N1    A    
C37   H14   S    
Cu1   O1    S    
C2    H1    S    
Cu2   N4    S    
Cu2   O11   S    
C16   C17   A    
Cu1   O10   S    
C1    C28   S    
C2    C34   A    
C23   O8    A    
C21   C22   A    
C26   C38   S    
Cu1   O8    S    
Cu2   O9    S    
C39   O15   D    
N5    H16   S    
C30   H9    S    
N6    H20   S    
C1    O5    A    
C38   O14   D    
N7    H22   S    
C4    C5    A    
C25   C26   D    
C28   H6    S    
C29   H7    S    
C35   C36   A    
C8    H10   S    
C29   C30   S    
C11   H11   S    
C12   O7    A    
C40   H21   S    
H8    N3    S    
C33   C34   A    
C32   O12   S    
Cu2   O5    S    
Cu1   N3    S    
C23   O9    A    
C40   O16   D    
C12   C14   S    
C21   C37   S    
C22   C24   A    
C9    N2    A    
C3    C4    A    
C17   N2    S    
C31   O10   A    
C11   C17   A    
C33   O2    S    
C1    O1    A    
N6    H19   S    
C25   H4    S    
C6    C10   A    
Cu1   O6    S    
C6    C7    A    
C25   C27   S    
C30   N4    D    
C13   C40   S    
C2    C3    A    
C38   H15   S    
C12   O6    A    
C11   C13   A    
C5    C35   A    
C10   O4    S    
C19   H2    S    
C27   H5    S    
C20   C21   A    
C9    O3    S    
C37   O13   D    
C27   C28   D    
C14   C15   A    
C4    C9    A    
C13   C14   A    
C7    N6    S    
Cu2   O7    S    
C20   C31   S    
