data_mof_unit_36819.cif
_audit_creation_date              2013-03-05T15:45:33-0500
_audit_creation_method            fapswitch 2.2
_symmetry_space_group_name_H-M    P1
_symmetry_Int_Tables_number       1
_space_group_crystal_system       triclinic
_cell_length_a                    8.603861
_cell_length_b                    14.78069
_cell_length_c                    19.209683
_cell_angle_alpha                 92.609388
_cell_angle_beta                  94.052745
_cell_angle_gamma                 92.07348
_cell_volume                      2432.37575873

loop_
_atom_site_label
_atom_site_type_symbol
_atom_site_description
_atom_site_fract_x
_atom_site_fract_y
_atom_site_fract_z
_atom_type_partial_charge
P1    P     P_3+3 0.937730 0.712710 0.546710 0.415853
O1    O     O_2   0.108370 0.727470 0.525290 -0.360565
O2    O     O_3   0.865330 0.611210 0.531230 -0.460336
O3    O     O_3   0.346360 0.671710 0.401620 -0.379952
O4    O     O_2   0.215033 0.829094 0.436566 -0.385817
O5    O     O_3   0.975843 0.749051 0.635994 -0.570901
O6    O     O_3   0.355847 0.837078 0.322856 -0.590654
H1    H     H_    0.228081 0.726352 0.276971 0.191471
C1    C     C_3   0.315179 0.814524 0.198716 0.337880
H2    H     H_    0.232202 0.868932 0.204808 0.091881
P2    P     P_3+3 0.357970 0.428340 0.344000 0.462332
P3    P     P_3+3 0.901432 0.608338 0.276982 0.528183
O7    O     O_2   0.182890 0.456530 0.332150 -0.343820
O8    O     O_3   0.933230 0.625130 0.368420 -0.419342
O9    O     O_2   0.038845 0.552336 0.255291 -0.275184
O10   O     O_3   0.346282 0.310145 0.330890 -0.576329
O11   O     O_3   0.942569 0.710593 0.238433 -0.469998
C2    C     C_3   0.859329 0.782113 0.266656 0.362820
H3    H     H_    0.857973 0.780732 0.324496 0.066781
H4    H     H_    0.738061 0.777603 0.242869 0.032043
C3    C     C_3   0.942891 0.870961 0.248406 -0.403119
H5    H     H_    0.047592 0.884128 0.285257 0.201799
H6    H     H_    0.979953 0.862160 0.194863 0.230481
C4    C     C_3   0.779096 0.331947 0.328822 0.435849
H7    H     H_    0.666363 0.345512 0.351174 0.105301
H8    H     H_    0.856316 0.394167 0.332421 0.114307
C5    C     C_3   0.747103 0.301092 0.252274 -0.975710
H9    H     H_    0.671272 0.238334 0.247824 0.257188
H10   H     H_    0.687574 0.353869 0.222636 0.226836
H11   H     H_    0.858596 0.287176 0.228732 0.267931
Ba1   Ba    Ba6+2 0.150350 0.545800 0.464500 1.494296
C6    C     C_3   0.981908 0.681850 0.684902 0.262552
H12   H     H_    0.095355 0.649736 0.684570 0.090315
H13   H     H_    0.879338 0.634801 0.675896 0.130062
C7    C     C_3   0.979780 0.725034 0.758842 -0.874482
H14   H     H_    0.954435 0.798156 0.757820 0.287888
H15   H     H_    0.094370 0.719165 0.788356 0.290723
H16   H     H_    0.890907 0.689548 0.788114 0.225011
C8    C     C_3   0.303518 0.268425 0.390976 0.399284
H17   H     H_    0.179857 0.281145 0.398869 0.080687
H18   H     H_    0.378272 0.293938 0.437817 0.108285
C9    C     C_3   0.327197 0.166171 0.382040 -0.467109
H19   H     H_    0.316853 0.135412 0.433084 0.151224
H20   H     H_    0.447771 0.154476 0.367184 0.205920
P4    P     P_3+3 0.872570 0.287280 0.453240 0.436327
O12   O     O_2   0.701930 0.272470 0.474700 -0.368521
O13   O     O_3   0.944970 0.388780 0.468720 -0.441823
O14   O     O_3   0.463940 0.328280 0.598320 -0.391901
O15   O     O_3   0.853403 0.262504 0.363071 -0.575164
P5    P     P_3+3 0.901789 0.381656 0.724093 0.424169
O16   O     O_3   0.372010 0.546630 0.581240 -0.440540
O17   O     O_3   0.877070 0.374860 0.631520 -0.413856
O18   O     O_2   0.776589 0.443916 0.751263 -0.389213
O19   O     O_3   0.859570 0.275227 0.755135 -0.530587
Ba2   Ba    Ba6+2 0.659830 0.454190 0.535450 1.476683
P6    P     P_3+3 0.363896 0.793060 0.406369 0.426511
C10   C     C_3   0.334513 0.768347 0.269566 0.154847
H21   H     H_    0.436906 0.724379 0.270221 0.052987
O20   O     O_3   0.438280 0.453360 0.418700 -0.436915
C11   C     C_3   0.463870 0.747277 0.674141 0.386003
H22   H     H_    0.418801 0.734983 0.618898 0.007924
C12   C     C_3   0.366138 0.818304 0.708276 0.181026
H23   H     H_    0.392098 0.881962 0.684587 0.041740
H24   H     H_    0.241354 0.800443 0.695708 0.106308
P7    P     P_3+3 0.449324 0.564922 0.670213 0.413715
O21   O     O_2   0.627420 0.543410 0.667830 -0.372297
O22   O     O_3   0.445415 0.671271 0.712839 -0.575397
C13   C     C_3   0.900748 0.209068 0.705645 0.503749
H25   H     H_    0.825916 0.212169 0.656245 0.165045
H26   H     H_    0.025579 0.217876 0.694612 -0.012974
C14   C     C_3   0.874808 0.115779 0.733959 -0.986188
H27   H     H_    0.872060 0.063434 0.690738 0.238663
H28   H     H_    0.966893 0.103122 0.775446 0.255306
H29   H     H_    0.762133 0.109885 0.756812 0.288825
P8    P     P_3+3 0.430244 0.209625 0.602071 0.400442
C15   C     C_3   0.444473 0.165490 0.738059 0.638315
H30   H     H_    0.320141 0.180575 0.725720 0.032524
O23   O     O_2   0.536122 0.173784 0.546274 -0.386080
O24   O     O_3   0.532588 0.169072 0.678044 -0.515436
H31   H     H_    0.347390 0.058379 0.797990 0.259766
C16   C     C_3   0.454092 0.072226 0.770409 -0.940200
H32   H     H_    0.552816 0.067941 0.810503 0.262692
H33   H     H_    0.472335 0.018030 0.731656 0.269753
C17   C     C_R   0.999709 0.940076 0.525479 -0.155725
C18   C     C_R   0.807706 0.807713 0.507204 0.219522
C19   C     C_R   0.646380 0.784396 0.491899 -0.238525
C20   C     C_R   0.544035 0.842843 0.457903 0.261670
C21   C     C_R   0.589522 0.934571 0.454077 -0.358085
C22   C     C_R   0.741252 0.967044 0.478121 0.103720
C23   C     C_R   0.851703 0.903840 0.502996 -0.041469
C24   C     C_R   0.934690 0.098245 0.499414 -0.069426
C25   C     C_R   0.041110 0.035605 0.528067 0.060301
C26   C     C_R   0.982318 0.194253 0.499863 0.263688
C27   C     C_R   0.129840 0.221824 0.531634 -0.551022
C28   C     C_R   0.230388 0.162546 0.565376 0.152591
C29   C     C_R   0.185097 0.068907 0.563229 0.094458
C30   C     C_R   0.785053 0.061456 0.474038 -0.139509
H34   H     H_    0.508436 0.979915 0.429534 0.168829
H35   H     H_    0.170325 0.291155 0.527486 0.158354
H36   H     H_    0.080050 0.891996 0.544683 0.192920
H37   H     H_    0.700793 0.105582 0.450782 0.176978
C31   C     C_R   0.618844 0.517067 0.292017 -0.599174
C32   C     C_R   0.468172 0.481459 0.275060 0.344254
C33   C     C_R   0.412193 0.475075 0.204630 -0.234635
C34   C     C_R   0.507309 0.501914 0.151324 -0.134649
C35   C     C_R   0.664203 0.534979 0.169844 0.373856
C36   C     C_R   0.714291 0.549019 0.242073 0.099476
C37   C     C_R   0.453381 0.568780 0.034156 0.069224
C38   C     C_R   0.400348 0.561844 0.963726 -0.225293
C39   C     C_R   0.331865 0.480808 0.932675 0.067100
C40   C     C_R   0.314672 0.405062 0.976000 0.213378
C41   C     C_R   0.363676 0.415312 0.048105 -0.149156
C42   C     C_R   0.439414 0.495342 0.076984 0.216270
C43   C     C_R   0.134325 0.441998 0.830327 -0.312854
C44   C     C_R   0.097654 0.427447 0.758366 0.243764
C45   C     C_R   0.346796 0.498292 0.734004 0.318254
C46   C     C_R   0.382319 0.513663 0.806738 -0.231338
C47   C     C_R   0.282414 0.478301 0.855721 0.040436
C48   C     C_R   0.209271 0.449608 0.711259 -0.217495
H38   H     H_    0.490835 0.549288 0.824772 0.160918
H39   H     H_    0.413777 0.620722 0.933307 0.185669
H40   H     H_    0.509449 0.631562 0.055229 0.192554
H41   H     H_    0.295064 0.447460 0.191133 0.185431
H42   H     H_    0.349278 0.359398 0.081758 0.129836
H43   H     H_    0.049289 0.422635 0.866422 0.164656
H44   H     H_    0.669343 0.512856 0.344146 0.160007
S1    S     S_3+6 0.236631 0.737843 0.128238 -0.028282
O25   O     O_2   0.252284 0.641615 0.148439 -0.276792
O26   O     O_2   0.067437 0.754672 0.112057 -0.218571
O27   O     O_3   0.329278 0.754676 0.055415 -0.549695
H45   H     H_    0.253711 0.733766 0.016178 0.391040
C49   C     C_3   0.207799 0.116354 0.328999 -0.262431
C50   C     C_3   0.233764 0.137649 0.253400 -0.766750
H46   H     H_    0.166576 0.087576 0.217234 0.208850
H47   H     H_    0.192623 0.206040 0.241717 0.275030
H48   H     H_    0.359132 0.133908 0.243458 0.246507
H49   H     H_    0.087179 0.132849 0.340994 0.210430
H50   H     H_    0.219117 0.042200 0.334334 0.206744
C51   C     C_3   0.468326 0.860987 0.180398 -0.400710
C52   C     C_3   0.441446 0.940326 0.132799 -0.761612
H51   H     H_    0.363967 0.919854 0.085768 0.310291
H52   H     H_    0.387458 0.996321 0.161699 0.222323
H53   H     H_    0.554308 0.966143 0.115402 0.241902
H54   H     H_    0.530241 0.889011 0.229437 0.197094
H55   H     H_    0.543711 0.811175 0.155658 0.237890
C53   C     C_3   0.636640 0.778128 0.680199 -0.285061
C54   C     C_3   0.673776 0.873764 0.656595 -0.975633
H56   H     H_    0.599762 0.889000 0.609326 0.244108
H57   H     H_    0.656888 0.924868 0.698906 0.293125
H58   H     H_    0.797917 0.880801 0.645589 0.287697
H59   H     H_    0.683599 0.773708 0.735021 0.243498
H60   H     H_    0.696185 0.729628 0.648142 0.188893
S2    S     S_3+6 0.401410 0.833845 0.802131 -0.028389
O28   O     O_2   0.554208 0.884836 0.820470 -0.304153
O29   O     O_2   0.273305 0.887326 0.830966 -0.268207
O30   O     O_3   0.404080 0.734093 0.840545 -0.505221
H61   H     H_    0.515920 0.720860 0.848105 0.359620
C55   C     C_3   0.847192 0.955818 0.246274 -0.386336
C56   C     C_3   0.782996 0.979616 0.315605 -0.863514
H62   H     H_    0.702533 0.924233 0.329491 0.257714
H63   H     H_    0.881868 0.989404 0.355821 0.268335
H64   H     H_    0.718621 0.043254 0.312345 0.257920
H65   H     H_    0.923809 0.013560 0.232934 0.221001
H66   H     H_    0.753814 0.948059 0.203897 0.224871
C57   C     C_3   0.514490 0.231336 0.796696 -0.433701
C58   C     C_3   0.496728 0.326695 0.778324 -0.736263
H67   H     H_    0.546196 0.339887 0.728040 0.323733
H68   H     H_    0.370368 0.335410 0.774075 0.194340
H69   H     H_    0.554899 0.371657 0.820949 0.263651
H70   H     H_    0.452473 0.221200 0.844544 0.187811
H71   H     H_    0.638458 0.219595 0.810767 0.260120
C59   C     C_3   0.586214 0.690423 0.500563 -0.257653
C60   C     C_3   0.631767 0.636544 0.436776 -0.561014
H72   H     H_    0.591273 0.658670 0.384716 0.174178
H73   H     H_    0.751306 0.650838 0.432716 0.240600
H74   H     H_    0.614970 0.565341 0.443497 0.261342
H75   H     H_    0.629621 0.662223 0.549585 0.188776
H76   H     H_    0.461003 0.686494 0.509083 0.219573
C61   C     C_3   0.267754 0.008253 0.612592 -0.374244
C62   C     C_3   0.164798 0.998893 0.674379 -0.916477
H77   H     H_    0.142810 0.067302 0.695437 0.254797
H78   H     H_    0.052956 0.961887 0.658807 0.268624
H79   H     H_    0.215711 0.963411 0.718293 0.288899
H80   H     H_    0.293199 0.942467 0.586987 0.170463
H81   H     H_    0.384521 0.035736 0.628961 0.228038
C63   C     C_3   0.246787 0.312998 0.947699 -0.399799
C64   C     C_3   0.339176 0.233217 0.974371 -0.866725
H82   H     H_    0.466241 0.246452 0.970820 0.269711
H83   H     H_    0.315892 0.220341 0.029201 0.256205
H84   H     H_    0.302366 0.170677 0.942278 0.260621
H85   H     H_    0.124770 0.305086 0.962576 0.213157
H86   H     H_    0.244771 0.307056 0.890081 0.202438
S3    S     S_3+6 0.797943 0.549190 0.103442 -0.010188
O31   O     O_2   0.801736 0.646784 0.084837 -0.254036
O32   O     O_2   0.959404 0.523542 0.127100 -0.203300
O33   O     O_3   0.743936 0.483360 0.031377 -0.574133
H87   H     H_    0.810349 0.505170 0.995029 0.372267
C65   C     C_3   0.172212 0.427856 0.635989 -0.363227
C66   C     C_3   0.068534 0.501113 0.607671 -0.487140
H88   H     H_    0.979853 0.517482 0.643332 0.188678
H89   H     H_    0.127338 0.565375 0.598380 0.220983
H90   H     H_    0.004054 0.477159 0.560405 0.300496
H91   H     H_    0.270035 0.419046 0.605405 0.247100
H92   H     H_    0.126898 0.357337 0.629689 0.159913

loop_
_geom_bond_atom_site_label_1
_geom_bond_atom_site_label_2
_geom_bond_distance
_ccdc_geom_bond_type
C59   H75   1.094212 S    
C57   H71   1.103505 S    
O14   Ba2   2.833377 S    
O5    C6    1.397787 S    
C20   C21   1.404115 A    
C9    H20   1.112593 S    
C57   C58   1.479124 S    
Ba2   O20   2.838142 S    
C5    H10   1.105956 S    
C48   C65   1.476750 S    
C1    C51   1.534189 S    
C3    C55   1.525589 S    
O4    P6    1.544940 D    
C54   H56   1.108163 S    
C4    C5    1.522722 S    
P1    Ba1   3.508133 S    
O8    Ba1   2.852936 S    
P4    C26   1.915967 S    
C39   C47   1.507534 S    
C16   H32   1.111113 S    
P8    C28   1.906660 S    
C8    H18   1.111424 S    
C33   H41   1.083092 S    
C18   C19   1.424888 A    
C45   C46   1.415230 A    
P5    O19   1.742645 S    
C11   C53   1.533874 S    
C19   C59   1.485301 S    
C34   C42   1.501789 S    
O30   H61   0.990829 S    
C54   H57   1.104993 S    
C4    H8    1.111505 S    
C41   H42   1.081116 S    
C59   C60   1.513559 S    
H31   C16   1.109256 S    
O19   C13   1.404843 S    
C35   C36   1.427149 A    
C49   H50   1.112593 S    
C2    C3    1.540664 S    
C66   H90   1.069043 S    
C25   C29   1.428498 A    
C37   C38   1.394944 A    
C11   C12   1.522602 S    
P1    O1    1.562943 D    
O16   P7    1.794706 S    
Ba1   O20   3.036695 S    
C63   H85   1.110867 S    
C39   C40   1.434649 A    
C41   C42   1.401786 A    
C64   H84   1.110937 S    
C12   H24   1.103488 S    
C14   H29   1.094369 S    
C13   H25   1.112154 S    
O2    Ba2   2.873950 S    
C12   S2    1.809791 S    
C40   C41   1.418809 A    
C11   O22   1.385542 S    
C49   C50   1.529816 S    
P7    O22   1.741568 S    
O12   Ba2   2.924400 S    
C50   H48   1.111532 S    
P5    O17   1.773816 S    
C15   O24   1.425789 S    
C65   C66   1.522832 S    
C8    C9    1.535852 S    
C1    H2    1.102224 S    
C1    C10   1.551333 S    
C62   H79   1.087763 S    
C55   H66   1.101672 S    
C51   H54   1.104680 S    
P4    O13   1.610203 S    
P2    Ba1   3.465009 S    
C66   H88   1.087267 S    
S2    O28   1.503035 D    
Ba1   O13   2.873341 S    
C3    H5    1.111359 S    
O3    P6    1.792146 S    
C5    H11   1.110916 S    
C58   H68   1.097163 S    
C65   H91   1.068348 S    
O14   P8    1.772778 S    
C31   C32   1.392475 A    
C17   C23   1.395293 A    
O6    P6    1.756242 S    
P2    O20   1.570470 S    
C33   C34   1.416891 A    
C16   H33   1.091694 S    
C62   H78   1.104967 S    
C43   C44   1.401103 A    
C35   S3    1.791541 S    
C15   H30   1.111960 S    
C60   H73   1.051491 S    
P1    C18   1.972296 S    
P5    O18   1.545029 D    
P1    O5    1.778073 S    
C17   H36   1.068786 S    
C6    C7    1.532043 S    
C31   C36   1.393715 A    
C7    H16   1.111123 S    
C4    H7    1.109257 S    
C46   H38   1.082173 S    
Ba1   O16   2.838583 S    
C24   C25   1.426546 A    
C14   H28   1.110359 S    
C43   H43   1.082863 S    
C19   C20   1.404742 A    
C2    H3    1.113065 S    
P6    C20   1.886229 S    
O16   Ba2   3.035828 S    
S3    O32   1.498216 D    
C49   H49   1.111999 S    
C60   H72   1.103273 S    
C24   C30   1.423852 A    
C61   C62   1.538588 S    
C22   C30   1.439307 A    
C11   H22   1.108463 S    
P1    O2    1.610201 S    
C7    H14   1.111056 S    
C6    H13   1.102442 S    
C37   C42   1.398341 A    
P3    O11   1.748769 S    
S1    O26   1.498969 D    
C12   H23   1.086468 S    
H1    C10   1.108783 S    
C24   C26   1.462207 A    
P2    O10   1.751910 S    
C56   H62   1.107025 S    
P3    O9    1.538067 D    
P4    O15   1.749016 S    
C18   C23   1.464384 A    
S3    O33   1.683091 S    
C54   H58   1.105545 S    
C56   H63   1.108794 S    
O11   C2    1.407766 S    
C56   H64   1.110685 S    
C15   C57   1.529951 S    
C26   C27   1.407120 A    
C1    S1    1.802718 S    
C52   H51   1.107955 S    
C52   H53   1.109463 S    
O2    Ba1   3.015721 S    
C66   H89   1.087858 S    
C43   C47   1.410017 A    
C55   H65   1.109813 S    
C53   H60   1.089279 S    
P3    O8    1.763294 S    
S3    O31   1.501603 D    
C44   C48   1.405506 A    
C3    H6    1.101669 S    
C55   C56   1.509276 S    
C65   H92   1.097962 S    
C58   H67   1.105194 S    
P7    C45   1.857286 S    
S2    O29   1.501996 D    
C9    H19   1.107275 S    
S1    O25   1.499477 D    
C8    H17   1.106819 S    
Ba2   O21   2.846938 S    
C62   H77   1.099648 S    
O13   Ba2   3.016602 S    
C53   C54   1.533620 S    
C61   H80   1.105638 S    
C60   H74   1.071998 S    
C59   H76   1.100907 S    
C57   H70   1.108178 S    
C51   H55   1.111256 S    
C40   C63   1.522713 S    
C7    H15   1.110251 S    
O7    Ba1   2.846942 S    
C37   H40   1.078654 S    
O33   H87   0.990716 S    
C31   H44   1.068431 S    
C15   C16   1.540226 S    
P3    C36   1.871535 S    
P2    C32   1.867494 S    
C51   C52   1.533650 S    
O17   Ba2   2.853463 S    
C52   H52   1.109686 S    
C34   C35   1.433936 A    
C45   C48   1.394794 A    
C6    H12   1.101003 S    
O27   H45   0.990606 S    
C22   C23   1.429978 A    
S1    O27   1.682027 S    
C14   H27   1.107219 S    
C46   C47   1.422682 A    
P5    C44   1.857818 S    
P2    O7    1.581185 D    
C38   H39   1.077364 S    
C10   H21   1.113204 S    
C50   H46   1.109072 S    
C27   H35   1.078596 S    
C13   C14   1.519922 S    
C4    O15   1.394499 S    
S2    O30   1.678701 S    
C61   H81   1.089670 S    
C2    H4    1.107554 S    
C29   C61   1.495627 S    
C63   H86   1.105172 S    
C27   C28   1.401242 A    
P8    O23   1.542910 D    
C30   H37   1.079579 S    
C64   H83   1.109523 S    
O3    Ba1   2.834095 S    
O10   C8    1.398686 S    
C53   H59   1.106617 S    
C21   H34   1.083638 S    
P4    O12   1.563289 D    
C64   H82   1.111034 S    
C21   C22   1.413221 A    
P4    Ba2   3.508728 S    
C58   H69   1.109530 S    
C13   H26   1.113541 S    
P7    O21   1.579566 D    
C32   C33   1.401543 A    
C50   H47   1.110330 S    
O1    Ba1   2.923825 S    
C9    C49   1.537740 S    
C17   C25   1.441446 A    
Ba1   Ba2   4.697882 S    
C63   C64   1.533031 S    
C38   C39   1.404221 A    
P8    O24   1.789057 S    
O6    C10   1.406740 S    
C28   C29   1.422182 A    
C5    H9    1.111095 S    
