data_mof_unit_61226.cif
_audit_creation_date              2012-12-10T16:56:44-0500
_audit_creation_method            fapswitch 2.2
_symmetry_space_group_name_H-M    P1
_symmetry_Int_Tables_number       1
_space_group_crystal_system       triclinic
_cell_length_a                    21.757043
_cell_length_b                    21.722431
_cell_length_c                    22.278959
_cell_angle_alpha                 119.565891
_cell_angle_beta                  119.412064
_cell_angle_gamma                 89.878901
_cell_volume                      7566.41820555

loop_
_atom_site_label
_atom_site_type_symbol
_atom_type_description
_atom_site_fract_x
_atom_site_fract_y
_atom_site_fract_z
_atom_type_partial_charge
C1    C     C_R   0.498258 0.117100 0.496806 0.780426
C2    C     C_R   0.501734 0.882895 0.503181 0.781210
C3    C     C_1   0.875811 0.374492 0.250278 -0.168088
C4    C     C_1   0.124184 0.625502 0.749721 -0.168152
C5    C     C_3   0.709755 0.206853 0.917305 0.237142
C6    C     C_3   0.290109 0.793062 0.082692 0.236706
C7    C     C_3   0.781499 0.339476 0.048872 -0.382693
C8    C     C_3   0.229786 0.660402 0.951145 -0.382488
C9    C     C_3   0.792432 0.289902 0.082611 0.255301
C10   C     C_3   0.207504 0.710040 0.917386 0.255142
C11   C     C_3   0.714780 0.244492 0.048199 -0.370850
C12   C     C_3   0.279526 0.765361 0.951886 -0.369764
C13   C     C_3   0.666000 0.196252 0.951235 -0.344609
C14   C     C_3   0.328380 0.813589 0.048855 -0.345223
C15   C     C_1   0.838358 0.336399 0.174850 -0.086198
C16   C     C_1   0.161621 0.663578 0.825148 -0.086238
C17   C     C_1   0.663145 0.161451 0.825015 -0.038273
C18   C     C_1   0.336814 0.838525 0.174984 -0.038165
C19   C     C_1   0.625122 0.124267 0.749613 -0.144580
C20   C     C_1   0.374872 0.875732 0.250387 -0.144409
C21   C     C_R   0.361915 0.123129 0.374959 -0.156916
C22   C     C_R   0.637998 0.876972 0.625211 -0.153437
C23   C     C_R   0.580010 0.079856 0.659865 0.811318
C24   C     C_R   0.419990 0.920150 0.340135 0.810418
C25   C     C_R   0.295247 0.129446 0.324218 -0.097266
C26   C     C_R   0.704651 0.870718 0.676065 -0.094423
C27   C     C_R   0.292548 0.197442 0.333737 -0.132621
C28   C     C_R   0.707386 0.802730 0.666555 -0.130187
C29   C     C_R   0.357057 0.258806 0.391941 -0.179239
C30   C     C_R   0.642920 0.741310 0.608251 -0.178939
C31   C     C_R   0.425995 0.253015 0.441956 0.096025
C32   C     C_R   0.573987 0.747040 0.558136 0.095896
C33   C     C_R   0.427571 0.185337 0.436551 0.088276
C34   C     C_R   0.572390 0.814713 0.563533 0.088523
C35   C     C_R   0.495075 0.181602 0.492090 -0.091549
C36   C     C_R   0.504911 0.818394 0.507898 -0.091082
C37   C     C_R   0.560184 0.242306 0.548161 -0.197222
C38   C     C_R   0.439832 0.757647 0.451741 -0.196916
C39   C     C_R   0.559301 0.307399 0.551123 -0.202039
C40   C     C_R   0.440724 0.692558 0.448790 -0.201807
C41   C     C_R   0.493238 0.313182 0.498223 -0.095541
C42   C     C_R   0.506771 0.686823 0.501780 -0.095295
C43   C     C_R   0.764318 0.525823 0.463286 -0.190784
C44   C     C_R   0.235679 0.474174 0.536709 -0.190647
C45   C     C_R   0.729005 0.446977 0.587073 -0.154118
C46   C     C_R   0.271008 0.553044 0.412948 -0.154141
C47   C     C_R   0.819094 0.504567 0.509370 -0.150163
C48   C     C_R   0.180905 0.495434 0.490629 -0.150223
C49   C     C_R   0.883561 0.502181 0.504322 0.796196
C50   C     C_R   0.116438 0.497818 0.495676 0.796120
C51   C     C_R   0.920355 0.419847 0.340068 0.817297
C52   C     C_R   0.079647 0.580152 0.659931 0.817365
C53   C     C_R   0.619036 0.499435 0.500060 0.801976
C54   C     C_R   0.380964 0.500564 0.499940 0.802083
C55   C     C_R   0.497214 0.380818 0.499653 0.780411
C56   C     C_R   0.502794 0.619183 0.500348 0.780570
C57   C     C_R   0.741119 0.476093 0.547831 0.057174
C58   C     C_R   0.258888 0.523917 0.452179 0.057181
C59   C     C_R   0.867191 0.469264 0.610556 -0.153819
C60   C     C_R   0.132820 0.530757 0.389460 -0.154172
C61   C     C_R   0.854730 0.443127 0.650816 -0.140025
C62   C     C_R   0.145287 0.556905 0.349213 -0.140266
C63   C     C_R   0.785342 0.430570 0.637756 -0.136122
C64   C     C_R   0.214677 0.569462 0.362276 -0.136229
C65   C     C_R   0.698600 0.524094 0.459528 0.146793
C66   C     C_R   0.301400 0.475906 0.540473 0.146619
C67   C     C_R   0.686392 0.498209 0.500940 -0.112740
C68   C     C_R   0.313610 0.501793 0.499063 -0.112726
C69   C     C_R   0.809702 0.482920 0.555567 0.094589
C70   C     C_R   0.190304 0.517090 0.444441 0.094577
C71   C     C_3   0.732708 0.290809 0.951892 -0.467517
C72   C     C_3   0.278480 0.709098 0.048122 -0.467329
C73   C     C_3   0.782314 0.186069 0.951505 0.247689
C74   C     C_3   0.211939 0.803911 0.048385 0.249323
C75   C     C_3   0.830127 0.234263 0.048799 -0.384866
C76   C     C_3   0.164006 0.755795 0.951090 -0.385996
Cu1   Cu    Cu3+1 0.438180 0.999990 0.500010 0.961151
Cu2   Cu    Cu3+1 0.561820 0.000010 0.499990 0.957560
Cu3   Cu    Cu3+1 0.000200 0.561800 0.499990 0.952767
Cu4   Cu    Cu3+1 0.999800 0.438200 0.500010 0.953134
Cu5   Cu    Cu3+1 0.541330 0.541310 0.582630 0.948969
Cu6   Cu    Cu3+1 0.458670 0.458690 0.417370 0.947030
H1    H     H_    0.775383 0.408992 0.667909 0.128850
H2    H     H_    0.224642 0.591050 0.332133 0.128961
H3    H     H_    0.647524 0.136548 0.927267 0.213270
H4    H     H_    0.338779 0.873729 0.072868 0.212879
H5    H     H_    0.686442 0.282996 0.071824 0.166064
H6    H     H_    0.311804 0.734105 0.928291 0.166487
H7    H     H_    0.682242 0.307924 0.929023 0.185902
H8    H     H_    0.333224 0.699022 0.071108 0.186356
H9    H     H_    0.754503 0.380042 0.072295 0.177033
H10   H     H_    0.261178 0.626906 0.927841 0.177058
H11   H     H_    0.720969 0.207668 0.070715 0.182976
H12   H     H_    0.265109 0.802403 0.929410 0.183109
H13   H     H_    0.611867 0.239667 0.590826 0.150616
H14   H     H_    0.388167 0.760251 0.409008 0.150712
H15   H     H_    0.361405 0.068902 0.364463 0.157636
H16   H     H_    0.638475 0.931188 0.635683 0.156410
H17   H     H_    0.245344 0.081503 0.277763 0.169876
H18   H     H_    0.754517 0.918702 0.722594 0.164857
H19   H     H_    0.240338 0.202558 0.295434 0.146846
H20   H     H_    0.759590 0.797662 0.704940 0.146801
H21   H     H_    0.351798 0.310668 0.397842 0.151661
H22   H     H_    0.648214 0.689455 0.602353 0.151706
H23   H     H_    0.676021 0.436146 0.578776 0.137483
H24   H     H_    0.323994 0.563876 0.421249 0.137581
H25   H     H_    0.610814 0.353275 0.594352 0.143581
H26   H     H_    0.389231 0.646649 0.405497 0.143576
H27   H     H_    0.772597 0.543103 0.428981 0.161228
H28   H     H_    0.227398 0.456890 0.571011 0.161284
H29   H     H_    0.922667 0.479976 0.624652 0.148596
H30   H     H_    0.077343 0.520045 0.375361 0.148602
H31   H     H_    0.899052 0.432285 0.692055 0.132500
H32   H     H_    0.100970 0.567757 0.307980 0.132646
H33   H     H_    0.836492 0.372280 0.072090 0.167700
H34   H     H_    0.179001 0.620460 0.927819 0.167909
H35   H     H_    0.764187 0.300777 0.928760 0.166076
H36   H     H_    0.251187 0.692109 0.071151 0.165886
H37   H     H_    0.815284 0.197629 0.930594 0.110323
H38   H     H_    0.183303 0.785370 0.069304 0.110702
H39   H     H_    0.886285 0.265448 0.072968 0.140349
H40   H     H_    0.111742 0.717355 0.926918 0.139952
H41   H     H_    0.838480 0.198235 0.072528 0.212230
H42   H     H_    0.147415 0.791681 0.927276 0.211891
H43   H     H_    0.614906 0.212554 0.928683 0.158641
H44   H     H_    0.383547 0.804381 0.071439 0.159129
O1    O     O_R   0.447780 0.090160 0.499990 -0.588972
O2    O     O_R   0.552220 0.909840 0.500010 -0.589705
O3    O     O_R   0.555310 0.465120 0.430190 -0.575820
O4    O     O_R   0.444690 0.534880 0.569810 -0.575418
O5    O     O_R   0.534910 0.444720 0.569790 -0.589967
O6    O     O_R   0.465090 0.555280 0.430210 -0.590303
O7    O     O_R   0.465120 0.374940 0.430230 -0.582418
O8    O     O_R   0.534880 0.625060 0.569770 -0.581573
O9    O     O_R   0.552200 0.090180 0.499980 -0.580258
O10   O     O_R   0.447800 0.909820 0.500020 -0.579461
O11   O     O_R   0.508070 0.060270 0.620570 -0.575461
O12   O     O_R   0.491930 0.939730 0.379430 -0.576864
O13   O     O_R   0.612490 0.060290 0.620560 -0.585820
O14   O     O_R   0.387510 0.939710 0.379440 -0.583168
O15   O     O_R   0.910000 0.552200 0.500000 -0.584255
O16   O     O_R   0.090000 0.447800 0.500000 -0.584204
O17   O     O_R   0.909970 0.447830 0.500020 -0.587510
O18   O     O_R   0.090030 0.552170 0.499980 -0.587493
O19   O     O_R   0.939920 0.491910 0.379430 -0.591214
O20   O     O_R   0.060080 0.508090 0.620570 -0.591161
O21   O     O_R   0.939890 0.387530 0.379440 -0.571837
O22   O     O_R   0.060110 0.612470 0.620560 -0.572099
O23   O     O_R   0.625100 0.534890 0.569750 -0.597415
O24   O     O_R   0.374900 0.465110 0.430250 -0.597826
C77   C     C_3   0.642962 0.551353 0.412322 -0.827631
H45   H     H_    0.590890 0.504495 0.357413 0.248452
H46   H     H_    0.630469 0.596128 0.453833 0.216825
H47   H     H_    0.664326 0.574646 0.389129 0.221570
C78   C     C_3   0.357040 0.448656 0.587687 -0.827094
H48   H     H_    0.409107 0.495519 0.642599 0.248522
H49   H     H_    0.335675 0.425360 0.610878 0.221641
H50   H     H_    0.369544 0.403885 0.546186 0.216883
Cl1   Cl    Cl    0.763274 0.088472 0.910815 -0.653521
Cl2   Cl    Cl    0.218015 0.900182 0.088934 -0.656220

loop_
_geom_bond_atom_site_label_1
_geom_bond_atom_site_label_2
_ccdc_geom_bond_type
C66   C68   A    
C65   C77   S    
C73   H37   S    
C78   H49   S    
C44   C66   A    
Cu1   O14   S    
Cu2   O2    S    
Cu2   O13   S    
C30   H22   S    
Cu5   Cu6   S    
C9    C75   S    
Cu5   O8    S    
C39   C41   A    
Cu1   Cu2   S    
C24   O14   A    
C39   H25   S    
C29   H21   S    
C74   C76   S    
C4    C52   S    
C75   H41   S    
C23   O13   A    
C35   C37   A    
Cu1   O11   S    
C62   H32   S    
C7    C71   S    
C66   C78   S    
Cu5   O5    S    
C21   C33   A    
C51   O19   A    
C46   H24   S    
C45   C57   A    
C21   H15   S    
C27   C29   A    
C37   H13   S    
C18   C20   T    
C60   C62   A    
C77   H47   S    
C7    H33   S    
C61   C63   A    
C41   C55   S    
C62   C64   A    
C42   C56   S    
C10   C76   S    
C25   H17   S    
Cu4   O21   S    
C47   C69   A    
C20   C24   S    
C50   O18   A    
C65   C67   A    
C49   O15   A    
C59   H29   S    
C77   H45   S    
C31   C33   A    
C8    H10   S    
Cu1   O10   S    
C51   O21   A    
C30   C32   A    
Cu2   O9    S    
C5    C13   S    
Cu1   O1    S    
C40   H26   S    
C13   H43   S    
C11   H11   S    
C48   C50   S    
C52   O22   A    
C75   H39   S    
C46   C58   A    
C78   H50   S    
C53   O23   A    
C73   C75   S    
C12   H12   S    
C57   C67   A    
C6    C18   S    
Cu2   O12   S    
C45   H23   S    
C6    C74   S    
C2    O2    A    
C22   C34   A    
C8    C72   S    
C59   C61   A    
C12   H6    S    
C76   H42   S    
C14   H4    S    
C47   C49   S    
C11   H5    S    
C22   H16   S    
C52   O20   A    
C71   H35   S    
C58   C70   A    
C54   O4    A    
C24   O12   A    
C55   O7    A    
C27   H19   S    
C2    O10   A    
C63   H1    S    
C32   C34   A    
C4    C16   T    
C19   C23   S    
C60   H30   S    
C6    C14   S    
C72   H8    S    
Cu3   O18   S    
C71   H7    S    
C60   C70   A    
C43   C65   A    
Cu4   O17   S    
C7    H9    S    
C5    C71   S    
C6    C72   S    
Cu6   O24   S    
Cu6   O3    S    
C9    C11   S    
C56   O6    A    
C10   C12   S    
C59   C69   A    
C58   C68   A    
C12   C14   S    
C5    C17   S    
Cu4   O16   S    
C61   H31   S    
C53   O3    A    
C13   H3    S    
C3    C15   T    
C1    C35   S    
C2    C36   S    
C7    C9    S    
C21   C25   A    
C3    C51   S    
C31   C41   A    
Cu3   O19   S    
C26   C28   A    
C23   O11   A    
C1    O1    A    
C48   C70   A    
C40   C42   A    
C56   O8    A    
Cu3   O22   S    
C74   Cl2   S    
C25   C27   A    
C74   H38   S    
C73   Cl1   S    
C55   O5    A    
C14   H44   S    
C64   H2    S    
C76   H40   S    
Cu6   O7    S    
C36   C38   A    
C9    C15   S    
C29   C31   A    
C44   C48   A    
C10   C16   S    
C38   C40   A    
C11   C13   S    
Cu5   O4    S    
Cu3   O15   S    
C43   C47   A    
Cu5   O23   S    
C49   O17   A    
C28   C30   A    
C33   C35   A    
C45   C63   A    
C34   C36   A    
C77   H46   S    
C5    C73   S    
C53   C67   S    
C38   H14   S    
C8    H34   S    
Cu3   Cu4   S    
C17   C19   T    
C28   H20   S    
C37   C39   A    
C54   C68   S    
C8    C10   S    
C22   C26   A    
C72   H36   S    
C78   H48   S    
C32   C42   A    
Cu4   O20   S    
C43   H27   S    
C46   C64   A    
C57   C69   A    
C1    O9    A    
Cu6   O6    S    
C50   O16   A    
C54   O24   A    
C26   H18   S    
C44   H28   S    
