data_mof_unit_12529.cif
_audit_creation_date              2012-10-26T21:11:02-0400
_audit_creation_method            fapswitch 2.2
_symmetry_space_group_name_H-M    P1
_symmetry_Int_Tables_number       1
_space_group_crystal_system       triclinic
_cell_length_a                    10.92641
_cell_length_b                    10.958727
_cell_length_c                    13.100147
_cell_angle_alpha                 90.895399
_cell_angle_beta                  91.046637
_cell_angle_gamma                 90.407529
_cell_volume                      1568.1094738

loop_
_atom_site_label
_atom_site_type_symbol
_atom_type_description
_atom_site_fract_x
_atom_site_fract_y
_atom_site_fract_z
_atom_type_partial_charge
C1    C     C_R   0.499907 0.259410 0.498856 0.589422
C2    C     C_R   0.599714 0.867651 0.754928 0.076550
C3    C     C_R   0.506567 0.112793 0.301553 0.035173
C4    C     C_R   0.490665 0.886568 0.696843 0.026050
C5    C     C_R   0.619286 0.102931 0.252330 -0.084331
C6    C     C_R   0.376498 0.859442 0.738560 -0.074533
C7    C     C_R   0.631332 0.139290 0.151607 -0.107472
C8    C     C_R   0.368893 0.815381 0.837413 -0.121944
C9    C     C_R   0.530528 0.183833 0.097946 -0.061059
C10   C     C_R   0.475068 0.797621 0.895551 -0.071774
C11   C     C_R   0.496906 0.932255 0.408874 -0.100186
C12   C     C_R   0.496368 0.740590 0.500960 0.589976
C13   C     C_R   0.491875 0.067958 0.590273 -0.108098
C14   C     C_R   0.494854 0.873125 0.502582 0.013778
C15   C     C_R   0.496219 0.127117 0.496648 0.008403
C16   C     C_R   0.259377 0.499283 0.498609 0.586137
C17   C     C_R   0.740628 0.499807 0.501449 0.583665
C18   C     C_R   0.492666 0.941763 0.594537 -0.036238
C19   C     C_R   0.497191 0.058618 0.404323 -0.030367
C20   C     C_1   0.500286 0.500052 0.173533 0.180681
C21   C     C_1   0.500026 0.499637 0.826467 0.170421
C22   C     C_1   0.500424 0.499851 0.050691 0.002772
C23   C     C_R   0.873065 0.499594 0.504143 0.020272
C24   C     C_1   0.500217 0.499477 0.949315 -0.008389
C25   C     C_R   0.228792 0.687147 0.195450 0.265511
C26   C     C_R   0.769834 0.309784 0.802897 0.273164
C27   C     C_R   0.180277 0.662418 0.291949 0.265627
C28   C     C_R   0.820113 0.334913 0.707204 0.273379
C29   C     C_R   0.111033 0.554531 0.306014 0.013313
C30   C     C_R   0.888609 0.443526 0.694082 0.009492
C31   C     C_R   0.084691 0.477414 0.220583 0.200007
C32   C     C_R   0.912816 0.520649 0.780045 0.199803
C33   C     C_R   0.129665 0.506125 0.124710 -0.086144
C34   C     C_R   0.126962 0.499708 0.496210 0.024934
C35   C     C_R   0.863726 0.492940 0.874695 -0.096619
C36   C     C_R   0.202672 0.609224 0.112516 -0.132034
C37   C     C_R   0.791785 0.388894 0.885815 -0.142176
C38   C     C_R   0.931250 0.527759 0.413342 -0.082117
C39   C     C_R   0.068799 0.471815 0.587158 -0.080291
C40   C     C_3   0.283009 0.182935 0.300941 -0.238076
C41   C     C_3   0.189746 0.082973 0.274552 -0.319970
C42   C     C_3   0.724173 0.898561 0.711818 -0.215488
C43   C     C_3   0.773693 0.794166 0.646755 -0.377220
C44   C     C_R   0.942404 0.472429 0.593311 0.038369
C45   C     C_R   0.057597 0.526754 0.407109 0.043317
C46   C     C_R   0.417328 0.195067 0.145077 0.257725
C47   C     C_R   0.590144 0.821630 0.854956 0.269382
C48   C     C_R   0.403934 0.161839 0.248396 0.077947
Cl1   Cl    Cl    0.323023 0.814787 0.175169 -0.627829
Cl2   Cl    Cl    0.678957 0.179604 0.822012 -0.622125
Cl3   Cl    Cl    0.201927 0.768431 0.393619 -0.610617
Cl4   Cl    Cl    0.801947 0.227738 0.605853 -0.586669
Cl5   Cl    Cl    0.994263 0.344305 0.229993 -0.627414
Cl6   Cl    Cl    0.006651 0.651761 0.773514 -0.628573
Cl7   Cl    Cl    0.294480 0.250723 0.071010 -0.622657
Cl8   Cl    Cl    0.719663 0.791517 0.932326 -0.588392
Cu1   Cu    Cu3+1 0.499990 0.499990 0.592680 1.043588
Cu2   Cu    Cu3+1 0.500010 0.500010 0.407320 1.047339
H1    H     H_    0.238558 0.628947 0.037990 0.162292
H2    H     H_    0.881870 0.552091 0.940292 0.205730
H3    H     H_    0.877712 0.550928 0.345885 0.164783
H4    H     H_    0.122363 0.448671 0.654601 0.167663
H5    H     H_    0.540503 0.210224 0.019255 0.192892
H6    H     H_    0.467844 0.763949 0.972451 0.183292
H7    H     H_    0.173963 0.074319 0.190862 0.247679
H8    H     H_    0.223027 0.995242 0.304388 0.236013
H9    H     H_    0.101457 0.104243 0.311221 0.194858
H10   H     H_    0.294260 0.186915 0.385060 0.131825
H11   H     H_    0.246164 0.273191 0.279384 0.214392
H12   H     H_    0.753939 0.369048 0.959617 0.161581
H13   H     H_    0.872035 0.810712 0.631794 0.208556
H14   H     H_    0.763395 0.706133 0.686489 0.208515
H15   H     H_    0.725241 0.788617 0.571964 0.129885
H16   H     H_    0.719145 0.981869 0.665065 0.215961
H17   H     H_    0.791492 0.920556 0.773921 0.253591
H18   H     H_    0.697880 0.065114 0.291963 0.155195
H19   H     H_    0.293032 0.874114 0.694659 0.170183
H20   H     H_    0.718643 0.131042 0.114459 0.187318
H21   H     H_    0.280380 0.795477 0.869295 0.183368
H22   H     H_    0.500080 0.879731 0.338189 0.201489
H23   H     H_    0.489384 0.120198 0.661170 0.199102
H24   H     H_    0.108371 0.447890 0.059170 0.211294
N1    N     N_1   0.500030 0.500030 0.268070 -0.170770
N2    N     N_1   0.499970 0.499970 0.731930 -0.170713
O1    O     O_R   0.499980 0.319630 0.578260 -0.471524
O2    O     O_R   0.500020 0.680370 0.421740 -0.473616
O3    O     O_R   0.500000 0.319650 0.421740 -0.507026
O4    O     O_R   0.500000 0.680350 0.578260 -0.504524
O5    O     O_R   0.319630 0.500000 0.578260 -0.494925
O6    O     O_R   0.680370 0.500000 0.421740 -0.491759
O7    O     O_R   0.319650 0.500020 0.421740 -0.497134
O8    O     O_R   0.680350 0.499980 0.578260 -0.502861

loop_
_geom_bond_atom_site_label_1
_geom_bond_atom_site_label_2
_ccdc_geom_bond_type
C1    O3    A    
C43   H15   S    
C43   H14   S    
Cu1   O8    S    
C27   C29   A    
C14   C18   A    
C36   H1    S    
Cu2   O3    S    
C41   H9    S    
C15   C19   A    
C11   C19   A    
C42   H17   S    
C17   C23   S    
Cu1   O5    S    
C13   C18   A    
C35   C37   A    
C26   Cl2   S    
C11   C14   A    
C13   H23   S    
C3    C48   A    
C33   C36   A    
C40   C48   S    
C38   C45   A    
C16   C34   S    
C46   Cl7   S    
C8    H21   S    
C31   C33   A    
C3    C19   S    
C1    C15   S    
C33   H24   S    
C38   H3    S    
C4    C18   S    
C9    C46   A    
C37   H12   S    
C30   C44   S    
C17   O8    A    
Cu2   O2    S    
C32   Cl6   S    
C27   Cl3   S    
C1    O1    A    
C46   C48   A    
C42   H16   S    
C40   H11   S    
C12   O4    A    
C34   C39   A    
C32   C35   A    
C4    C6    A    
C5    C7    A    
C6    H19   S    
C41   H7    S    
C23   C44   A    
C29   C45   S    
C35   H2    S    
C2    C4    A    
C21   N2    T    
Cu1   N2    S    
C34   C45   A    
C31   Cl5   S    
Cu2   O6    S    
C41   H8    S    
C7    H20   S    
C40   C41   S    
C20   C22   S    
C13   C15   A    
C22   C24   T    
C21   C24   S    
C42   C43   S    
Cu2   O7    S    
C7    C9    A    
C39   H4    S    
C43   H13   S    
C9    H5    S    
C10   H6    S    
C17   O6    A    
C12   C14   S    
C3    C5    A    
C6    C8    A    
C26   C37   A    
C39   C44   A    
C2    C47   A    
C25   C27   A    
C23   C38   A    
C26   C28   A    
Cu1   O4    S    
C12   O2    A    
C5    H18   S    
C28   C30   A    
C29   C31   A    
Cu2   N1    S    
C30   C32   A    
C28   Cl4   S    
Cu1   Cu2   S    
C2    C42   S    
Cu1   O1    S    
C25   Cl1   S    
C11   H22   S    
C25   C36   A    
C16   O5    A    
C16   O7    A    
C8    C10   A    
C40   H10   S    
C20   N1    T    
C10   C47   A    
C47   Cl8   S    
