data_mof_unit_21832.cif
_audit_creation_date              2012-12-10T20:31:53-0500
_audit_creation_method            fapswitch 2.2
_symmetry_space_group_name_H-M    P1
_symmetry_Int_Tables_number       1
_space_group_crystal_system       triclinic
_cell_length_a                    9.881939
_cell_length_b                    10.75954
_cell_length_c                    15.531574
_cell_angle_alpha                 90.874447
_cell_angle_beta                  69.30966
_cell_angle_gamma                 90.255504
_cell_volume                      1544.70664545

loop_
_atom_site_label
_atom_site_type_symbol
_atom_type_description
_atom_site_fract_x
_atom_site_fract_y
_atom_site_fract_z
_atom_type_partial_charge
C1    C     C_R   0.501450 0.739440 0.497862 0.904292
C2    C     C_R   0.734097 0.485378 0.033358 0.048658
C3    C     C_R   0.592032 0.444079 0.085669 0.043330
C4    C     C_R   0.411968 0.485614 0.674183 0.873087
C5    C     C_R   0.832496 0.513619 0.078114 -0.223644
C6    C     C_R   0.787773 0.513049 0.173306 -0.193076
C7    C     C_R   0.546100 0.459427 0.181022 -0.247914
C8    C     C_R   0.392822 0.937182 0.483442 0.083315
C9    C     C_R   0.505053 0.870707 0.494333 -0.111808
C10   C     C_R   0.623230 0.936301 0.502736 -0.214386
C11   C     C_R   0.621840 0.065254 0.504955 -0.237729
C12   C     C_R   0.432488 0.405476 0.902593 0.129446
C13   C     C_R   0.503160 0.129365 0.496898 -0.102387
C14   C     C_R   0.391544 0.061671 0.485197 0.087658
C15   C     C_3   0.251954 0.070881 0.468534 -0.162316
C16   C     C_R   0.500481 0.260551 0.499070 0.873501
C17   C     C_3   0.253073 0.926992 0.466846 -0.154021
C18   C     C_R   0.911092 0.601102 0.532635 0.124849
C19   C     C_R   0.950528 0.406407 0.458852 -0.142134
C20   C     C_R   0.094617 0.406833 0.458365 -0.087373
C21   C     C_R   0.053187 0.600317 0.533460 0.143221
C22   C     C_3   0.006574 0.653666 0.628730 0.175550
C23   C     C_R   0.286300 0.384792 0.956206 0.082030
C24   C     C_3   0.852888 0.655301 0.627958 -0.131062
C25   C     C_R   0.589312 0.499106 0.324751 0.857981
C26   C     C_R   0.365421 0.444909 0.770217 -0.136107
C27   C     C_R   0.642836 0.490896 0.224876 -0.046705
C28   C     C_R   0.180486 0.391856 0.915436 -0.196511
C29   C     C_R   0.219089 0.430369 0.824335 -0.194142
C30   C     C_R   0.470676 0.408423 0.807029 0.032818
C31   C     C_R   0.535626 0.423719 0.945660 -0.047267
C32   C     C_R   0.494970 0.403667 0.041388 0.006543
C33   C     C_R   0.356129 0.348840 0.088329 0.110960
C34   C     C_R   0.250591 0.350318 0.047596 -0.225790
C35   C     C_R   0.672624 0.474702 0.896691 -0.184654
C36   C     C_R   0.771453 0.503949 0.938571 0.405498
H1    H     H_    0.142157 0.318171 0.086175 0.155028
H2    H     H_    0.053551 0.746793 0.632933 0.058864
H3    H     H_    0.775474 0.593716 0.678466 0.193668
H4    H     H_    0.864684 0.536164 0.206383 0.157984
H5    H     H_    0.068490 0.371016 0.954325 0.163116
H6    H     H_    0.136011 0.441545 0.795018 0.237546
H7    H     H_    0.701580 0.502568 0.826240 0.186018
H8    H     H_    0.129487 0.078331 0.607897 0.195443
H9    H     H_    0.038516 0.109310 0.537265 0.176223
H10   H     H_    0.354410 0.918975 0.325067 0.194200
H11   H     H_    0.176354 0.886463 0.363825 0.183530
H12   H     H_    0.943576 0.538789 0.040881 0.147869
H13   H     H_    0.075089 0.611538 0.725957 0.361093
H14   H     H_    0.875506 0.838211 0.585471 0.153209
H15   H     H_    0.772043 0.817254 0.696349 0.195776
H16   H     H_    0.922628 0.626357 0.922758 0.323142
H17   H     H_    0.676961 0.399217 0.709118 0.213366
H18   H     H_    0.569831 0.274883 0.710936 0.197507
H19   H     H_    0.418329 0.247970 0.180315 0.190879
H20   H     H_    0.256176 0.326490 0.226652 0.167617
H21   H     H_    0.716235 0.888920 0.507476 0.186806
H22   H     H_    0.713164 0.113741 0.512885 0.167820
H23   H     H_    0.263281 0.115800 0.402317 0.154189
H24   H     H_    0.165497 0.882535 0.523579 0.148665
H25   H     H_    0.913789 0.329578 0.427098 0.143034
H26   H     H_    0.166495 0.330969 0.425608 0.139181
H27   H     H_    0.433157 0.452737 0.222038 0.163077
N1    N     N_R   0.856900 0.500860 0.500610 -0.108179
N2    N     N_R   0.142540 0.500820 0.500610 -0.074521
N3    N     N_3   0.136198 0.124538 0.547694 -0.419142
N4    N     N_3   0.272311 0.872417 0.376381 -0.434246
N5    N     N_3   0.796055 0.780950 0.629781 -0.460289
N6    N     N_3   0.598305 0.340753 0.751764 -0.450618
N7    N     N_3   0.324248 0.276050 0.169946 -0.474554
O1    O     O_R   0.385310 0.683210 0.499990 -0.612370
O2    O     O_3   0.897968 0.560726 0.885482 -0.785112
O3    O     O_R   0.614650 0.683240 0.500000 -0.605905
O4    O     O_R   0.319830 0.499970 0.632240 -0.584307
O5    O     O_R   0.549170 0.500000 0.632250 -0.626975
O6    O     O_R   0.385350 0.316760 0.500000 -0.600443
O7    O     O_R   0.614690 0.316790 0.500010 -0.641073
O8    O     O_R   0.450830 0.500000 0.367750 -0.625523
O9    O     O_R   0.680170 0.500030 0.367760 -0.619356
O10   O     O_3   0.021737 0.567562 0.691254 -0.702476
Zn1   Zn    Zn3+2 0.346870 0.499980 0.499990 0.984119
Zn2   Zn    Zn3+2 0.653130 0.500020 0.500010 0.942412

loop_
_geom_bond_atom_site_label_1
_geom_bond_atom_site_label_2
_ccdc_geom_bond_type
C29   H6    S    
C18   C21   A    
H8    N3    S    
C35   C36   A    
H17   N6    S    
C12   C23   A    
C1    O1    A    
C18   C24   S    
C28   C29   A    
C3    C7    A    
C5    C6    A    
C34   H1    S    
C28   H5    S    
C24   H3    S    
C7    C27   A    
C16   O7    A    
C4    O5    A    
C31   C32   A    
C8    C9    A    
C11   H22   S    
C35   H7    S    
C9    C10   A    
C4    O4    A    
C21   N2    A    
C16   O6    A    
C13   C14   A    
H11   N4    S    
C5    H12   S    
C17   N4    S    
C25   O8    A    
C20   N2    A    
C10   H21   S    
C1    C9    S    
C15   N3    S    
H16   O2    S    
N2    Zn1   S    
C6    C27   A    
C19   N1    A    
C23   C34   A    
C7    H27   S    
C33   C34   A    
C23   C28   A    
N1    Zn2   S    
C6    H4    S    
C33   N7    S    
C26   C30   A    
H20   N7    S    
C12   C31   A    
C22   C24   S    
C2    C5    A    
O4    Zn1   S    
O3    Zn2   S    
C30   N6    S    
C2    C36   A    
C15   C17   S    
C8    C14   A    
C12   C30   A    
C25   O9    A    
C15   H23   S    
O6    Zn1   S    
O9    Zn2   S    
C4    C26   S    
O5    Zn2   S    
C25   C27   S    
C8    C17   S    
H13   O10   S    
C1    O3    A    
C32   C33   A    
C19   C20   A    
C2    C3    A    
C22   O10   S    
H10   N4    S    
C11   C13   A    
O8    Zn1   S    
C18   N1    A    
H18   N6    S    
O7    Zn2   S    
C19   H25   S    
C31   C35   A    
H15   N5    S    
C20   H26   S    
C3    C32   A    
H19   N7    S    
C10   C11   A    
C24   N5    S    
C17   H24   S    
C26   C29   A    
C13   C16   S    
H9    N3    S    
C14   C15   S    
C21   C22   S    
H14   N5    S    
C36   O2    S    
O1    Zn1   S    
C22   H2    S    
