data_mof_unit_27324.cif
_audit_creation_date              2012-12-10T16:58:59-0500
_audit_creation_method            fapswitch 2.2
_symmetry_space_group_name_H-M    P1
_symmetry_Int_Tables_number       1
_space_group_crystal_system       triclinic
_cell_length_a                    9.678963
_cell_length_b                    10.883463
_cell_length_c                    17.207559
_cell_angle_alpha                 90.420949
_cell_angle_beta                  87.844644
_cell_angle_gamma                 90.900094
_cell_volume                      1811.10787906

loop_
_atom_site_label
_atom_site_type_symbol
_atom_type_description
_atom_site_fract_x
_atom_site_fract_y
_atom_site_fract_z
_atom_type_partial_charge
C1    C     C_R   0.501144 0.734931 0.501827 0.835700
C2    C     C_R   0.358292 0.441284 0.773366 -0.340202
C3    C     C_R   0.378988 0.561081 0.152336 -0.186842
C4    C     C_R   0.388374 0.548330 0.231869 -0.253362
C5    C     C_R   0.635106 0.508742 0.215776 0.269156
C6    C     C_R   0.623243 0.518513 0.135146 -0.280008
C7    C     C_R   0.495362 0.543823 0.103943 0.041069
C8    C     C_2   0.468170 0.437015 0.980696 0.195302
C9    C     C_2   0.480170 0.545328 0.019206 0.345075
C10   C     C_R   0.515246 0.520175 0.264781 -0.068798
C11   C     C_2   0.609269 0.069295 0.520993 -0.177689
C12   C     C_R   0.484451 0.497322 0.650325 0.822022
C13   C     C_2   0.493735 0.133302 0.512885 -0.391720
C14   C     C_2   0.604548 0.935549 0.534503 0.310777
C15   C     C_2   0.504791 0.867860 0.500652 -0.396998
C16   C     C_2   0.075088 0.570164 0.545368 0.067417
C17   C     C_2   0.921454 0.583358 0.535552 -0.026971
C18   C     C_R   0.498712 0.265109 0.502468 0.860836
C19   C     C_R   0.515671 0.504545 0.349711 0.794144
C20   C     C_R   0.481569 0.481470 0.735188 -0.137473
C21   C     C_R   0.602216 0.498876 0.778369 0.255728
C22   C     C_R   0.595548 0.478967 0.858220 -0.284052
C23   C     C_R   0.472674 0.439119 0.895653 0.051072
C24   C     C_R   0.354232 0.415725 0.852894 0.498447
Cu1   Cu    Cu3+1 0.361370 0.499980 0.499980 0.953952
Cu2   Cu    Cu3+1 0.638630 0.500020 0.500020 0.952718
H1    H     H_    0.713421 0.506417 0.096751 0.122729
H2    H     H_    0.708933 0.116433 0.519489 0.174286
H3    H     H_    0.392119 0.090008 0.518752 0.150346
H4    H     H_    0.426562 0.909954 0.466503 0.131297
H5    H     H_    0.121697 0.620878 0.592395 0.084596
H6    H     H_    0.871280 0.662768 0.561555 0.158840
H7    H     H_    0.890700 0.417460 0.490294 0.224063
H8    H     H_    0.294818 0.560051 0.267522 0.185385
H9    H     H_    0.279959 0.580584 0.128170 0.147901
H10   H     H_    0.264873 0.428335 0.741366 0.173851
H11   H     H_    0.686362 0.497284 0.891776 0.148787
N1    N     N_2   0.152990 0.501340 0.500850 -0.010695
N2    N     N_2   0.846850 0.501370 0.500880 -0.264547
O1    O     O_R   0.382960 0.678040 0.499990 -0.573838
O2    O     O_R   0.617100 0.678080 0.500010 -0.561027
O3    O     O_R   0.369350 0.500000 0.613580 -0.608088
O4    O     O_R   0.603500 0.500040 0.613610 -0.551072
O5    O     O_R   0.382900 0.321920 0.499990 -0.615352
O6    O     O_R   0.617040 0.321960 0.500010 -0.588365
O7    O     O_R   0.396500 0.499960 0.386390 -0.582803
O8    O     O_R   0.630650 0.500000 0.386420 -0.538742
N3    N     N_2   0.728996 0.541911 0.743031 -0.410034
H12   H     H_    0.769836 0.617267 0.771338 0.242663
C25   C     C_3   0.830723 0.447153 0.729986 -0.659363
H13   H     H_    0.923323 0.486629 0.698747 0.210267
H14   H     H_    0.788081 0.371447 0.693936 0.239161
H15   H     H_    0.862866 0.409692 0.786316 0.210647
N4    N     N_2   0.704120 0.878336 0.581915 -0.402622
H16   H     H_    0.663987 0.810137 0.617907 0.252962
C26   C     C_3   0.809192 0.953604 0.617629 -0.734414
H17   H     H_    0.875581 0.894649 0.652579 0.220004
H18   H     H_    0.760517 0.023544 0.656768 0.230580
H19   H     H_    0.876656 0.998661 0.572300 0.229920
O9    O     O_3   0.101458 0.477595 0.430246 -0.524403
C27   C     C_3   0.121544 0.352020 0.412885 0.166578
H20   H     H_    0.095143 0.293244 0.464357 0.110689
H21   H     H_    0.229557 0.335766 0.392906 0.190001
C28   C     C_3   0.029288 0.313932 0.346317 -0.418486
H22   H     H_    0.919494 0.333365 0.362338 0.247400
H23   H     H_    0.059597 0.368088 0.293696 0.223177
C29   C     C_3   0.042585 0.177431 0.327114 -0.934826
H24   H     H_    0.151196 0.155951 0.309505 0.254258
H25   H     H_    0.975238 0.153148 0.278293 0.262758
H26   H     H_    0.009922 0.121121 0.378372 0.257949
N5    N     N_2   0.766520 0.485933 0.246495 -0.427478
H27   H     H_    0.823832 0.423605 0.213936 0.238516
C30   C     C_3   0.845721 0.596490 0.262620 -0.640442
H28   H     H_    0.874265 0.645072 0.207585 0.200599
H29   H     H_    0.941796 0.572147 0.291785 0.241263
H30   H     H_    0.785431 0.659025 0.301822 0.246099
O10   O     O_3   0.464163 0.654077 0.977740 -0.617355
C31   C     C_3   0.518019 0.758460 0.016134 0.063177
H31   H     H_    0.627454 0.743704 0.031305 0.139805
H32   H     H_    0.454051 0.779198 0.069585 0.155602
C32   C     C_3   0.513404 0.868687 0.961790 -0.324101
H33   H     H_    0.575902 0.849228 0.907688 0.222062
H34   H     H_    0.404789 0.883975 0.945806 0.222780
C33   C     C_3   0.569687 0.985189 0.000000 -0.941229
H35   H     H_    0.508374 0.006681 0.054117 0.259329
H36   H     H_    0.562832 0.063592 0.959447 0.266560
H37   H     H_    0.679685 0.973474 0.014212 0.255354
O11   O     O_3   0.230762 0.379485 0.889477 -0.614257
C34   C     C_3   0.220853 0.249458 0.890245 0.057748
H38   H     H_    0.158135 0.223171 0.943078 0.169926
H39   H     H_    0.322886 0.203995 0.894963 0.147143
C35   C     C_3   0.146690 0.200507 0.818879 -0.377890
H40   H     H_    0.048204 0.250108 0.812981 0.227303
H41   H     H_    0.212702 0.215976 0.765599 0.209852
C36   C     C_3   0.115284 0.063055 0.825675 -0.915062
H42   H     H_    0.212578 0.011475 0.831080 0.256215
H43   H     H_    0.063139 0.030174 0.772837 0.255171
H44   H     H_    0.045780 0.044516 0.877240 0.254642
N6    N     N_2   0.477367 0.321178 0.018366 -0.463273
H45   H     H_    0.571936 0.304204 0.041430 0.248093
C37   C     C_3   0.359658 0.283107 0.067381 -0.694952
H46   H     H_    0.333907 0.185515 0.054700 0.222367
H47   H     H_    0.267127 0.339187 0.057051 0.242756
H48   H     H_    0.385191 0.291387 0.129626 0.231957

loop_
_geom_bond_atom_site_label_1
_geom_bond_atom_site_label_2
_ccdc_geom_bond_type
C37   H46   S    
C30   H28   S    
C36   H42   S    
C33   H37   S    
C32   H33   S    
C19   O7    A    
O10   C31   S    
C16   H5    S    
H7    N2    S    
C13   C18   S    
C13   H3    S    
C8    N6    S    
C33   H36   S    
C12   O4    A    
C3    C7    A    
Cu1   O1    S    
C5    C6    A    
C11   C14   S    
C19   O8    A    
Cu2   N2    S    
C8    C23   S    
C26   H17   S    
C17   N2    D    
C27   H21   S    
C12   O3    A    
Cu2   O6    S    
C6    H1    S    
C8    C9    D    
C25   H14   S    
C23   C24   A    
C1    C15   S    
C34   H39   S    
C1    O1    A    
C21   N3    S    
N3    C25   S    
C37   H47   S    
C21   C22   A    
C30   H29   S    
Cu1   O5    S    
C32   H34   S    
Cu2   O4    S    
C4    H8    S    
N4    C26   S    
C36   H44   S    
C25   H15   S    
C2    C20   A    
C29   H24   S    
C28   C29   S    
C33   H35   S    
N5    C30   S    
C31   H31   S    
C16   C17   S    
Cu1   Cu2   S    
C22   H11   S    
C35   C36   S    
O9    C27   S    
C29   H25   S    
C28   H23   S    
C27   C28   S    
C18   O5    A    
Cu1   N1    S    
N6    H45   S    
C3    H9    S    
C10   C19   S    
C12   C20   S    
C35   H41   S    
C25   H13   S    
C9    O10   S    
C20   C21   A    
C34   C35   S    
C24   O11   S    
Cu2   O8    S    
N1    O9    S    
C1    O2    A    
N3    H12   S    
C14   N4    S    
C37   H48   S    
C2    C24   A    
C30   H30   S    
C4    C10   A    
C3    C4    A    
C18   O6    A    
C32   C33   S    
C15   H4    S    
C2    H10   S    
C7    C9    S    
N4    H16   S    
N6    C37   S    
C14   C15   D    
Cu1   O3    S    
C36   H43   S    
C6    C7    A    
C26   H19   S    
C29   H26   S    
C28   H22   S    
N5    H27   S    
C5    N5    S    
C11   C13   D    
C31   C32   S    
C11   H2    S    
C35   H40   S    
C26   H18   S    
C31   H32   S    
C27   H20   S    
C5    C10   A    
O11   C34   S    
C17   H6    S    
C22   C23   A    
C34   H38   S    
Cu1   O7    S    
Cu2   O2    S    
C16   N1    D    
