data_mof_unit_66575.cif
_audit_creation_date              2012-10-26T20:20:47-0400
_audit_creation_method            fapswitch 2.2
_symmetry_space_group_name_H-M    P1
_symmetry_Int_Tables_number       1
_space_group_crystal_system       triclinic
_cell_length_a                    8.786097
_cell_length_b                    10.843906
_cell_length_c                    9.650744
_cell_angle_alpha                 90.355771
_cell_angle_beta                  97.523971
_cell_angle_gamma                 93.517362
_cell_volume                      909.752538517

loop_
_atom_site_label
_atom_site_type_symbol
_atom_type_description
_atom_site_fract_x
_atom_site_fract_y
_atom_site_fract_z
_atom_type_partial_charge
C1    C     C_R   0.514439 0.263252 0.500724 0.550619
C2    C     C_R   0.524614 0.063857 0.627033 0.091362
C3    C     C_R   0.475571 0.872138 0.495214 -0.027000
C4    C     C_R   0.530366 0.128489 0.500466 -0.053814
C5    C     C_R   0.395907 0.426098 0.060822 0.153575
C6    C     C_R   0.590795 0.585457 0.938820 0.117715
C7    C     C_R   0.408035 0.415395 0.915438 0.097781
C8    C     C_R   0.603750 0.574312 0.086999 0.130604
C9    C     C_3   0.003885 0.252146 0.430410 -0.294885
C10   C     C_3   0.066826 0.570909 0.793741 -0.165878
C11   C     C_2   0.613818 0.109714 0.258426 0.595532
C12   C     C_R   0.488077 0.737040 0.498532 0.585505
C13   C     C_2   0.367942 0.887203 0.721180 0.598991
C14   C     C_3   0.282217 0.839724 0.203711 -0.264749
C15   C     C_3   0.750424 0.162207 0.767435 -0.266678
C16   C     C_2   0.258190 0.366297 0.110732 0.642779
C17   C     C_2   0.661215 0.701337 0.885982 0.615890
C18   C     C_2   0.320803 0.307673 0.839655 0.614238
C19   C     C_2   0.738497 0.638236 0.171686 0.635855
C20   C     C_R   0.204384 0.497211 0.465461 0.580553
C21   C     C_R   0.795446 0.503492 0.535408 0.566804
C22   C     C_2   0.039206 0.472351 0.455342 0.147585
C23   C     C_2   0.961064 0.522602 0.551178 0.129001
C24   C     C_R   0.530531 0.061581 0.373677 0.034639
C25   C     C_R   0.469797 0.938885 0.620003 0.013380
C26   C     C_R   0.487303 0.935248 0.369292 0.115867
Cu1   Cu    Cu3+1 0.500000 0.500020 0.640660 1.057243
Cu2   Cu    Cu3+1 0.500000 0.499980 0.359340 1.075020
H1    H     H_    0.991726 0.376725 0.268106 0.319198
H2    H     H_    0.301692 0.886235 0.912878 0.330068
H3    H     H_    0.492584 0.908745 0.153206 0.327402
H4    H     H_    0.219311 0.923719 0.175381 0.157755
H5    H     H_    0.234717 0.794266 0.293035 0.157081
H6    H     H_    0.263375 0.773266 0.114274 0.145104
H7    H     H_    0.569693 0.075204 0.846451 0.341247
H8    H     H_    0.820806 0.082201 0.754342 0.142940
H9    H     H_    0.789055 0.205715 0.871668 0.164316
H10   H     H_    0.770240 0.232180 0.687588 0.152289
H11   H     H_    0.162038 0.217820 0.198362 0.314561
H12   H     H_    0.954571 0.241454 0.529998 0.154821
H13   H     H_    0.794903 0.786983 0.757923 0.314599
H14   H     H_    0.254157 0.127377 0.846484 0.351689
H15   H     H_    0.969452 0.651082 0.219248 0.327084
H16   H     H_    0.130078 0.242351 0.450180 0.172264
H17   H     H_    0.953315 0.177323 0.357505 0.191083
H18   H     H_    0.985939 0.697203 0.642321 0.279627
H19   H     H_    0.192062 0.585004 0.827775 0.179720
H20   H     H_    0.030134 0.471856 0.804212 0.193197
H21   H     H_    0.008791 0.626026 0.865855 0.184993
H22   H     H_    0.623042 0.220838 0.092843 0.335359
N1    N     N_R   0.500040 0.500030 0.852080 -0.308169
N2    N     N_R   0.499960 0.499970 0.147920 -0.304678
N3    N     N_2   0.970651 0.370975 0.369986 -0.516478
N4    N     N_2   0.033209 0.612549 0.651031 -0.489599
N5    N     N_2   0.445300 0.872643 0.237475 -0.435113
N6    N     N_2   0.589044 0.121387 0.757648 -0.455405
O1    O     O_R   0.499990 0.319660 0.618740 -0.463931
O2    O     O_R   0.555291 0.199931 0.167879 -0.600011
O3    O     O_2   0.261491 0.813152 0.678439 -0.541007
O4    O     O_R   0.384898 0.925100 0.860888 -0.680505
O5    O     O_2   0.133184 0.406778 0.072015 -0.579651
O6    O     O_R   0.266878 0.257519 0.186953 -0.616957
O7    O     O_2   0.641207 0.799810 0.941110 -0.497015
O8    O     O_R   0.756429 0.700660 0.782067 -0.681937
O9    O     O_2   0.230723 0.320387 0.734623 -0.534179
O10   O     O_R   0.329342 0.191054 0.899608 -0.657918
O11   O     O_2   0.724396 0.730091 0.241352 -0.455042
O12   O     O_R   0.500010 0.680340 0.381260 -0.450545
O13   O     O_R   0.884863 0.598459 0.161078 -0.701998
O14   O     O_R   0.499990 0.319630 0.381170 -0.436666
O15   O     O_R   0.500010 0.680370 0.618830 -0.465101
O16   O     O_R   0.274840 0.500010 0.591370 -0.446596
O17   O     O_R   0.725160 0.499990 0.408630 -0.480034
O18   O     O_R   0.274830 0.499980 0.353800 -0.513425
O19   O     O_R   0.725170 0.500020 0.646200 -0.476498
O20   O     O_2   0.730059 0.060799 0.235870 -0.525474

loop_
_geom_bond_atom_site_label_1
_geom_bond_atom_site_label_2
_ccdc_geom_bond_type
C14   H6    S    
C2    C4    A    
C9    H12   S    
C15   H10   S    
C19   O11   D    
C13   O3    D    
C1    O1    A    
C6    N1    A    
C18   O10   S    
C11   O2    S    
Cu2   N2    S    
C21   O19   A    
C5    C16   S    
C1    O14   A    
H13   O8    S    
C7    C18   S    
Cu2   O18   S    
C15   N6    S    
C1    C4    S    
C14   H5    S    
C14   N5    S    
H7    N6    S    
C7    N1    A    
C6    C17   S    
H15   O13   S    
C13   O4    S    
C2    N6    S    
C17   O7    D    
C18   O9    D    
C9    H17   S    
C12   O12   A    
H18   N4    S    
C16   O6    S    
C10   N4    S    
Cu2   O17   S    
Cu1   Cu2   S    
Cu2   O12   S    
C26   N5    S    
Cu1   N1    S    
H1    N3    S    
C2    C25   A    
C11   O20   D    
C21   C23   S    
C17   O8    S    
C10   H20   S    
C4    C24   A    
Cu1   O19   S    
C19   O13   S    
C8    C19   S    
C9    N3    S    
C16   O5    D    
C20   C22   S    
C20   O18   A    
H22   O2    S    
C21   O17   A    
C11   C24   S    
C3    C25   A    
Cu1   O15   S    
C22   N3    S    
C23   N4    S    
C5    C7    A    
Cu1   O1    S    
C14   H4    S    
C10   H19   S    
H14   O10   S    
H11   O6    S    
C8    N2    A    
C22   C23   D    
C15   H9    S    
C9    H16   S    
C6    C8    A    
C3    C12   S    
C5    N2    A    
H3    N5    S    
C15   H8    S    
C10   H21   S    
C20   O16   A    
C12   O15   A    
C3    C26   A    
Cu2   O14   S    
Cu1   O16   S    
C24   C26   A    
C13   C25   S    
H2    O4    S    
