data_mof_unit_14260.cif
_audit_creation_date              2012-10-26T18:25:40-0400
_audit_creation_method            fapswitch 2.2
_symmetry_space_group_name_H-M    P1
_symmetry_Int_Tables_number       1
_space_group_crystal_system       triclinic
_cell_length_a                    7.432974
_cell_length_b                    8.693687
_cell_length_c                    10.918548
_cell_angle_alpha                 89.015583
_cell_angle_beta                  74.772186
_cell_angle_gamma                 103.144595
_cell_volume                      660.721628822

loop_
_atom_site_label
_atom_site_type_symbol
_atom_type_description
_atom_site_fract_x
_atom_site_fract_y
_atom_site_fract_z
_atom_type_partial_charge
C1    C     C_R   0.451848 0.199519 0.504222 0.592366
C2    C     C_2   0.575045 0.968545 0.494281 -0.107907
C3    C     C_R   0.548114 0.800480 0.496151 0.544392
C4    C     C_R   0.425874 0.483744 0.742713 0.575116
C5    C     C_R   0.570483 0.497432 0.258300 0.569784
C6    C     C_2   0.390910 0.463583 0.880419 -0.089076
C7    C     C_2   0.595576 0.481012 0.122959 -0.079519
C8    C     C_2   0.497165 0.396131 0.937862 0.228300
C9    C     C_2   0.457713 0.394861 0.075210 0.234739
C10   C     C_2   0.425018 0.031504 0.506213 -0.089455
Cu1   Cu    Cu3+1 0.688910 0.517800 0.485820 1.075082
Cu2   Cu    Cu3+1 0.311090 0.482200 0.514180 1.102716
H1    H     H_    0.732574 0.543245 0.058704 0.122315
H2    H     H_    0.271516 0.505719 0.938420 0.126143
H3    H     H_    0.280651 0.959286 0.517315 0.145017
H4    H     H_    0.719442 0.040801 0.483111 0.147143
H5    H     H_    0.921294 0.360123 0.583630 0.293957
H6    H     H_    0.080849 0.634605 0.409830 0.257223
H7    H     H_    0.964355 0.293191 0.278037 0.371250
H8    H     H_    0.831524 0.145478 0.922833 0.381852
N1    N     N_2   0.027170 0.455360 0.535550 -0.217517
N2    N     N_2   0.972830 0.544640 0.464450 -0.242434
O1    O     O_R   0.622710 0.286400 0.490790 -0.517725
O2    O     O_2   0.277318 0.169170 0.267622 -0.274449
O3    O     O_3   0.083019 0.372690 0.232871 -0.512314
O4    O     O_2   0.623380 0.210122 0.755925 -0.305497
O5    O     O_2   0.861515 0.427629 0.808787 -0.306243
O6    O     O_3   0.713247 0.177763 0.967579 -0.479815
O7    O     O_R   0.377290 0.713600 0.509210 -0.523155
O8    O     O_R   0.303660 0.256330 0.514730 -0.475224
O9    O     O_R   0.696340 0.743670 0.485270 -0.498092
O10   O     O_R   0.600900 0.509520 0.671740 -0.450069
O11   O     O_R   0.399100 0.490480 0.328260 -0.449383
O12   O     O_R   0.281840 0.479450 0.695690 -0.464797
O13   O     O_R   0.718160 0.520550 0.304310 -0.489824
O14   O     O_2   0.154130 0.155906 0.080172 -0.259762
S1    S     S_3+6 0.239662 0.265801 0.165948 0.045867
S2    S     S_3+6 0.678923 0.302260 0.860944 0.018995

loop_
_geom_bond_atom_site_label_1
_geom_bond_atom_site_label_2
_ccdc_geom_bond_type
Cu1   Cu2   S    
C5    C7    S    
Cu2   N1    S    
Cu2   O7    S    
C6    H2    S    
C2    H4    S    
Cu1   N2    S    
O6    S2    S    
O3    S1    S    
C9    S1    S    
O2    S1    D    
Cu1   O9    S    
N1    N2    D    
C3    O9    A    
C4    O10   A    
C8    S2    S    
C5    O13   A    
Cu1   O1    S    
O14   S1    D    
Cu1   O10   S    
C1    O1    A    
C2    C3    S    
C10   H3    S    
H7    O3    S    
C4    O12   A    
O5    S2    D    
Cu2   O12   S    
C2    C10   D    
C7    C9    D    
C7    H1    S    
C4    C6    S    
C3    O7    A    
C1    O8    A    
C6    C8    D    
H8    O6    S    
Cu2   O8    S    
Cu2   O11   S    
H6    N2    S    
Cu1   O13   S    
O4    S2    D    
C1    C10   S    
C5    O11   A    
C8    C9    S    
H5    N1    S    
