data_mof_unit_11711.cif
_audit_creation_date              2012-12-10T17:08:11-0500
_audit_creation_method            fapswitch 2.2
_symmetry_space_group_name_H-M    P1
_symmetry_Int_Tables_number       1
_space_group_crystal_system       triclinic
_cell_length_a                    23.57888
_cell_length_b                    10.840481
_cell_length_c                    9.911785
_cell_angle_alpha                 109.540201
_cell_angle_beta                  98.671406
_cell_angle_gamma                 92.220134
_cell_volume                      2349.47558862

loop_
_atom_site_label
_atom_site_type_symbol
_atom_type_description
_atom_site_fract_x
_atom_site_fract_y
_atom_site_fract_z
_atom_type_partial_charge
C1    C     C_R   0.494508 0.253450 0.442586 0.892413
C2    C     C_R   0.502161 0.746059 0.556893 0.806119
C3    C     C_R   0.228377 0.506459 0.385668 0.215670
C4    C     C_R   0.756894 0.513329 0.391307 0.146763
C5    C     C_R   0.287543 0.506341 0.378338 0.068105
C6    C     C_R   0.696931 0.515209 0.385279 0.133438
C7    C     C_R   0.327790 0.502046 0.499352 -0.109480
C8    C     C_R   0.671586 0.498929 0.499783 -0.079404
C9    C     C_R   0.306862 0.498356 0.623527 -0.245571
C10   C     C_R   0.706912 0.481081 0.618125 -0.277477
C11   C     C_R   0.248310 0.496409 0.628625 -0.174274
C12   C     C_R   0.766021 0.478182 0.623012 -0.136270
C13   C     C_R   0.208969 0.499933 0.510271 0.316896
C14   C     C_R   0.791230 0.493882 0.510428 0.311084
C15   C     C_2   0.489343 0.111749 0.415817 -0.018292
C16   C     C_2   0.498769 0.886454 0.580489 -0.038840
C17   C     C_2   0.461904 0.063773 0.501167 0.135499
C18   C     C_2   0.461246 0.924257 0.487177 0.124560
C19   C     C_2   0.499715 0.522904 0.080934 0.310653
C20   C     C_2   0.489036 0.502788 0.921886 0.339051
C21   C     C_R   0.390897 0.501073 0.499952 0.804954
C22   C     C_R   0.608905 0.500569 0.499628 0.812343
C23   C     C_R   0.887439 0.601190 0.604162 0.540137
C24   C     C_R   0.113621 0.385073 0.435468 0.595817
C25   C     C_R   0.873492 0.380097 0.439234 0.536765
C26   C     C_R   0.127666 0.604943 0.603121 0.569383
C27   C     C_R   0.933156 0.377305 0.435376 -0.086192
C28   C     C_R   0.068068 0.606502 0.607812 -0.087814
C29   C     C_R   0.970593 0.491043 0.523415 -0.096349
C30   C     C_R   0.030747 0.492239 0.522711 -0.120491
C31   C     C_R   0.947876 0.603708 0.611976 -0.084954
C32   C     C_R   0.053698 0.379434 0.436344 -0.093769
C33   C     C_R   0.956546 0.265901 0.346266 0.191489
C34   C     C_R   0.045204 0.718087 0.696094 0.223450
C35   C     C_R   0.016385 0.265602 0.351214 0.229594
C36   C     C_R   0.986176 0.714869 0.703238 0.192861
Cu1   Cu    Cu3+1 0.509980 0.521810 0.644910 0.960506
Cu2   Cu    Cu3+1 0.490020 0.478190 0.355090 0.940523
H1    H     H_    0.335606 0.495644 0.717423 0.188460
H2    H     H_    0.688784 0.468055 0.707123 0.170943
H3    H     H_    0.233329 0.491804 0.725053 0.156751
H4    H     H_    0.792484 0.463725 0.714778 0.148318
N1    N     N_R   0.852429 0.491580 0.518373 -0.455809
N2    N     N_R   0.148528 0.496476 0.516764 -0.458535
N3    N     N_2   0.475010 0.445410 0.137370 -0.115119
N4    N     N_2   0.524990 0.554590 0.862630 -0.080877
O1    O     O_R   0.505330 0.332340 0.577400 -0.557310
O2    O     O_R   0.494670 0.667660 0.422600 -0.578775
O3    O     O_R   0.488470 0.295500 0.332650 -0.576318
O4    O     O_R   0.511530 0.704500 0.667350 -0.576706
O5    O     O_R   0.426310 0.518390 0.622390 -0.541426
O6    O     O_R   0.573690 0.481610 0.377610 -0.560861
O7    O     O_R   0.409450 0.481550 0.377650 -0.591068
O8    O     O_R   0.590550 0.518450 0.622350 -0.599104
O9    O     O_2   0.862950 0.707205 0.679023 -0.560290
O10   O     O_2   0.137366 0.280929 0.353515 -0.508567
O11   O     O_2   0.836078 0.273208 0.365466 -0.559108
O12   O     O_2   0.164984 0.710493 0.683700 -0.509603
N5    N     N_2   0.921345 0.151472 0.249561 -0.430490
H5    H     H_    0.895365 0.103839 0.295131 0.295939
C37   C     C_3   0.896871 0.158109 0.109373 -0.634609
H6    H     H_    0.871997 0.062984 0.041020 0.233081
H7    H     H_    0.931651 0.177254 0.052783 0.210630
H8    H     H_    0.867613 0.237461 0.121773 0.248503
N6    N     N_2   0.081394 0.836303 0.777154 -0.360926
H9    H     H_    0.075625 0.878537 0.883428 0.272269
C38   C     C_3   0.082757 0.930620 0.702947 -0.597809
H10   H     H_    0.039807 0.967814 0.688530 0.200255
H11   H     H_    0.095401 0.884887 0.594832 0.235637
H12   H     H_    0.114924 0.014958 0.768277 0.229188
N7    N     N_2   0.581732 0.577147 0.931122 -0.344347
H13   H     H_    0.606541 0.505713 0.879767 0.254687
C39   C     C_3   0.606850 0.708614 0.957854 -0.549470
H14   H     H_    0.650723 0.723623 0.023418 0.191136
H15   H     H_    0.580224 0.782394 0.019417 0.227215
H16   H     H_    0.610154 0.723954 0.854022 0.232384
N8    N     N_2   0.455149 0.318709 0.047787 -0.383260
H17   H     H_    0.424977 0.277636 0.089416 0.280129
C40   C     C_3   0.500348 0.233738 0.007413 -0.616304
H18   H     H_    0.480899 0.131111 0.949684 0.200468
H19   H     H_    0.531230 0.236597 0.104904 0.263858
H20   H     H_    0.524183 0.264360 0.933694 0.216492
N9    N     N_2   0.038880 0.148711 0.269766 -0.362594
H21   H     H_    0.018061 0.105861 0.163717 0.266299
C41   C     C_3   0.048171 0.054804 0.343923 -0.620000
H22   H     H_    0.069461 0.971738 0.277683 0.224293
H23   H     H_    0.006413 0.015487 0.359792 0.205544
H24   H     H_    0.076548 0.101715 0.451265 0.236458
N10   N     N_2   0.967236 0.826101 0.804692 -0.426885
H25   H     H_    0.937274 0.876692 0.763371 0.293269
C42   C     C_3   0.960707 0.812439 0.942030 -0.643299
H26   H     H_    0.949734 0.906645 0.016439 0.233735
H27   H     H_    0.001683 0.787415 0.993804 0.212790
H28   H     H_    0.925909 0.734375 0.926111 0.253520
N11   N     N_3   0.187319 0.513565 0.266682 -0.573702
H29   H     H_    0.190320 0.433327 0.174174 0.248955
H30   H     H_    0.198378 0.599707 0.247305 0.231334
N12   N     N_3   0.782447 0.533549 0.276980 -0.615046
H31   H     H_    0.813799 0.613713 0.322926 0.228067
H32   H     H_    0.802695 0.450195 0.227731 0.235450
N13   N     N_3   0.304779 0.511468 0.247390 -0.608575
H33   H     H_    0.334655 0.592955 0.272434 0.244781
H34   H     H_    0.322653 0.424696 0.196983 0.246611
N14   N     N_3   0.662172 0.535885 0.264358 -0.574896
H35   H     H_    0.667458 0.461386 0.169035 0.240657
H36   H     H_    0.677020 0.625974 0.258955 0.234525
N15   N     N_3   0.418176 0.831139 0.378420 -0.601049
H37   H     H_    0.394741 0.878106 0.314802 0.212084
H38   H     H_    0.389013 0.800323 0.433052 0.204989
N16   N     N_3   0.429985 0.145991 0.602519 -0.595224
H39   H     H_    0.386684 0.108456 0.570010 0.209978
H40   H     H_    0.443985 0.136499 0.703318 0.237677
N17   N     N_3   0.537534 0.982070 0.697688 -0.614945
H41   H     H_    0.531834 0.968057 0.794250 0.223012
H42   H     H_    0.579575 0.962143 0.682291 0.213937
N18   N     N_3   0.514991 0.027556 0.300112 -0.620591
H43   H     H_    0.482834 0.958525 0.226294 0.228945
H44   H     H_    0.545517 0.977430 0.343697 0.231129
N19   N     N_3   0.432401 0.452141 0.842909 -0.546663
H45   H     H_    0.427439 0.351015 0.818024 0.242817
H46   H     H_    0.402611 0.493718 0.909197 0.179375
N20   N     N_3   0.530018 0.646968 0.171623 -0.593900
H47   H     H_    0.560616 0.636792 0.253473 0.279420
H48   H     H_    0.500475 0.713372 0.210872 0.239172

loop_
_geom_bond_atom_site_label_1
_geom_bond_atom_site_label_2
_ccdc_geom_bond_type
C36   N10   S    
C21   O7    A    
C19   N20   S    
N13   H33   S    
C4    N12   S    
C27   C29   A    
C39   H15   S    
C39   H14   S    
N11   H29   S    
C16   N17   S    
C25   N1    A    
N14   H36   S    
C26   N2    A    
C22   O8    A    
Cu2   O3    S    
N8    H17   S    
C27   C33   A    
Cu1   Cu2   S    
C41   H22   S    
Cu1   O5    S    
Cu2   O6    S    
C9    H1    S    
C23   N1    A    
N18   H43   S    
C10   H2    S    
C37   H7    S    
C18   N15   S    
Cu2   N3    S    
C12   H4    S    
C2    O4    A    
N16   H39   S    
C19   C20   S    
N6    C38   S    
C8    C22   S    
N15   H37   S    
C1    C15   S    
C6    N14   S    
Cu1   O1    S    
C2    C16   S    
Cu2   O2    S    
C3    C13   A    
N8    C40   S    
C28   C34   A    
N5    H5    S    
C33   N5    S    
C17   N16   S    
N15   H38   S    
C25   O11   S    
C34   N6    S    
N14   H35   S    
N19   H46   S    
C5    N13   S    
N5    C37   S    
C41   H23   S    
C38   H10   S    
C32   C35   A    
C4    C6    A    
C42   H26   S    
C5    C7    A    
C35   N9    S    
C1    O1    A    
C6    C8    A    
C2    O2    A    
C7    C21   S    
C38   H11   S    
C23   C31   A    
C37   H8    S    
C24   C32   A    
C29   C30   A    
C42   H27   S    
C26   O12   S    
N9    H21   S    
N11   H30   S    
C17   C18   S    
C9    C11   A    
N4    N7    S    
C10   C12   A    
Cu1   O8    S    
C8    C10   A    
N9    C41   S    
C12   C14   A    
N6    H9    S    
N12   H32   S    
C24   N2    A    
C39   H16   S    
C24   O10   S    
N20   H48   S    
C21   O5    A    
C22   O6    A    
N17   H41   S    
N13   H34   S    
C41   H24   S    
C15   C17   D    
C31   C36   A    
C26   C28   A    
C3    C5    A    
C40   H20   S    
N3    N8    S    
N19   H45   S    
C19   N3    D    
C23   O9    S    
C25   C27   A    
C40   H19   S    
C38   H12   S    
C28   C30   A    
N10   H25   S    
N7    H13   S    
C29   C31   A    
C42   H28   S    
C30   C32   A    
Cu1   O4    S    
C11   C13   A    
Cu2   O7    S    
N10   C42   S    
C33   C35   A    
N18   H44   S    
C11   H3    S    
C34   C36   A    
C20   N19   S    
C4    C14   A    
C37   H6    S    
N16   H40   S    
C40   H18   S    
C7    C9    A    
C16   C18   D    
N12   H31   S    
N7    C39   S    
N20   H47   S    
C15   N18   S    
C3    N11   S    
Cu1   N4    S    
C1    O3    A    
C13   N2    S    
C20   N4    D    
C14   N1    S    
N17   H42   S    
