data_mof_unit_19268.cif
_audit_creation_date              2012-12-11T17:43:38-0500
_audit_creation_method            fapswitch 2.2
_symmetry_space_group_name_H-M    P1
_symmetry_Int_Tables_number       1
_space_group_crystal_system       triclinic
_cell_length_a                    15.055976
_cell_length_b                    15.199668
_cell_length_c                    16.927049
_cell_angle_alpha                 108.792463
_cell_angle_beta                  106.115114
_cell_angle_gamma                 109.378925
_cell_volume                      3122.44294848

loop_
_atom_site_label
_atom_site_type_symbol
_atom_type_description
_atom_site_fract_x
_atom_site_fract_y
_atom_site_fract_z
_atom_type_partial_charge
C1    C     C_R   0.090451 0.277246 0.036333 -0.085286
C2    C     C_R   0.075663 0.057807 0.944467 -0.280909
C3    C     C_R   0.995760 0.889960 0.940565 0.111708
C4    C     C_R   0.998331 0.079083 0.963848 0.096164
C5    C     C_R   0.074982 0.962257 0.931760 0.093600
C6    C     C_R   0.916682 0.003407 0.967981 0.101551
C7    C     C_R   0.729923 0.959592 0.927338 -0.282908
C8    C     C_R   0.262610 0.012469 0.967642 -0.264763
C9    C     C_R   0.675347 0.044469 0.037824 -0.130273
C10   C     C_R   0.315082 0.899332 0.875995 -0.131994
C11   C     C_R   0.490135 0.689316 0.352352 -0.113827
C12   C     C_R   0.912954 0.709003 0.921008 -0.134386
C13   C     C_R   0.517831 0.419751 0.729502 -0.121814
C14   C     C_R   0.502221 0.677911 0.271249 -0.132693
C15   C     C_R   0.525057 0.441266 0.818423 -0.115926
C16   C     C_R   0.935617 0.450802 0.735008 -0.110823
C17   C     C_R   0.064310 0.483894 0.254802 -0.126716
C18   C     C_R   0.526269 0.599185 0.227116 0.115667
C19   C     C_R   0.553834 0.543499 0.881561 0.109294
C20   C     C_R   0.539679 0.533427 0.266686 -0.170641
C21   C     C_R   0.573740 0.623371 0.854161 -0.197404
C22   C     C_R   0.527921 0.545441 0.348048 -0.100930
C23   C     C_R   0.027821 0.464577 0.725900 0.048564
C24   C     C_R   0.567653 0.601640 0.765512 -0.113945
C25   C     C_R   0.502923 0.623103 0.390697 -0.096741
C26   C     C_R   0.539700 0.499856 0.703198 -0.098038
C27   C     C_R   0.619481 0.571959 0.127502 -0.239750
C28   C     C_R   0.478982 0.583242 0.988608 -0.229278
C29   C     C_R   0.628692 0.559232 0.044904 0.068921
C30   C     C_R   0.462710 0.584672 0.065952 0.057629
C31   C     C_R   0.558158 0.566391 0.975021 0.017819
C32   C     C_R   0.535782 0.584982 0.139259 0.023513
C33   C     C_R   0.650869 0.972322 0.949450 -0.107408
C34   C     C_R   0.972907 0.426484 0.257746 0.072459
C35   C     C_R   0.341053 0.991948 0.950634 -0.095821
C36   C     C_R   0.964278 0.388566 0.325992 0.114246
C37   C     C_R   0.036220 0.419528 0.639244 0.128552
C38   C     C_R   0.140022 0.437050 0.553398 -0.223204
C39   C     C_R   0.859304 0.318162 0.397188 -0.216542
C40   C     C_R   0.720894 0.215051 0.823165 -0.146361
C41   C     C_R   0.222913 0.796318 0.187615 -0.133272
C42   C     C_R   0.133952 0.450826 0.636713 -0.173709
C43   C     C_R   0.866329 0.339004 0.324630 -0.205624
C44   C     C_R   0.945151 0.359013 0.556275 -0.275210
C45   C     C_R   0.664984 0.216569 0.744026 0.067281
C46   C     C_R   0.054608 0.409516 0.397564 -0.280822
C47   C     C_R   0.950453 0.353046 0.474436 0.191831
C48   C     C_R   0.048764 0.396246 0.473738 0.190013
C49   C     C_R   0.556819 0.141553 0.676751 0.131333
C50   C     C_R   0.279855 0.896680 0.360503 0.130446
C51   C     C_R   0.384182 0.085053 0.445128 -0.227864
C52   C     C_R   0.410715 0.968414 0.606732 -0.222977
C53   C     C_R   0.314974 0.995543 0.362186 -0.164439
C54   C     C_R   0.503185 0.049301 0.681365 -0.174230
C55   C     C_R   0.299280 0.890246 0.443898 -0.282895
C56   C     C_R   0.239261 0.801775 0.274299 0.057260
C57   C     C_R   0.510330 0.156790 0.601646 -0.303163
C58   C     C_R   0.373131 0.978491 0.526454 0.189840
C59   C     C_R   0.420108 0.075290 0.525771 0.195621
C60   C     C_R   0.778911 0.103828 0.104377 -0.300604
C61   C     C_R   0.210552 0.827205 0.817570 -0.287392
C62   C     C_R   0.859739 0.092630 0.082850 0.568922
C63   C     C_R   0.130418 0.847061 0.833490 0.555760
C64   C     C_R   0.300853 0.597566 0.005814 -0.154632
C65   C     C_R   0.737137 0.462924 0.047632 -0.137771
C66   C     C_R   0.834716 0.020404 0.993167 0.026148
C67   C     C_R   0.359055 0.565060 0.055758 0.059396
C68   C     C_R   0.156904 0.940215 0.910078 0.025965
C69   C     C_R   0.726238 0.309418 0.746473 -0.138712
C70   C     C_R   0.217577 0.701700 0.265272 -0.130207
C71   C     C_R   0.295450 0.499297 0.079117 -0.128476
C72   C     C_R   0.754436 0.565389 0.976989 -0.109519
C73   C     C_R   0.109733 0.535676 0.812554 -0.132062
C74   C     C_R   0.891355 0.400159 0.177535 -0.137440
C75   C     C_R   0.916260 0.194425 0.953221 -0.135422
C76   C     C_R   0.085598 0.796288 0.000690 -0.158457
C77   C     C_R   0.003092 0.179704 0.979116 0.079245
C78   C     C_R   0.709746 0.536107 0.030642 0.048041
C79   C     C_R   0.999535 0.800696 0.950351 0.121472
C80   C     C_R   0.915762 0.909218 0.954363 -0.271744
H1    H     H_    0.170245 0.293716 0.071713 0.093147
H2    H     H_    0.507816 0.378528 0.837987 0.114944
H3    H     H_    0.557402 0.471724 0.233805 0.106879
H4    H     H_    0.594986 0.702418 0.901805 0.126505
H5    H     H_    0.537666 0.494122 0.377795 0.105187
H6    H     H_    0.584115 0.663580 0.745008 0.108100
H7    H     H_    0.676752 0.570486 0.181827 0.132308
H8    H     H_    0.422079 0.581825 0.931740 0.129060
H9    H     H_    0.130614 0.445322 0.399052 0.119206
H10   H     H_    0.869133 0.328597 0.555979 0.117677
H11   H     H_    0.795020 0.320824 0.270201 0.116211
H12   H     H_    0.834764 0.682133 0.871192 0.109076
H13   H     H_    0.205841 0.493027 0.699212 0.119455
H14   H     H_    0.216044 0.468393 0.553414 0.128002
H15   H     H_    0.783355 0.284500 0.396830 0.125393
H16   H     H_    0.856657 0.401593 0.682309 0.093013
H17   H     H_    0.142853 0.504639 0.298843 0.087641
H18   H     H_    0.570527 0.925833 0.898126 0.108522
H19   H     H_    0.422174 0.047750 0.995724 0.108517
H20   H     H_    0.548972 0.227429 0.596823 0.112355
H21   H     H_    0.267779 0.815408 0.444402 0.119238
H22   H     H_    0.535294 0.036060 0.739411 0.115443
H23   H     H_    0.709747 0.902867 0.858578 0.141271
H24   H     H_    0.296725 0.003882 0.299449 0.118061
H25   H     H_    0.417481 0.159760 0.444420 0.124697
H26   H     H_    0.374263 0.895022 0.608724 0.126134
H27   H     H_    0.613902 0.053820 0.055062 0.116427
H28   H     H_    0.376064 0.883503 0.863192 0.114482
H29   H     H_    0.795882 0.157621 0.172837 0.132069
H30   H     H_    0.192067 0.756037 0.759720 0.123443
H31   H     H_    0.691291 0.163172 0.851063 0.095174
H32   H     H_    0.232645 0.859154 0.169042 0.095893
H33   H     H_    0.329057 0.658809 0.986214 0.097006
H34   H     H_    0.284347 0.084069 0.026775 0.137953
H35   H     H_    0.713441 0.422335 0.085930 0.097988
H36   H     H_    0.702244 0.344733 0.704135 0.090308
H37   H     H_    0.222789 0.676666 0.318388 0.094267
H38   H     H_    0.317871 0.466126 0.124186 0.107002
H39   H     H_    0.751964 0.623092 0.953896 0.111136
H40   H     H_    0.192153 0.564435 0.831399 0.094553
H41   H     H_    0.810948 0.342743 0.149818 0.088442
H42   H     H_    0.836180 0.135988 0.909195 0.110084
H43   H     H_    0.166523 0.851089 0.026275 0.101254
H44   H     H_    0.856051 0.853811 0.962591 0.133028
H45   H     H_    0.493486 0.631979 0.453469 0.098847
H46   H     H_    0.135994 0.115506 0.938851 0.137113
H47   H     H_    0.966283 0.196437 0.206604 0.316496
H48   H     H_    0.021962 0.716249 0.726465 0.312987
H49   H     H_    0.534295 0.482887 0.634339 0.099185
H50   H     H_    0.470786 0.749486 0.385432 0.115170
H51   H     H_    0.494411 0.340824 0.680764 0.117014
H52   H     H_    0.492388 0.730181 0.242668 0.114981
N1    N     N_R   0.055660 0.348550 0.045620 -0.044219
N2    N     N_R   0.185200 0.638170 0.176300 -0.040440
N3    N     N_R   0.201680 0.494570 0.045620 -0.043051
N4    N     N_R   0.798320 0.505430 0.954380 -0.043223
N5    N     N_R   0.068420 0.560530 0.871650 -0.037308
N6    N     N_R   0.931580 0.439470 0.128350 -0.037790
N7    N     N_R   0.948070 0.295860 0.997670 -0.041127
N8    N     N_R   0.051930 0.704140 0.002330 -0.039732
N9    N     N_R   0.944340 0.651450 0.954380 -0.044355
N10   N     N_R   0.960830 0.507850 0.823700 -0.038064
N11   N     N_R   0.039170 0.492150 0.176300 -0.040112
N12   N     N_R   0.811290 0.303410 0.871650 -0.039926
N13   N     N_R   0.188710 0.696590 0.128350 -0.040719
N14   N     N_R   0.205200 0.552990 0.997670 -0.038900
N15   N     N_R   0.794800 0.447010 0.002330 -0.041301
N16   N     N_R   0.814800 0.361830 0.823700 -0.040390
Ni1   Ni    Ni4+2 0.119340 0.493420 0.109960 0.219144
Ni2   Ni    Ni4+2 0.880660 0.506580 0.890040 0.223123
Ni3   Ni    Ni4+2 0.872590 0.372590 0.000000 0.216804
Ni4   Ni    Ni4+2 0.127410 0.627410 0.000000 0.217093
O1    O     O_3   0.962510 0.149740 0.147862 -0.771882
O2    O     O_3   0.026643 0.777726 0.775065 -0.775210

loop_
_geom_bond_atom_site_label_1
_geom_bond_atom_site_label_2
_ccdc_geom_bond_type
N5    N10   A    
C69   H36   S    
C27   C29   A    
C75   H42   S    
C1    C77   A    
C14   C18   A    
C16   N10   A    
C76   C79   A    
N12   N16   A    
C19   C31   S    
H47   O1    S    
C46   H9    S    
C14   H52   S    
C15   C19   A    
C74   N6    A    
C40   H31   S    
C19   C21   A    
N16   Ni2   S    
C38   C42   A    
N12   Ni3   S    
N6    N11   A    
C71   N3    A    
C11   C14   A    
C1    N1    A    
C57   C59   A    
C3    C80   A    
C53   H24   S    
C1    H1    S    
C49   C54   A    
C42   H13   S    
C12   C79   A    
C49   C57   A    
C12   N9    A    
C60   C62   A    
C33   H18   S    
C22   H5    S    
C37   C42   A    
C61   C63   A    
C25   H45   S    
C72   C78   A    
C60   H29   S    
C10   H28   S    
C29   C78   S    
C22   C25   A    
C28   H8    S    
N11   Ni1   S    
N5    Ni4   S    
C36   C46   A    
C10   C35   A    
C64   H33   S    
C65   N15   A    
N8    Ni4   S    
C67   C71   A    
C30   C67   S    
C44   C47   A    
C8    H34   S    
C52   H26   S    
C73   H40   S    
C7    H23   S    
C9    C33   A    
C7    C33   A    
C23   C73   A    
C5    C68   S    
C35   H19   S    
C61   H30   S    
C52   C54   A    
N9    Ni2   S    
C15   H2    S    
C76   N8    A    
C40   C45   A    
C46   C48   A    
C16   H16   S    
C50   C53   A    
C62   C66   A    
C45   C69   A    
N4    N15   A    
C64   C67   A    
N1    Ni1   S    
N8    N9    A    
C4    C6    A    
C39   C43   A    
C58   C59   A    
N3    Ni1   S    
N2    Ni1   S    
C41   H32   S    
C50   C56   S    
C24   H6    S    
C51   C53   A    
C8    C35   A    
C2    C4    A    
C41   C56   A    
C6    C80   A    
C47   C48   A    
C21   H4    S    
C45   C49   S    
C51   H25   S    
N3    N14   A    
C38   H14   S    
C13   H51   S    
C41   N13   A    
C27   H7    S    
C75   C77   A    
C39   H15   S    
C3    C79   S    
C26   H49   S    
C52   C58   A    
C34   C74   A    
N14   Ni4   S    
C2    H46   S    
C20   C22   A    
C8    C68   A    
C16   C23   A    
C56   C70   A    
C40   N12   A    
C13   C15   A    
C13   C26   A    
C55   C58   A    
C10   C61   A    
C51   C59   A    
C17   C34   A    
C21   C24   A    
C11   H50   S    
C44   H10   S    
C39   C47   A    
C80   H44   S    
N2    N13   A    
C63   C68   A    
C65   C78   A    
C71   H38   S    
C64   N14   A    
C27   C32   A    
C76   H43   S    
C38   C48   A    
C12   H12   S    
C28   C31   A    
C63   O2    S    
C24   C26   A    
C3    C5    A    
N4    Ni2   S    
N1    N7    A    
H48   O2    S    
N6    Ni3   S    
C9    H27   S    
C55   H21   S    
C50   C55   A    
C62   O1    S    
C17   N11   A    
C9    C60   A    
C54   H22   S    
N10   Ni2   S    
C37   C44   A    
C28   C30   A    
C65   H35   S    
C4    C77   S    
C29   C31   A    
C23   C37   S    
C7    C66   A    
C30   C32   A    
C57   H20   S    
C73   N5    A    
N15   Ni3   S    
C72   H39   S    
N7    Ni3   S    
C34   C36   S    
C18   C20   A    
C43   H11   S    
N13   Ni4   S    
C72   N4    A    
C2    C5    A    
C6    C66   S    
C74   H41   S    
C18   C32   S    
C20   H3    S    
C70   N2    A    
C69   N16   A    
C11   C25   A    
C36   C43   A    
C75   N7    A    
C70   H37   S    
C17   H17   S    
