data_mof_unit_62973.cif
_audit_creation_date              2012-12-10T20:06:47-0500
_audit_creation_method            fapswitch 2.2
_symmetry_space_group_name_H-M    P1
_symmetry_Int_Tables_number       1
_space_group_crystal_system       tetragonal
_cell_length_a                    32.123066
_cell_length_b                    32.123066
_cell_length_c                    38.732236
_cell_angle_alpha                 90.0
_cell_angle_beta                  90.0
_cell_angle_gamma                 90.0
_cell_volume                      39967.4600398

loop_
_atom_site_label
_atom_site_type_symbol
_atom_type_description
_atom_site_fract_x
_atom_site_fract_y
_atom_site_fract_z
_atom_type_partial_charge
Br1   Br    Br    0.981940 0.410709 0.817842 -0.374047
Br2   Br    Br    0.910709 0.518060 0.317842 -0.374047
Br3   Br    Br    0.518060 0.089291 0.317842 -0.374046
Br4   Br    Br    0.089291 0.481940 0.317842 -0.374046
Br5   Br    Br    0.518060 0.910709 0.682158 -0.374046
Br6   Br    Br    0.089291 0.518060 0.682158 -0.374047
Br7   Br    Br    0.481940 0.089291 0.682158 -0.374046
Br8   Br    Br    0.910709 0.481940 0.682158 -0.374046
Br9   Br    Br    0.698293 0.409888 0.999736 -0.296606
Br10  Br    Br    0.409889 0.301707 0.999702 -0.296607
Br11  Br    Br    0.301707 0.590112 0.999725 -0.296607
Br12  Br    Br    0.410709 0.018060 0.817842 -0.374046
Br13  Br    Br    0.590111 0.698293 0.999703 -0.296607
Br14  Br    Br    0.301707 0.409888 0.000275 -0.296606
Br15  Br    Br    0.590111 0.301707 0.000298 -0.296607
Br16  Br    Br    0.698293 0.590112 0.000264 -0.296606
Br17  Br    Br    0.409889 0.698293 0.000297 -0.296607
Br18  Br    Br    0.198293 0.909889 0.499709 -0.296607
Br19  Br    Br    0.909888 0.801707 0.499719 -0.296606
Br20  Br    Br    0.801707 0.090111 0.499709 -0.296607
Br21  Br    Br    0.090111 0.198293 0.499710 -0.296607
Br22  Br    Br    0.801707 0.909889 0.500291 -0.296607
Br23  Br    Br    0.018060 0.589291 0.817842 -0.374046
Br24  Br    Br    0.090112 0.801707 0.500280 -0.296606
Br25  Br    Br    0.198293 0.090111 0.500291 -0.296607
Br26  Br    Br    0.909889 0.198293 0.500290 -0.296607
Br27  Br    Br    0.589291 0.981939 0.817842 -0.374045
Br28  Br    Br    0.018060 0.410709 0.182158 -0.374046
Br29  Br    Br    0.589291 0.018060 0.182158 -0.374046
Br30  Br    Br    0.981940 0.589291 0.182158 -0.374047
Br31  Br    Br    0.410709 0.981940 0.182158 -0.374046
Br32  Br    Br    0.481940 0.910709 0.317842 -0.374046
C1    C     C_R   0.919391 0.500000 0.000000 0.910366
C2    C     C_R   0.538358 0.228546 0.000129 0.401181
C3    C     C_R   0.537403 0.993436 0.840617 0.273924
C4    C     C_R   0.006564 0.462597 0.159383 0.273924
C5    C     C_R   0.537403 0.006564 0.159383 0.273924
C6    C     C_R   0.993436 0.537403 0.159383 0.273924
C7    C     C_R   0.462597 0.993436 0.159383 0.273924
C8    C     C_R   0.493436 0.962597 0.340617 0.273924
C9    C     C_R   0.962597 0.506564 0.340617 0.273924
C10   C     C_R   0.506564 0.037402 0.340617 0.273924
C11   C     C_R   0.037402 0.493436 0.340617 0.273924
C12   C     C_R   0.506564 0.962597 0.659383 0.273924
C13   C     C_R   0.228546 0.461642 0.000119 0.401182
C14   C     C_R   0.037402 0.506564 0.659383 0.273924
C15   C     C_R   0.493436 0.037402 0.659383 0.273924
C16   C     C_R   0.962597 0.493436 0.659383 0.273924
C17   C     C_R   0.000000 0.500000 0.822418 -0.081230
C18   C     C_R   0.500000 0.000000 0.822418 -0.081231
C19   C     C_R   0.000000 0.500000 0.177582 -0.081230
C20   C     C_R   0.500000 0.000000 0.177582 -0.081231
C21   C     C_R   0.500000 0.000000 0.322418 -0.081231
C22   C     C_R   0.000000 0.500000 0.322418 -0.081231
C23   C     C_R   0.500000 0.000000 0.677582 -0.081231
C24   C     C_R   0.461642 0.771454 0.000128 0.401181
C25   C     C_R   0.000000 0.500000 0.677582 -0.081231
C26   C     C_R   0.000000 0.500000 0.894663 -0.151297
C27   C     C_R   0.500000 0.000000 0.894663 -0.151298
C28   C     C_R   0.000000 0.500000 0.105337 -0.151297
C29   C     C_R   0.500000 0.000000 0.105337 -0.151297
C30   C     C_R   0.500000 0.000000 0.394663 -0.151297
C31   C     C_R   0.000000 0.500000 0.394663 -0.151297
C32   C     C_R   0.500000 0.000000 0.605337 -0.151297
C33   C     C_R   0.000000 0.500000 0.605337 -0.151297
C34   C     C_R   0.000000 0.500000 0.715201 0.368989
C35   C     C_R   0.228546 0.538358 0.999881 0.401182
C36   C     C_R   0.500000 0.000000 0.715201 0.368989
C37   C     C_R   0.000000 0.500000 0.284799 0.368989
C38   C     C_R   0.500000 0.000000 0.284799 0.368989
C39   C     C_R   0.500000 0.000000 0.215201 0.368989
C40   C     C_R   0.000000 0.500000 0.215201 0.368988
C41   C     C_R   0.500000 0.000000 0.784798 0.368989
C42   C     C_R   0.000000 0.500000 0.784798 0.368988
C43   C     C_R   0.727957 0.462072 0.999888 0.264308
C44   C     C_R   0.462072 0.272043 0.999874 0.264309
C45   C     C_R   0.272043 0.537928 0.999883 0.264308
C46   C     C_R   0.461642 0.228546 0.999871 0.401181
C47   C     C_R   0.537928 0.727957 0.999874 0.264309
C48   C     C_R   0.272043 0.462072 0.000116 0.264308
C49   C     C_R   0.537928 0.272043 0.000126 0.264309
C50   C     C_R   0.727957 0.537928 0.000112 0.264308
C51   C     C_R   0.462072 0.727957 0.000125 0.264309
C52   C     C_R   0.227957 0.962072 0.499877 0.264309
C53   C     C_R   0.962071 0.772043 0.499881 0.264310
C54   C     C_R   0.772043 0.037928 0.499877 0.264309
C55   C     C_R   0.037928 0.227957 0.499877 0.264309
C56   C     C_R   0.772043 0.962072 0.500123 0.264309
C57   C     C_R   0.771454 0.461642 0.999886 0.401181
C58   C     C_R   0.037928 0.772043 0.500119 0.264310
C59   C     C_R   0.227957 0.037928 0.500123 0.264309
C60   C     C_R   0.962072 0.227957 0.500123 0.264309
C61   C     C_R   0.706406 0.500000 0.000000 -0.227260
C62   C     C_R   0.500000 0.293594 0.000000 -0.227260
C63   C     C_R   0.293594 0.500000 0.000000 -0.227260
C64   C     C_R   0.500000 0.706406 1.000000 -0.227260
C65   C     C_R   0.206406 0.000000 0.500000 -0.227260
C66   C     C_R   0.000000 0.793594 0.500000 -0.227261
C67   C     C_R   0.793594 0.000000 0.500000 -0.227260
C68   C     C_R   0.538358 0.771454 0.999872 0.401181
C69   C     C_R   0.000000 0.206406 0.500000 -0.227260
C70   C     C_R   0.271454 0.038358 0.500126 0.401182
C71   C     C_R   0.038358 0.728546 0.500121 0.401180
C72   C     C_R   0.728546 0.961642 0.500126 0.401181
C73   C     C_R   0.500000 0.080609 0.000000 0.910366
C74   C     C_R   0.961642 0.271454 0.500125 0.401181
C75   C     C_R   0.728546 0.038358 0.499875 0.401182
C76   C     C_R   0.961642 0.728546 0.499879 0.401179
C77   C     C_R   0.271454 0.961642 0.499874 0.401181
C78   C     C_R   0.038358 0.271454 0.499875 0.401182
C79   C     C_R   0.793406 0.500000 0.000000 -0.211404
C80   C     C_R   0.500000 0.206594 0.000000 -0.211403
C81   C     C_R   0.206594 0.500000 0.000000 -0.211404
C82   C     C_R   0.500000 0.793406 1.000000 -0.211403
C83   C     C_R   0.293406 0.000000 0.500000 -0.211402
C84   C     C_R   0.080609 0.500000 0.000000 0.910365
C85   C     C_R   0.000000 0.706594 0.500000 -0.211404
C86   C     C_R   0.706594 0.000000 0.500000 -0.211402
C87   C     C_R   0.000000 0.293406 0.500000 -0.211402
C88   C     C_1   0.661940 0.500000 0.000000 0.154366
C89   C     C_1   0.500000 0.338060 0.000000 0.154367
C90   C     C_1   0.338060 0.500000 0.000000 0.154366
C91   C     C_1   0.500000 0.661940 1.000000 0.154366
C92   C     C_1   0.161940 0.000000 0.500000 0.154367
C93   C     C_1   1.000000 0.838060 0.500000 0.154366
C94   C     C_1   0.838060 0.000000 0.500000 0.154367
C95   C     C_R   0.500000 0.919391 0.000000 0.910366
C96   C     C_1   0.000000 0.161940 0.500000 0.154367
C97   C     C_1   0.837993 0.500000 0.000000 -0.003080
C98   C     C_1   0.500000 0.162007 0.000000 -0.003082
C99   C     C_1   0.162007 0.500000 0.000000 -0.003081
C100  C     C_1   0.500000 0.837993 1.000000 -0.003082
C101  C     C_1   0.337993 0.000000 0.500000 -0.003082
C102  C     C_1   0.000000 0.662007 0.500000 -0.003080
C103  C     C_1   0.662007 0.000000 0.500000 -0.003082
C104  C     C_1   0.000000 0.337993 0.500000 -0.003082
C105  C     C_1   0.875245 0.500000 0.000000 -0.148569
C106  C     C_R   0.419391 0.000000 0.500000 0.910366
C107  C     C_1   0.500000 0.124755 0.000000 -0.148569
C108  C     C_1   0.124755 0.500000 0.000000 -0.148569
C109  C     C_1   0.500000 0.875245 1.000000 -0.148569
C110  C     C_1   0.375245 0.000000 0.500000 -0.148569
C111  C     C_1   0.000000 0.624755 0.500000 -0.148570
C112  C     C_1   0.624755 0.000000 0.500000 -0.148569
C113  C     C_1   0.000000 0.375245 0.500000 -0.148569
C114  C     C_1   0.624701 0.500000 0.000000 -0.088133
C115  C     C_1   0.500000 0.375298 0.000000 -0.088133
C116  C     C_1   0.375298 0.500000 0.000000 -0.088133
C117  C     C_R   0.000000 0.580609 0.500000 0.910365
C118  C     C_1   0.500000 0.624701 0.000000 -0.088132
C119  C     C_1   0.124701 0.000000 0.500000 -0.088132
C120  C     C_1   0.000000 0.875298 0.500000 -0.088134
C121  C     C_1   0.875298 0.000000 0.500000 -0.088133
C122  C     C_1   0.000000 0.124701 0.500000 -0.088132
C123  C     C_R   0.500000 0.419431 0.000000 0.893248
C124  C     C_R   0.419431 0.500000 0.000000 0.893248
C125  C     C_R   0.500000 0.580569 0.000000 0.893249
C126  C     C_R   0.580569 0.500000 0.000000 0.893249
C127  C     C_R   0.000000 0.919431 0.500000 0.893248
C128  C     C_R   0.580609 0.000000 0.500000 0.910366
C129  C     C_R   0.919431 0.000000 0.500000 0.893248
C130  C     C_R   0.000000 0.080569 0.500000 0.893249
C131  C     C_R   0.080569 0.000000 0.500000 0.893249
C132  C     C_R   0.000000 0.500000 0.932429 0.909895
C133  C     C_R   0.500000 1.000000 0.932429 0.909895
C134  C     C_R   0.000000 0.500000 0.067571 0.909894
C135  C     C_R   0.500000 0.000000 0.067571 0.909894
C136  C     C_R   0.500000 0.000000 0.432429 0.909895
C137  C     C_R   0.000000 0.500000 0.432429 0.909895
C138  C     C_R   0.500000 0.000000 0.567571 0.909894
C139  C     C_R   0.000000 0.419391 0.500000 0.910366
C140  C     C_R   0.000000 0.500000 0.567571 0.909894
C141  C     C_R   0.993631 0.462818 0.876535 -0.193541
C142  C     C_R   0.462818 0.006369 0.876535 -0.193541
C143  C     C_R   0.006369 0.537182 0.876535 -0.193541
C144  C     C_R   0.537182 0.993630 0.876535 -0.193541
C145  C     C_R   0.006369 0.462818 0.123465 -0.193541
C146  C     C_R   0.537182 0.006369 0.123465 -0.193541
C147  C     C_R   0.993631 0.537182 0.123465 -0.193541
C148  C     C_R   0.462818 0.993631 0.123465 -0.193541
C149  C     C_R   0.493631 0.962818 0.376535 -0.193541
C150  C     C_R   0.771454 0.538358 0.000114 0.401182
C151  C     C_R   0.962818 0.506369 0.376535 -0.193541
C152  C     C_R   0.506369 0.037182 0.376535 -0.193541
C153  C     C_R   0.037182 0.493631 0.376535 -0.193541
C154  C     C_R   0.506369 0.962818 0.623465 -0.193541
C155  C     C_R   0.037182 0.506369 0.623465 -0.193541
C156  C     C_R   0.493631 0.037182 0.623465 -0.193541
C157  C     C_R   0.962818 0.493631 0.623465 -0.193541
C158  C     C_R   0.993436 0.462597 0.840617 0.273924
C159  C     C_R   0.462597 0.006564 0.840617 0.273924
C160  C     C_R   0.006564 0.537403 0.840617 0.273924
H1    H     H_    0.988281 0.433911 0.890234 0.201700
H2    H     H_    0.933911 0.511719 0.390234 0.201700
H3    H     H_    0.511719 0.066089 0.390234 0.201700
H4    H     H_    0.066089 0.488281 0.390234 0.201700
H5    H     H_    0.511719 0.933911 0.609766 0.201700
H6    H     H_    0.066089 0.511719 0.609766 0.201700
H7    H     H_    0.488281 0.066089 0.609766 0.201700
H8    H     H_    0.933911 0.488281 0.609766 0.201700
H9    H     H_    0.821487 0.426308 0.999776 0.356260
H10   H     H_    0.426309 0.178513 0.999748 0.356260
H11   H     H_    0.178513 0.573691 0.999766 0.356260
H12   H     H_    0.433911 0.011719 0.890234 0.201700
H13   H     H_    0.573691 0.821487 0.999749 0.356260
H14   H     H_    0.178513 0.426309 0.000233 0.356260
H15   H     H_    0.573691 0.178513 0.000252 0.356260
H16   H     H_    0.821487 0.573691 0.000224 0.356260
H17   H     H_    0.426309 0.821487 0.000251 0.356260
H18   H     H_    0.321487 0.926309 0.499753 0.356260
H19   H     H_    0.926308 0.678513 0.499762 0.356260
H20   H     H_    0.678513 0.073691 0.499754 0.356260
H21   H     H_    0.073691 0.321487 0.499754 0.356260
H22   H     H_    0.678513 0.926309 0.500246 0.356260
H23   H     H_    0.011719 0.566089 0.890234 0.201700
H24   H     H_    0.073691 0.678513 0.500238 0.356260
H25   H     H_    0.321487 0.073691 0.500247 0.356260
H26   H     H_    0.926309 0.321487 0.500246 0.356260
H27   H     H_    0.566089 0.988281 0.890234 0.201700
H28   H     H_    0.011719 0.433911 0.109766 0.201700
H29   H     H_    0.566089 0.011719 0.109766 0.201700
H30   H     H_    0.988281 0.566089 0.109766 0.201700
H31   H     H_    0.433911 0.988281 0.109766 0.201700
H32   H     H_    0.488281 0.933911 0.390234 0.201700
N1    N     N_R   0.025780 0.474266 0.767149 -0.091841
N2    N     N_R   0.025734 0.525780 0.267149 -0.091842
N3    N     N_R   0.474220 0.025734 0.267149 -0.091842
N4    N     N_R   0.974266 0.474220 0.267149 -0.091841
N5    N     N_R   0.474220 0.974266 0.732851 -0.091842
N6    N     N_R   0.974266 0.525780 0.732851 -0.091842
N7    N     N_R   0.525780 0.025734 0.732851 -0.091842
N8    N     N_R   0.025734 0.474220 0.732851 -0.091842
N9    N     N_R   0.525734 0.025780 0.767149 -0.091842
N10   N     N_R   0.974220 0.525734 0.767149 -0.091841
N11   N     N_R   0.474266 0.974220 0.767149 -0.091842
N12   N     N_R   0.974220 0.474266 0.232851 -0.091841
N13   N     N_R   0.474266 0.025780 0.232851 -0.091842
N14   N     N_R   0.025780 0.525734 0.232851 -0.091841
N15   N     N_R   0.525734 0.974220 0.232851 -0.091842
N16   N     N_R   0.525780 0.974266 0.267149 -0.091842
O1    O     O_R   0.939070 0.534360 0.999910 -0.606730
O2    O     O_R   0.034360 0.560930 0.499910 -0.606730
O3    O     O_R   0.560930 0.965640 0.499910 -0.606729
O4    O     O_R   0.965640 0.439070 0.499910 -0.606730
O5    O     O_R   0.560930 0.034360 0.500090 -0.606730
O6    O     O_R   0.965640 0.560930 0.500090 -0.606729
O7    O     O_R   0.439070 0.965640 0.500090 -0.606730
O8    O     O_R   0.034360 0.439070 0.500090 -0.606730
O9    O     O_R   0.000050 0.534360 0.948990 -0.616557
O10   O     O_R   0.534360 0.999950 0.948990 -0.616557
O11   O     O_R   0.999950 0.465640 0.948990 -0.616556
O12   O     O_R   0.534360 0.060930 0.999910 -0.606730
O13   O     O_R   0.465640 0.000050 0.948990 -0.616556
O14   O     O_R   0.999950 0.534360 0.051010 -0.616557
O15   O     O_R   0.465640 0.999950 0.051010 -0.616557
O16   O     O_R   0.000050 0.465640 0.051010 -0.616557
O17   O     O_R   0.534360 0.000050 0.051010 -0.616557
O18   O     O_R   0.500050 0.034360 0.448990 -0.616557
O19   O     O_R   0.034360 0.499950 0.448990 -0.616557
O20   O     O_R   0.499950 0.965640 0.448990 -0.616556
O21   O     O_R   0.965640 0.500050 0.448990 -0.616556
O22   O     O_R   0.499950 0.034360 0.551010 -0.616557
O23   O     O_R   0.060930 0.465640 0.999910 -0.606729
O24   O     O_R   0.965640 0.499950 0.551010 -0.616557
O25   O     O_R   0.500050 0.965640 0.551010 -0.616557
O26   O     O_R   0.034360 0.500050 0.551010 -0.616557
O27   O     O_R   0.500080 0.438950 0.971150 -0.602856
O28   O     O_R   0.438950 0.499920 0.971150 -0.602855
O29   O     O_R   0.499920 0.561050 0.971150 -0.602855
O30   O     O_R   0.561050 0.500080 0.971150 -0.602856
O31   O     O_R   0.499920 0.438950 0.028850 -0.602855
O32   O     O_R   0.561050 0.499920 0.028850 -0.602857
O33   O     O_R   0.500080 0.561050 0.028850 -0.602857
O34   O     O_R   0.465640 0.939070 0.999910 -0.606730
O35   O     O_R   0.438950 0.500080 0.028850 -0.602856
O36   O     O_R   0.000080 0.938950 0.471150 -0.602855
O37   O     O_R   0.938950 0.999920 0.471150 -0.602856
O38   O     O_R   0.999920 0.061050 0.471150 -0.602856
O39   O     O_R   0.061050 0.000080 0.471150 -0.602856
O40   O     O_R   0.999920 0.938950 0.528850 -0.602856
O41   O     O_R   0.061050 0.999920 0.528850 -0.602857
O42   O     O_R   0.000080 0.061050 0.528850 -0.602857
O43   O     O_R   0.938950 0.000080 0.528850 -0.602855
O44   O     O_3   0.790899 0.423156 0.999771 -0.668639
O45   O     O_R   0.060930 0.534360 0.000090 -0.606730
O46   O     O_3   0.423156 0.209101 0.999742 -0.668639
O47   O     O_3   0.209101 0.576844 0.999761 -0.668639
O48   O     O_3   0.576844 0.790899 0.999743 -0.668639
O49   O     O_3   0.209101 0.423156 0.000239 -0.668639
O50   O     O_3   0.576844 0.209101 0.000258 -0.668639
O51   O     O_3   0.790899 0.576844 0.000229 -0.668639
O52   O     O_3   0.423156 0.790899 0.000257 -0.668639
O53   O     O_3   0.290899 0.923156 0.499747 -0.668639
O54   O     O_3   0.923155 0.709101 0.499757 -0.668637
O55   O     O_3   0.709101 0.076844 0.499748 -0.668639
O56   O     O_R   0.465640 0.060930 0.000090 -0.606729
O57   O     O_3   0.076844 0.290899 0.499748 -0.668639
O58   O     O_3   0.709101 0.923156 0.500252 -0.668639
O59   O     O_3   0.076844 0.709101 0.500243 -0.668637
O60   O     O_3   0.290899 0.076844 0.500253 -0.668639
O61   O     O_3   0.923156 0.290899 0.500251 -0.668639
O62   O     O_R   0.939070 0.465640 0.000090 -0.606730
O63   O     O_R   0.534360 0.939070 0.000090 -0.606730
O64   O     O_R   0.439070 0.034360 0.499910 -0.606730
Zn1   Zn    Zn3+2 1.000000 0.545910 0.000000 1.043899
Zn2   Zn    Zn3+2 0.500000 0.500000 0.038460 1.074195
Zn3   Zn    Zn3+2 0.000000 0.000000 0.461540 1.074195
Zn4   Zn    Zn3+2 0.000000 0.000000 0.538460 1.074195
Zn5   Zn    Zn3+2 0.545910 0.000000 0.000000 1.043899
Zn6   Zn    Zn3+2 0.000000 0.454090 0.000000 1.043899
Zn7   Zn    Zn3+2 0.454090 0.000000 0.000000 1.043899
Zn8   Zn    Zn3+2 0.500000 0.045910 0.500000 1.043899
Zn9   Zn    Zn3+2 0.045910 0.500000 0.500000 1.043899
Zn10  Zn    Zn3+2 0.500000 0.954090 0.500000 1.043899
Zn11  Zn    Zn3+2 0.954090 0.500000 0.500000 1.043899
Zn12  Zn    Zn3+2 0.500000 0.500000 0.961540 1.074195

loop_
_geom_bond_atom_site_label_1
_geom_bond_atom_site_label_2
_ccdc_geom_bond_type
C57   C79   A    
O40   Zn4   S    
O1    Zn1   S    
C33   C155  A    
C88   C114  T    
C139  O4    A    
O13   Zn7   S    
C26   C132  S    
Br13  C47   S    
C7    C148  A    
C5    C146  A    
C12   C23   A    
C74   O61   S    
O32   Zn2   S    
C42   N1    A    
Br2   C9    S    
Br26  C60   S    
C69   C96   S    
Br30  C6    S    
O14   Zn1   S    
O25   Zn10  S    
O31   Zn2   S    
C140  O26   A    
C99   C108  T    
C44   C62   A    
C102  C111  T    
H22   O58   S    
C131  O41   A    
C1    C105  S    
Br18  C52   S    
C89   C115  T    
C2    C49   A    
C90   C116  T    
C42   N10   A    
C115  C123  S    
C36   N7    A    
C96   C122  T    
C142  C159  A    
Br1   C158  S    
C71   C85   A    
C135  O15   A    
O21   Zn11  S    
H14   O49   S    
H13   O48   S    
Br27  C3    S    
C28   C145  A    
C79   C150  A    
C40   N12   A    
C121  C129  S    
H18   O53   S    
C140  O24   A    
H16   O51   S    
C39   N15   A    
C11   C22   A    
O39   Zn3   S    
O8    Zn9   S    
C137  O21   A    
C18   C159  A    
C16   C157  A    
C63   C90   S    
C60   C74   A    
C33   C157  A    
C52   C65   A    
C43   C61   A    
C24   C51   A    
C8    C149  A    
H11   O47   S    
O64   Zn8   S    
C6    C147  A    
O22   Zn8   S    
Br19  C53   S    
Br24  C58   S    
C17   C158  A    
Br4   C11   S    
C65   C92   S    
C152  H3    S    
C87   C104  S    
C47   C64   A    
C30   C149  A    
O35   Zn2   S    
C131  O39   A    
N6    N10   A    
C13   C48   A    
O4    Zn11  S    
C56   C67   A    
O28   Zn12  S    
C111  C117  S    
C97   C105  T    
C72   O58   S    
C20   C39   S    
C13   O49   S    
C135  O17   A    
C32   C154  A    
O38   Zn3   S    
C30   C136  S    
C117  O6    A    
C118  C125  S    
C2    C80   A    
C1    O1    A    
C35   C45   A    
C73   O56   A    
C25   C34   S    
C37   N2    A    
C16   C25   A    
O29   Zn12  S    
C28   C147  A    
C101  C110  T    
O2    Zn9   S    
C77   O53   S    
C44   C46   A    
C10   C21   A    
C70   O60   S    
C11   C153  A    
C151  H2    S    
C95   C109  S    
Br11  C45   S    
C55   C69   A    
C66   C93   S    
C144  H27   S    
C154  H5    S    
C106  O7    A    
C150  O51   S    
C75   C86   A    
C27   C133  S    
O63   Zn5   S    
C91   C118  T    
H24   O59   S    
C138  O25   A    
C38   N16   A    
Br23  C160  S    
C56   C72   A    
C67   C94   S    
N1    N8    A    
C155  H6    S    
C133  O10   A    
O26   Zn9   S    
C68   C82   A    
C27   C144  A    
C143  C160  A    
C5    C20   A    
O9    Zn1   S    
C6    C19   A    
C10   C152  A    
C62   C89   S    
O42   Zn4   S    
O15   Zn7   S    
C124  O28   A    
O56   Zn7   S    
C125  O29   A    
C142  H12   S    
O16   Zn6   S    
C84   O45   A    
C48   C63   A    
C32   C156  A    
C61   C88   S    
C92   C119  T    
H17   O52   S    
C112  C128  S    
C37   N4    A    
O43   Zn4   S    
C100  C109  T    
C57   O44   S    
C64   C91   S    
C76   C85   A    
C122  C130  S    
C73   O12   A    
O33   Zn2   S    
C114  C126  S    
Br7   C15   S    
C68   O48   S    
C52   C77   A    
C138  O22   A    
C129  O37   A    
C49   C62   A    
C51   C64   A    
C133  O13   A    
C32   C138  S    
H10   O46   S    
C30   C152  A    
C29   C146  A    
O20   Zn10  S    
C95   O34   A    
C80   C98   S    
C46   O46   S    
Br3   C10   S    
C74   C87   A    
N15   N16   A    
C128  O5    A    
C27   C142  A    
C113  C139  S    
C23   C36   S    
C17   C160  A    
O45   Zn1   S    
C71   O59   S    
C127  O36   A    
C26   C143  A    
C125  O33   A    
C75   O55   S    
C85   C102  S    
C141  C158  A    
C126  O32   A    
C136  O18   A    
C70   C83   A    
C79   C97   S    
O10   Zn5   S    
C117  O2    A    
C31   C153  A    
Br20  C54   S    
C146  H29   S    
Br22  C56   S    
C14   C155  A    
C53   C76   A    
Br6   C14   S    
C41   N9    A    
O12   Zn5   S    
C50   C61   A    
C21   C38   S    
H9    O44   S    
C72   C86   A    
C147  H30   S    
C47   C68   A    
C31   C151  A    
C38   N3    A    
C106  C110  S    
C55   C78   A    
C76   O54   S    
C83   C101  S    
C28   C134  S    
C33   C140  S    
C29   C135  S    
C143  H23   S    
C78   C87   A    
Br8   C16   S    
C73   C107  S    
C24   O52   S    
N7    N9    A    
C59   C65   A    
H26   O61   S    
C60   C69   A    
O19   Zn9   S    
Br5   C12   S    
O11   Zn6   S    
C141  H1    S    
C40   N14   A    
C26   C141  A    
C19   C40   S    
H15   O50   S    
O27   Zn12  S    
O37   Zn3   S    
Br12  C159  S    
C50   C150  A    
C123  O31   A    
O6    Zn11  S    
C129  O43   A    
O30   Zn12  S    
C126  O30   A    
C139  O8    A    
C132  O9    A    
C136  O20   A    
C84   O23   A    
C22   C37   S    
C58   C71   A    
C41   N11   A    
C94   C121  T    
C13   C81   A    
C145  H28   S    
Br28  C4    S    
C29   C148  A    
Br29  C5    S    
C17   C42   S    
C9    C151  A    
C46   C80   A    
C116  C124  S    
H21   O57   S    
C86   C103  S    
C12   C154  A    
Br21  C55   S    
N5    N11   A    
N2    N14   A    
C54   C75   A    
C130  O38   A    
O5    Zn8   S    
Br15  C49   S    
C3    C144  A    
C39   N13   A    
O36   Zn3   S    
O24   Zn11  S    
C95   O63   A    
C31   C137  S    
N3    N13   A    
C78   O57   S    
C34   N8    A    
C148  H31   S    
O17   Zn5   S    
C124  O35   A    
C35   O47   S    
C53   C66   A    
Br10  C44   S    
C134  O16   A    
Br14  C48   S    
C104  C113  T    
C7    C20   A    
O7    Zn10  S    
C149  H32   S    
C106  O64   A    
C127  O40   A    
C98   C107  T    
C130  O42   A    
Br25  C59   S    
N4    N12   A    
C132  O11   A    
C18   C41   S    
C43   C57   A    
C156  H7    S    
C45   C63   A    
Br17  C51   S    
C54   C67   A    
C93   C120  T    
O62   Zn6   S    
C3    C18   A    
Br16  C50   S    
C4    C19   A    
O34   Zn7   S    
C157  H8    S    
C103  C112  T    
C119  C131  S    
C14   C25   A    
C59   C70   A    
C36   N5    A    
C15   C23   A    
C81   C99   S    
C82   C100  S    
C4    C145  A    
H25   O60   S    
Br9   C43   S    
C34   N6    A    
C35   C81   A    
O41   Zn4   S    
H20   O55   S    
O18   Zn8   S    
C1    O62   A    
C134  O14   A    
Br31  C7    S    
Br32  C8    S    
C128  O3    A    
H19   O54   S    
C9    C22   A    
C120  C127  S    
C77   C83   A    
C8    C21   A    
C137  O19   A    
O3    Zn10  S    
C24   C82   A    
C153  H4    S    
O23   Zn6   S    
C2    O50   S    
C15   C156  A    
C58   C66   A    
C123  O27   A    
C84   C108  S    
