data_mof_unit_39094.cif
_audit_creation_date              2012-10-26T19:15:56-0400
_audit_creation_method            fapswitch 2.2
_symmetry_space_group_name_H-M    P1
_symmetry_Int_Tables_number       1
_space_group_crystal_system       triclinic
_cell_length_a                    7.772205
_cell_length_b                    9.09517
_cell_length_c                    17.139649
_cell_angle_alpha                 89.580072
_cell_angle_beta                  93.003149
_cell_angle_gamma                 89.997943
_cell_volume                      1209.89712231

loop_
_atom_site_label
_atom_site_type_symbol
_atom_type_description
_atom_site_fract_x
_atom_site_fract_y
_atom_site_fract_z
_atom_type_partial_charge
C1    C     C_R   0.499982 0.219965 0.500003 0.557272
C2    C     C_R   0.594274 0.559657 0.137589 -0.076585
C3    C     C_R   0.552494 0.495075 0.901387 0.210356
C4    C     C_R   0.449644 0.494961 0.098937 0.209972
C5    C     C_R   0.689314 0.447820 0.858603 -0.120783
C6    C     C_R   0.314507 0.444174 0.142071 -0.120701
C7    C     C_R   0.676749 0.452682 0.777418 -0.171585
C8    C     C_R   0.325966 0.450693 0.223161 -0.171546
C9    C     C_1   0.499997 0.065333 0.500005 -0.055434
C10   C     C_1   0.500003 0.934620 0.500010 -0.064990
C11   C     C_3   0.763629 0.649324 0.255489 -0.265814
C12   C     C_R   0.500019 0.780022 0.500014 0.533609
C13   C     C_3   0.713897 0.796904 0.289925 -0.407216
C14   C     C_3   0.229712 0.636500 0.743754 -0.265057
C15   C     C_3   0.271472 0.785979 0.708135 -0.405311
C16   C     C_R   0.519302 0.502730 0.651328 0.541592
C17   C     C_R   0.480647 0.506016 0.348696 0.541665
C18   C     C_R   0.527403 0.507112 0.737302 0.019412
C19   C     C_R   0.472432 0.510290 0.262766 0.020081
C20   C     C_R   0.390043 0.562656 0.780576 -0.018567
C21   C     C_R   0.607532 0.569705 0.219101 -0.018479
C22   C     C_R   0.404675 0.554349 0.862176 -0.076484
Cu1   Cu    Cu3+1 0.669080 0.500010 0.500000 0.995239
Cu2   Cu    Cu3+1 0.330920 0.499990 0.500000 0.994654
H1    H     H_    0.695383 0.605875 0.103805 0.132498
H2    H     H_    0.834237 0.579734 0.299762 0.182840
H3    H     H_    0.859099 0.672545 0.210876 0.126251
H4    H     H_    0.325427 0.860526 0.754273 0.146089
H5    H     H_    0.365907 0.775544 0.662262 0.170170
H6    H     H_    0.151849 0.836004 0.681452 0.146461
H7    H     H_    0.162276 0.564459 0.700226 0.182311
H8    H     H_    0.133369 0.655990 0.788305 0.125116
H9    H     H_    0.301904 0.597862 0.895584 0.132424
H10   H     H_    0.805384 0.405173 0.888370 0.123305
H11   H     H_    0.200750 0.397367 0.112666 0.123952
H12   H     H_    0.783775 0.411624 0.745865 0.132379
H13   H     H_    0.220689 0.406537 0.255090 0.132839
H14   H     H_    0.654976 0.869180 0.243312 0.147157
H15   H     H_    0.621058 0.782488 0.336279 0.168247
H16   H     H_    0.830870 0.851786 0.315766 0.146091
N1    N     N_1   0.076820 0.499970 0.500010 -0.089378
N2    N     N_1   0.923180 0.500030 0.499990 -0.089407
N3    N     N_2   0.571400 0.490400 0.983948 -0.253257
N4    N     N_2   0.431523 0.488298 0.016464 -0.253584
O1    O     O_R   0.642760 0.288400 0.500000 -0.492342
O2    O     O_R   0.357240 0.711600 0.500000 -0.499851
O3    O     O_R   0.357190 0.288380 0.500000 -0.492503
O4    O     O_R   0.642810 0.711620 0.500000 -0.499154
O5    O     O_R   0.658410 0.498660 0.613920 -0.506943
O6    O     O_R   0.341590 0.501340 0.386080 -0.506801
O7    O     O_R   0.372840 0.498650 0.613930 -0.510335
O8    O     O_R   0.627160 0.501350 0.386070 -0.509876

loop_
_geom_bond_atom_site_label_1
_geom_bond_atom_site_label_2
_ccdc_geom_bond_type
C17   O6    A    
C2    C4    A    
N3    N4    D    
N1    N2    T    
Cu1   O1    S    
C7    H12   S    
C16   O7    A    
C11   H3    S    
C14   H7    S    
C12   O4    A    
C7    C18   A    
C1    O1    A    
C5    H10   S    
C3    C5    A    
Cu2   O7    S    
C13   H14   S    
Cu2   O2    S    
C6    H11   S    
Cu2   N1    S    
C11   C13   S    
C3    N3    S    
Cu1   O8    S    
Cu1   N2    S    
C10   C12   S    
C2    C21   A    
C17   O8    A    
C12   O2    A    
C17   C19   S    
C20   C22   A    
C15   H5    S    
C2    H1    S    
C18   C20   A    
Cu2   O6    S    
Cu1   O5    S    
C8    C19   A    
C13   H15   S    
C8    H13   S    
Cu1   Cu2   S    
C15   H4    S    
C14   C20   S    
C1    C9    S    
C16   O5    A    
C15   H6    S    
C16   C18   S    
C4    C6    A    
C9    C10   T    
C5    C7    A    
C22   H9    S    
C14   C15   S    
C1    O3    A    
C3    C22   A    
C6    C8    A    
Cu1   O4    S    
C4    N4    S    
C11   H2    S    
C19   C21   A    
Cu2   O3    S    
C11   C21   S    
C14   H8    S    
C13   H16   S    
