data_mof_unit_11001.cif
_audit_creation_date              2012-12-10T17:18:16-0500
_audit_creation_method            fapswitch 2.2
_symmetry_space_group_name_H-M    P1
_symmetry_Int_Tables_number       1
_space_group_crystal_system       triclinic
_cell_length_a                    10.234797
_cell_length_b                    10.722521
_cell_length_c                    14.946376
_cell_angle_alpha                 91.108368
_cell_angle_beta                  81.180277
_cell_angle_gamma                 95.759066
_cell_volume                      1612.66845198

loop_
_atom_site_label
_atom_site_type_symbol
_atom_type_description
_atom_site_fract_x
_atom_site_fract_y
_atom_site_fract_z
_atom_type_partial_charge
C1    C     C_R   0.555879 0.732695 0.490456 0.950630
C2    C     C_R   0.444021 0.267195 0.502873 0.945972
C3    C     C_R   0.319544 0.635736 0.974377 -0.219356
C4    C     C_R   0.681785 0.366194 0.025558 -0.219460
C5    C     C_2   0.586779 0.865079 0.473061 -0.366937
C6    C     C_2   0.412407 0.133944 0.494605 -0.358654
C7    C     C_2   0.487192 0.932070 0.462766 -0.161428
C8    C     C_2   0.509465 0.065635 0.458952 -0.156781
C9    C     C_2   0.929478 0.515854 0.503642 -0.050263
C10   C     C_2   0.071668 0.487446 0.493497 -0.051243
C11   C     C_R   0.500083 0.500133 0.672982 0.897039
C12   C     C_R   0.500024 0.500115 0.327015 0.888719
C13   C     C_R   0.590874 0.433624 0.175146 -0.260700
C14   C     C_R   0.409715 0.567431 0.824823 -0.261039
C15   C     C_R   0.500494 0.500838 0.231190 -0.056979
C16   C     C_R   0.500142 0.500242 0.768785 -0.064144
C17   C     C_R   0.411138 0.569122 0.195903 -0.276364
C18   C     C_R   0.590415 0.433007 0.804029 -0.279324
C19   C     C_R   0.410004 0.569224 0.103502 0.115299
C20   C     C_R   0.591607 0.433024 0.896416 0.117838
C21   C     C_R   0.500800 0.501135 0.046478 0.057436
C22   C     C_R   0.500646 0.500939 0.953442 0.058111
C23   C     C_R   0.591819 0.433303 0.082516 0.115908
C24   C     C_R   0.409346 0.568441 0.917419 0.116094
C25   C     C_R   0.319947 0.636208 0.067313 -0.226563
C26   C     C_R   0.681718 0.366102 0.932602 -0.225460
H1    H     H_    0.659369 0.380686 0.203740 0.156675
H2    H     H_    0.340749 0.619809 0.796248 0.157756
H3    H     H_    0.343630 0.623038 0.240266 0.149579
H4    H     H_    0.658394 0.379519 0.759668 0.151088
H5    H     H_    0.249962 0.688557 0.110820 0.143607
H6    H     H_    0.751799 0.313851 0.889096 0.143931
H7    H     H_    0.249273 0.687771 0.947062 0.146500
H8    H     H_    0.751898 0.313980 0.052892 0.146248
H9    H     H_    0.609687 0.107485 0.434729 0.185057
H10   H     H_    0.385306 0.889961 0.465977 0.186903
H11   H     H_    0.312855 0.091362 0.519417 0.145145
H12   H     H_    0.688122 0.908059 0.469812 0.150959
H13   H     H_    0.126703 0.622378 0.579778 0.165778
H14   H     H_    0.871590 0.373235 0.424252 0.164609
N1    N     N_2   0.842700 0.448880 0.462930 -0.221656
N2    N     N_2   0.157300 0.551120 0.537070 -0.222480
O1    O     O_R   0.431060 0.692470 0.507460 -0.619809
O2    O     O_R   0.568940 0.307530 0.492540 -0.619611
O3    O     O_R   0.651120 0.659650 0.483670 -0.599775
O4    O     O_R   0.348880 0.340350 0.516330 -0.602467
O5    O     O_R   0.389960 0.516440 0.644050 -0.619251
O6    O     O_R   0.610040 0.483560 0.355950 -0.623549
O7    O     O_R   0.610030 0.483620 0.620260 -0.615688
O8    O     O_R   0.389970 0.516380 0.379740 -0.616935
Zn1   Zn    Zn3+2 0.353060 0.521920 0.515880 0.937874
Zn2   Zn    Zn3+2 0.646940 0.478080 0.484120 0.937809
C27   C     C_R   0.112963 0.384568 0.431671 0.228082
C28   C     C_R   0.099644 0.261086 0.463933 -0.149052
C29   C     C_R   0.125007 0.161685 0.403845 -0.175984
C30   C     C_R   0.161600 0.184733 0.311223 -0.115796
C31   C     C_R   0.169574 0.306787 0.278270 -0.155900
C32   C     C_R   0.142533 0.406034 0.338080 -0.135264
H15   H     H_    0.069469 0.242016 0.535417 0.120660
H16   H     H_    0.115816 0.066744 0.429042 0.124702
H17   H     H_    0.181697 0.107796 0.264860 0.129027
H18   H     H_    0.195062 0.324325 0.206322 0.144457
H19   H     H_    0.144158 0.499568 0.311700 0.119564
C33   C     C_R   0.890013 0.624208 0.560359 0.225985
C34   C     C_R   0.854297 0.610229 0.654344 -0.131819
C35   C     C_R   0.827569 0.714475 0.709234 -0.158587
C36   C     C_R   0.841800 0.833963 0.671055 -0.116859
C37   C     C_R   0.884066 0.849393 0.578126 -0.180620
C38   C     C_R   0.909086 0.744999 0.522897 -0.148639
H20   H     H_    0.847823 0.518698 0.684907 0.124058
H21   H     H_    0.797470 0.702761 0.781469 0.143193
H22   H     H_    0.821976 0.914763 0.713645 0.129000
H23   H     H_    0.897784 0.942264 0.548927 0.125163
H24   H     H_    0.943220 0.758082 0.451134 0.117983

loop_
_geom_bond_atom_site_label_1
_geom_bond_atom_site_label_2
_ccdc_geom_bond_type
C25   H5    S    
C12   O8    A    
C27   C32   A    
C26   H6    S    
C18   H4    S    
C14   C16   A    
C31   H18   S    
C9    N1    D    
C10   N2    D    
C9    C33   S    
C17   H3    S    
C11   C16   S    
C28   C29   A    
N1    Zn2   S    
C4    C26   A    
C35   H21   S    
C12   C15   S    
C12   O6    A    
N2    Zn1   S    
C29   C30   A    
O7    Zn2   S    
O1    Zn1   S    
C33   C34   A    
O2    Zn2   S    
C13   C15   A    
C35   C36   A    
C31   C32   A    
C6    H11   S    
C38   H24   S    
O8    Zn1   S    
C33   C38   A    
C2    O4    A    
C1    O3    A    
C3    C24   A    
C2    C6    S    
C20   C26   A    
C29   H16   S    
C1    C5    S    
C15   C17   A    
C9    C10   S    
H14   N1    S    
C19   C21   A    
C20   C22   A    
C5    H12   S    
H13   N2    S    
C22   C24   A    
C28   H15   S    
C21   C23   A    
C19   C25   A    
C4    H8    S    
C7    C8    S    
C30   C31   A    
C3    H7    S    
C17   C19   A    
C36   C37   A    
C3    C25   A    
C36   H22   S    
O6    Zn2   S    
C11   O7    A    
C13   C23   A    
C18   C20   A    
C16   C18   A    
C34   C35   A    
C7    H10   S    
C14   C24   A    
C32   H19   S    
C5    C7    D    
C10   C27   S    
C30   H17   S    
C13   H1    S    
C6    C8    D    
O3    Zn2   S    
C14   H2    S    
C37   H23   S    
C21   C22   A    
C11   O5    A    
O4    Zn1   S    
C1    O1    A    
C4    C23   A    
O5    Zn1   S    
C34   H20   S    
C27   C28   A    
C2    O2    A    
C37   C38   A    
C8    H9    S    
