data_mof_unit_57301.cif
_audit_creation_date              2012-10-26T20:17:37-0400
_audit_creation_method            fapswitch 2.2
_symmetry_space_group_name_H-M    P1
_symmetry_Int_Tables_number       1
_space_group_crystal_system       triclinic
_cell_length_a                    27.762953
_cell_length_b                    8.671162
_cell_length_c                    7.441998
_cell_angle_alpha                 103.016421
_cell_angle_beta                  94.221462
_cell_angle_gamma                 92.593216
_cell_volume                      1737.26847593

loop_
_atom_site_label
_atom_site_type_symbol
_atom_type_description
_atom_site_fract_x
_atom_site_fract_y
_atom_site_fract_z
_atom_type_partial_charge
Br1   Br    Br    0.958210 0.026132 0.161740 -0.470389
Br2   Br    Br    0.038935 0.970608 0.781711 -0.473660
C1    C     C_R   0.498527 0.199645 0.453156 0.553959
C2    C     C_R   0.868800 0.354068 0.414485 0.012787
C3    C     C_R   0.354689 0.498534 0.507807 0.003170
C4    C     C_R   0.645435 0.500710 0.492004 0.001332
C5    C     C_R   0.970792 0.350124 0.412555 0.037578
C6    C     C_R   0.028102 0.644397 0.534642 0.035883
C7    C     C_R   0.976827 0.643236 0.509677 0.044012
C8    C     C_R   0.022122 0.351069 0.435180 0.044020
C9    C     C_R   0.948610 0.496660 0.461998 0.014737
C10   C     C_R   0.050402 0.497754 0.486710 0.013212
C11   C     C_R   0.940045 0.210471 0.335721 0.126457
C12   C     C_R   0.501465 0.800354 0.546845 0.554063
C13   C     C_R   0.058517 0.784145 0.614970 0.126177
C14   C     C_R   0.890382 0.212151 0.350982 -0.067473
C15   C     C_R   0.108471 0.781966 0.609453 -0.067413
C16   C     C_R   0.407520 0.499471 0.502377 0.556933
C17   C     C_R   0.592527 0.500516 0.497625 0.556810
C18   C     C_R   0.046316 0.210095 0.424950 -0.055632
C19   C     C_R   0.952534 0.783588 0.516300 -0.055013
C20   C     C_2   0.497826 0.031664 0.426797 -0.147721
C21   C     C_2   0.502155 0.968334 0.573204 -0.147810
C22   C     C_R   0.175120 0.354369 0.468052 0.457388
C23   C     C_R   0.101707 0.496845 0.498250 -0.030079
C24   C     C_R   0.824210 0.639852 0.497403 0.452172
C25   C     C_R   0.180967 0.637007 0.554944 0.441007
C26   C     C_R   0.818570 0.357021 0.424173 0.441635
C27   C     C_R   0.275609 0.525547 0.362534 -0.079568
C28   C     C_R   0.715843 0.466320 0.316817 -0.081392
C29   C     C_R   0.325569 0.526094 0.357672 -0.146561
C30   C     C_R   0.665885 0.467623 0.321790 -0.148511
C31   C     C_R   0.333034 0.469672 0.662734 -0.168549
C32   C     C_R   0.675857 0.533152 0.657263 -0.167440
C33   C     C_R   0.282658 0.467749 0.668897 0.063369
C34   C     C_R   0.897407 0.497491 0.457526 -0.024290
C35   C     C_R   0.726244 0.531942 0.654220 0.057791
C36   C     C_R   0.253806 0.495876 0.515962 0.252724
C37   C     C_R   0.746264 0.498745 0.481147 0.254652
C38   C     C_2   0.262180 0.436524 0.836891 0.268850
C39   C     C_2   0.756101 0.564542 0.834158 0.273026
C40   C     C_R   0.124462 0.352378 0.462217 0.041573
C41   C     C_R   0.874651 0.641886 0.492716 0.046669
C42   C     C_R   0.096384 0.209863 0.430775 -0.065059
C43   C     C_R   0.902500 0.783972 0.514725 -0.062848
C44   C     C_R   0.130409 0.640084 0.550251 0.007994
Cu1   Cu    Cu3+1 0.505380 0.517380 0.684380 0.964667
Cu2   Cu    Cu3+1 0.494620 0.482620 0.315620 0.963699
H1    H     H_    0.355439 0.447865 0.778941 0.110431
H2    H     H_    0.253504 0.548464 0.246571 0.163386
H3    H     H_    0.868128 0.103000 0.298715 0.196631
H4    H     H_    0.130495 0.890953 0.666008 0.201934
H5    H     H_    0.027336 0.098702 0.422154 0.179406
H6    H     H_    0.971465 0.894055 0.514417 0.179321
H7    H     H_    0.493755 0.959814 0.285825 0.136188
H8    H     H_    0.506224 0.040184 0.714177 0.135871
H9    H     H_    0.285612 0.400273 0.941099 0.086018
H10   H     H_    0.739401 0.609551 0.961345 0.094156
H11   H     H_    0.660332 0.558606 0.789436 0.115470
H12   H     H_    0.462095 0.377758 0.948469 0.238297
H13   H     H_    0.537900 0.622255 0.051531 0.239447
H14   H     H_    0.113022 0.097556 0.416454 0.177086
H15   H     H_    0.885733 0.895931 0.527567 0.177948
H16   H     H_    0.643317 0.441905 0.192260 0.136004
H17   H     H_    0.341434 0.549683 0.237130 0.129820
H18   H     H_    0.731159 0.439787 0.184529 0.132859
N1    N     N_R   0.202143 0.495539 0.513317 -0.368373
N2    N     N_R   0.797552 0.498640 0.469181 -0.369337
N3    N     N_2   0.486510 0.456430 0.038510 -0.258230
N4    N     N_2   0.513490 0.543570 0.961490 -0.258156
O1    O     O_R   0.503500 0.286120 0.619780 -0.505302
O2    O     O_2   0.801976 0.777411 0.531159 -0.458468
O3    O     O_2   0.790936 0.219751 0.389574 -0.460734
O4    O     O_2   0.208833 0.774021 0.602260 -0.458758
O5    O     O_2   0.219606 0.452050 0.863042 -0.472323
O6    O     O_2   0.799024 0.539678 0.844207 -0.463122
O7    O     O_R   0.496500 0.713880 0.380220 -0.505027
O8    O     O_R   0.494410 0.256780 0.308360 -0.495028
O9    O     O_R   0.505590 0.743220 0.691640 -0.494931
O10   O     O_R   0.434810 0.514700 0.655690 -0.505162
O11   O     O_R   0.565190 0.485300 0.344310 -0.507818
O12   O     O_R   0.425720 0.485350 0.344280 -0.502239
O13   O     O_R   0.574280 0.514650 0.655720 -0.501205
O14   O     O_2   0.197251 0.216768 0.429597 -0.455004

loop_
_geom_bond_atom_site_label_1
_geom_bond_atom_site_label_2
_ccdc_geom_bond_type
H13   N4    S    
Cu2   O7    S    
C5    C8    A    
C4    C30   A    
C2    C34   A    
C32   C35   A    
C22   C40   A    
C37   N2    S    
C14   H3    S    
Cu1   O9    S    
Cu2   N3    S    
C21   H8    S    
C5    C9    A    
C4    C17   S    
C9    C34   A    
C26   N2    A    
C39   H10   S    
C19   H6    S    
C31   C33   A    
C31   H1    S    
C24   O2    S    
Cu2   O11   S    
C13   C15   A    
C12   O7    A    
Cu2   O8    S    
C22   N1    A    
C2    C26   A    
C8    C18   A    
C6    C7    A    
C3    C31   A    
C27   C36   A    
Cu1   O13   S    
C25   O4    S    
C27   C29   A    
C40   C42   A    
Cu1   O10   S    
C17   O13   A    
C26   O3    S    
C15   H4    S    
C18   C42   A    
C24   C41   A    
C19   C43   A    
C27   H2    S    
C33   C36   A    
C15   C44   A    
C30   H16   S    
C3    C16   S    
C42   H14   S    
C43   H15   S    
C4    C32   A    
C12   C21   S    
C2    C14   A    
C1    O1    A    
Cu1   N4    S    
C7    C9    A    
Cu1   Cu2   S    
C6    C10   A    
C12   O9    A    
Br2   C13   S    
C41   C43   A    
Cu1   O1    S    
C28   H18   S    
C8    C10   A    
C25   C44   A    
C6    C13   A    
C32   H11   S    
Br1   C11   S    
C29   H17   S    
C38   H9    S    
C18   H5    S    
C34   C41   A    
C23   C40   A    
C20   H7    S    
C38   O5    D    
C10   C23   A    
C24   N2    A    
C33   C38   S    
C22   O14   S    
C35   C37   A    
C39   O6    D    
C28   C30   A    
C7    C19   A    
H12   N3    S    
C16   O12   A    
Cu2   O12   S    
C28   C37   A    
C35   C39   S    
N3    N4    D    
C25   N1    A    
C5    C11   A    
C36   N1    S    
C16   O10   A    
C11   C14   A    
C20   C21   D    
C1    C20   S    
C17   O11   A    
C1    O8    A    
C23   C44   A    
C3    C29   A    
