data_mof_unit_30802.cif
_audit_creation_date              2012-12-10T17:27:08-0500
_audit_creation_method            fapswitch 2.2
_symmetry_space_group_name_H-M    P1
_symmetry_Int_Tables_number       1
_space_group_crystal_system       triclinic
_cell_length_a                    18.297137
_cell_length_b                    18.378607
_cell_length_c                    11.972226
_cell_angle_alpha                 90.000034
_cell_angle_beta                  88.44214
_cell_angle_gamma                 90.0
_cell_volume                      4024.48287797

loop_
_atom_site_label
_atom_site_type_symbol
_atom_type_description
_atom_site_fract_x
_atom_site_fract_y
_atom_site_fract_z
_atom_type_partial_charge
C1    C     C_R   0.404423 0.104386 0.518797 0.996834
C2    C     C_R   0.534975 0.999965 0.023035 0.060314
C3    C     C_R   0.965025 0.499964 0.976965 0.060311
C4    C     C_R   0.034975 0.499964 0.023035 0.060310
C5    C     C_R   0.586769 0.005124 0.834621 0.204179
C6    C     C_R   0.413231 0.005123 0.165379 0.204164
C7    C     C_R   0.086769 0.505124 0.834621 0.204173
C8    C     C_R   0.913231 0.505124 0.165379 0.204177
C9    C     C_R   0.596212 0.003187 0.950541 -0.255033
C10   C     C_R   0.403788 0.003185 0.049459 -0.255027
C11   C     C_R   0.096212 0.503186 0.950541 -0.255031
C12   C     C_R   0.602901 0.902550 0.479259 0.945507
C13   C     C_R   0.903788 0.503186 0.049459 -0.255032
C14   C     C_R   0.458465 0.998593 0.859363 -0.056724
C15   C     C_R   0.541535 0.998593 0.140637 -0.056742
C16   C     C_R   0.958465 0.498593 0.859363 -0.056729
C17   C     C_R   0.041535 0.498593 0.140637 -0.056726
C18   C     C_R   0.642288 0.167668 0.473686 -0.159616
C19   C     C_R   0.334924 0.854011 0.533639 -0.180645
C20   C     C_R   0.357713 0.167669 0.526314 -0.159614
C21   C     C_R   0.665076 0.854011 0.466361 -0.180645
C22   C     C_R   0.142288 0.667668 0.473686 -0.159614
C23   C     C_R   0.595577 0.104386 0.481203 0.996835
C24   C     C_R   0.834924 0.354011 0.533639 -0.180645
C25   C     C_R   0.857712 0.667668 0.526314 -0.159615
C26   C     C_R   0.165076 0.354011 0.466361 -0.180645
C27   C     C_R   0.264713 0.771983 0.651280 -0.087461
C28   C     C_R   0.713775 0.248584 0.356916 -0.075671
C29   C     C_R   0.735287 0.771983 0.348720 -0.087460
C30   C     C_R   0.286227 0.248586 0.643083 -0.075675
C31   C     C_R   0.764712 0.271984 0.651280 -0.087460
C32   C     C_R   0.213774 0.748584 0.356916 -0.075675
C33   C     C_R   0.235286 0.271982 0.348720 -0.087461
C34   C     C_R   0.397099 0.902550 0.520741 0.945508
C35   C     C_R   0.786226 0.748585 0.643084 -0.075674
C36   C     C_R   0.322861 0.819284 0.636820 -0.261657
C37   C     C_R   0.667534 0.189755 0.367531 -0.234078
C38   C     C_R   0.677139 0.819284 0.363180 -0.261657
C39   C     C_R   0.332468 0.189756 0.632468 -0.234096
C40   C     C_R   0.822861 0.319284 0.636820 -0.261657
C41   C     C_R   0.167533 0.689755 0.367532 -0.234093
C42   C     C_R   0.177138 0.319283 0.363181 -0.261658
C43   C     C_R   0.832467 0.689755 0.632469 -0.234091
C44   C     C_R   0.287680 0.840549 0.444786 0.414898
C45   C     C_R   0.904423 0.604386 0.518797 0.996835
C46   C     C_R   0.664099 0.205474 0.570366 0.395409
C47   C     C_R   0.712319 0.840550 0.555214 0.414898
C48   C     C_R   0.335901 0.205474 0.429633 0.395410
C49   C     C_R   0.787681 0.340549 0.444786 0.414899
C50   C     C_R   0.164099 0.705474 0.570366 0.395409
C51   C     C_R   0.212320 0.340550 0.555213 0.414899
C52   C     C_R   0.835901 0.705474 0.429634 0.395411
C53   C     C_R   0.241864 0.780560 0.452670 -0.012472
C54   C     C_R   0.723464 0.252381 0.559180 -0.013741
C55   C     C_R   0.758135 0.780560 0.547330 -0.012474
C56   C     C_R   0.102901 0.402550 0.479259 0.945507
C57   C     C_R   0.276536 0.252381 0.440820 -0.013741
C58   C     C_R   0.741865 0.280560 0.452670 -0.012476
C59   C     C_R   0.223464 0.752381 0.559180 -0.013741
C60   C     C_R   0.258136 0.280561 0.547329 -0.012472
C61   C     C_R   0.776536 0.752381 0.440820 -0.013741
C62   C     C_R   0.095577 0.604386 0.481203 0.996836
C63   C     C_R   0.897098 0.402550 0.520741 0.945506
C64   C     C_R   0.465025 0.999964 0.976965 0.060309
H1    H     H_    0.366295 0.011961 0.219902 0.210722
H2    H     H_    0.357282 0.829783 0.707246 0.194711
H3    H     H_    0.349527 0.162594 0.707735 0.186015
H4    H     H_    0.642718 0.829784 0.292754 0.194712
H5    H     H_    0.150475 0.662593 0.292265 0.186015
H6    H     H_    0.857282 0.329784 0.707246 0.194711
H7    H     H_    0.849525 0.662593 0.707735 0.186015
H8    H     H_    0.142716 0.329782 0.292755 0.194711
H9    H     H_    0.755272 0.247525 0.732646 0.208695
H10   H     H_    0.230861 0.765913 0.273814 0.210361
H11   H     H_    0.244725 0.247522 0.267355 0.208696
H12   H     H_    0.633705 0.011963 0.780098 0.210716
H13   H     H_    0.769138 0.765913 0.726186 0.210360
H14   H     H_    0.255273 0.747524 0.732646 0.208696
H15   H     H_    0.730862 0.265912 0.273813 0.210360
H16   H     H_    0.744727 0.747524 0.267354 0.208696
H17   H     H_    0.269140 0.265915 0.726186 0.210361
H18   H     H_    0.650840 0.005837 0.982987 0.171464
H19   H     H_    0.349160 0.005835 0.017013 0.171465
H20   H     H_    0.150839 0.505836 0.982987 0.171464
H21   H     H_    0.849160 0.505836 0.017013 0.171464
H22   H     H_    0.498302 0.187162 0.748489 0.383190
H23   H     H_    0.866295 0.511962 0.219902 0.210717
H24   H     H_    0.256890 0.022863 0.342862 0.380612
H25   H     H_    0.501688 0.187123 0.251506 0.383184
H26   H     H_    0.743110 0.022863 0.657137 0.380611
H27   H     H_    0.998306 0.687149 0.748492 0.383188
H28   H     H_    0.756890 0.522863 0.342861 0.380611
H29   H     H_    0.001696 0.687155 0.251509 0.383188
H30   H     H_    0.243110 0.522865 0.657136 0.380611
H31   H     H_    0.133705 0.511962 0.780098 0.210719
H32   H     H_    0.595033 0.997510 0.177091 0.139704
H33   H     H_    0.404967 0.997508 0.822909 0.139701
H34   H     H_    0.095033 0.497509 0.177091 0.139701
H35   H     H_    0.904967 0.497509 0.822909 0.139702
H36   H     H_    0.650476 0.162592 0.292265 0.186014
N1    N     N_R   0.480750 0.000000 0.209750 -0.123489
N2    N     N_R   0.519250 0.000000 0.790250 -0.123479
N3    N     N_R   0.980750 0.500000 0.209750 -0.123481
N4    N     N_R   0.019250 0.500000 0.790250 -0.123482
O1    O     O_R   0.418020 0.076820 0.422210 -0.554349
O2    O     O_R   0.569630 0.923170 0.391410 -0.648480
O3    O     O_R   0.569630 0.076830 0.391410 -0.637723
O4    O     O_R   0.430370 0.923170 0.608590 -0.648483
O5    O     O_R   0.930370 0.576830 0.608590 -0.637709
O6    O     O_R   0.069630 0.423170 0.391410 -0.648483
O7    O     O_R   0.069630 0.576830 0.391410 -0.637707
O8    O     O_R   0.930370 0.423170 0.608590 -0.648482
O9    O     O_2   0.638566 0.153234 0.776997 -0.359109
O10   O     O_2   0.616379 0.282929 0.749303 -0.251736
O11   O     O_3   0.521558 0.193332 0.673399 -0.523924
O12   O     O_R   0.581980 0.923180 0.577790 -0.559359
O13   O     O_2   0.318022 0.887615 0.238391 -0.339875
O14   O     O_2   0.191911 0.902411 0.307271 -0.270774
O15   O     O_3   0.288273 0.990014 0.386334 -0.583292
O16   O     O_2   0.361430 0.153230 0.223005 -0.359131
O17   O     O_2   0.383618 0.282926 0.250691 -0.251713
O18   O     O_3   0.478440 0.193331 0.326595 -0.523910
O19   O     O_2   0.681978 0.887615 0.761609 -0.339875
O20   O     O_2   0.808088 0.902411 0.692729 -0.270773
O21   O     O_3   0.711727 0.990014 0.613666 -0.583295
O22   O     O_2   0.138568 0.653232 0.776996 -0.359116
O23   O     O_R   0.581980 0.076820 0.577790 -0.554334
O24   O     O_2   0.116380 0.782928 0.749306 -0.251730
O25   O     O_3   0.021559 0.693331 0.673402 -0.523920
O26   O     O_2   0.818023 0.387614 0.238391 -0.339875
O27   O     O_2   0.691912 0.402410 0.307268 -0.270770
O28   O     O_3   0.788273 0.490014 0.386333 -0.583294
O29   O     O_2   0.861433 0.653232 0.223004 -0.359113
O30   O     O_2   0.883620 0.782928 0.250695 -0.251734
O31   O     O_3   0.978442 0.693332 0.326600 -0.523920
O32   O     O_2   0.181980 0.387616 0.761609 -0.339876
O33   O     O_2   0.308090 0.402412 0.692726 -0.270773
O34   O     O_R   0.418020 0.923180 0.422210 -0.559356
O35   O     O_3   0.211727 0.490015 0.613664 -0.583294
O36   O     O_R   0.918020 0.576820 0.422210 -0.554338
O37   O     O_R   0.081980 0.423180 0.577790 -0.559359
O38   O     O_R   0.081980 0.576820 0.577790 -0.554340
O39   O     O_R   0.918020 0.423180 0.422210 -0.559358
O40   O     O_R   0.430370 0.076830 0.608590 -0.637701
S1    S     S_3+6 0.610320 0.208817 0.697134 0.041085
S2    S     S_3+6 0.270833 0.905688 0.339110 0.009187
S3    S     S_3+6 0.389678 0.208815 0.302864 0.041088
S4    S     S_3+6 0.729167 0.905688 0.660890 0.009187
S5    S     S_3+6 0.110321 0.708816 0.697135 0.041085
S6    S     S_3+6 0.770833 0.405687 0.339109 0.009187
S7    S     S_3+6 0.889680 0.708817 0.302866 0.041084
S8    S     S_3+6 0.229168 0.405689 0.660888 0.009186
Zn1   Zn    Zn3+2 0.491750 0.000000 0.375560 1.036312
Zn2   Zn    Zn3+2 0.508250 0.000000 0.624440 1.036329
Zn3   Zn    Zn3+2 0.991750 0.500000 0.375560 1.036326
Zn4   Zn    Zn3+2 0.008250 0.500000 0.624440 1.036323

loop_
_geom_bond_atom_site_label_1
_geom_bond_atom_site_label_2
_ccdc_geom_bond_type
O1    Zn1   S    
C8    C13   A    
O28   S6    S    
O35   S8    S    
O29   S7    D    
C27   H14   S    
C25   C43   A    
C53   C59   A    
C48   C57   A    
O15   S2    S    
C7    C11   A    
O20   S4    D    
C40   H6    S    
C49   S6    S    
C50   C59   A    
C23   O23   A    
H28   O28   S    
C18   C37   A    
C52   C61   A    
C32   H10   S    
O22   S5    D    
C36   H2    S    
C14   N2    A    
C46   S1    S    
H25   O18   S    
C48   S3    S    
C10   H19   S    
C31   C40   A    
C6    N1    A    
O9    S1    D    
C63   O8    A    
C28   H15   S    
O5    Zn4   S    
O6    Zn3   S    
C5    N2    A    
C44   C53   A    
C16   N4    A    
C6    H1    S    
C62   O7    A    
C30   C60   A    
C29   C38   A    
O26   S6    D    
C44   S2    S    
C32   C41   A    
O17   S3    D    
O33   S8    D    
C35   C43   A    
C17   H34   S    
N2    Zn2   S    
O12   Zn2   S    
C3    C13   A    
C9    H18   S    
C22   C50   A    
C23   O3    A    
H30   O35   S    
C62   O38   A    
C18   C46   A    
O23   Zn2   S    
C56   O6    A    
O32   S8    D    
C2    C64   A    
C29   C61   A    
C21   C38   A    
C35   C55   A    
C18   C23   S    
O14   S2    D    
C43   H7    S    
C15   H32   S    
C20   C39   A    
C57   C60   A    
C12   C21   S    
C34   O34   A    
C45   O36   A    
N4    Zn4   S    
C49   C58   A    
H22   O11   S    
C4    C11   A    
C5    C9    A    
C22   C62   S    
O39   Zn3   S    
N1    Zn1   S    
O2    Zn1   S    
C14   C64   A    
C46   C54   A    
C42   H8    S    
C16   H35   S    
O3    Zn1   S    
O18   S3    S    
C15   N1    A    
H24   O15   S    
C2    C15   A    
C20   C48   A    
C4    C17   A    
O34   Zn1   S    
N3    Zn3   S    
C38   H4    S    
C51   S8    S    
C24   C63   S    
C7    N4    A    
C27   C36   A    
C33   H11   S    
C56   O37   A    
C3    C4    A    
C25   C45   S    
C32   C53   A    
C19   C44   A    
C26   C42   A    
C14   H33   S    
C47   C55   A    
C54   C58   A    
C24   C49   A    
C33   C42   A    
C47   S4    S    
C1    C20   S    
C33   C57   A    
C39   H3    S    
C10   C64   A    
O10   S1    D    
H29   O31   S    
C19   C34   S    
C26   C56   S    
C6    C10   A    
O37   Zn4   S    
H27   O25   S    
C28   C58   A    
C11   H20   S    
C7    H31   S    
O11   S1    S    
O21   S4    S    
C19   C36   A    
C8    H23   S    
C34   O4    A    
C5    H12   S    
C17   N3    A    
C25   C52   A    
C1    O40   A    
C27   C59   A    
C26   C51   A    
C12   O2    A    
C2    C9    A    
C50   S5    S    
C29   H16   S    
C28   C37   A    
C30   H17   S    
C52   S7    S    
O31   S7    S    
O30   S7    D    
C55   C61   A    
C24   C40   A    
H26   O21   S    
C35   H13   S    
C30   C39   A    
C45   O5    A    
C31   C54   A    
O40   Zn2   S    
C8    N3    A    
C21   C47   A    
C31   H9    S    
O36   Zn3   S    
C22   C41   A    
O24   S5    D    
O4    Zn2   S    
O19   S4    D    
O16   S3    D    
O8    Zn4   S    
C13   H21   S    
C63   O39   A    
O13   S2    D    
O27   S6    D    
C51   C60   A    
O38   Zn4   S    
O25   S5    S    
C41   H5    S    
O7    Zn3   S    
C37   H36   S    
C3    C16   A    
C1    O1    A    
C12   O12   A    
