data_mof_unit_52210.cif
_audit_creation_date              2013-03-05T15:48:30-0500
_audit_creation_method            fapswitch 2.2
_symmetry_space_group_name_H-M    P1
_symmetry_Int_Tables_number       1
_space_group_crystal_system       triclinic
_cell_length_a                    20.172706
_cell_length_b                    7.100968
_cell_length_c                    13.446492
_cell_angle_alpha                 90.005904
_cell_angle_beta                  103.566863
_cell_angle_gamma                 89.992912
_cell_volume                      1872.40691278

loop_
_atom_site_label
_atom_site_type_symbol
_atom_site_description
_atom_site_fract_x
_atom_site_fract_y
_atom_site_fract_z
_atom_type_partial_charge
O1    O     O_R   0.449830 0.506740 0.599960 -0.599746
O2    O     O_R   0.550170 0.006740 0.400040 -0.599801
O3    O     O_R   0.588980 0.179860 0.596720 -0.595904
O4    O     O_R   0.411020 0.679860 0.403280 -0.595654
C1    C     C_R   0.616104 0.344360 0.619957 0.948452
C2    C     C_R   0.383889 0.844366 0.380062 0.949215
O5    O     O_R   0.452740 0.177340 0.612040 -0.572221
O6    O     O_R   0.547260 0.677340 0.387960 -0.572093
O7    O     O_R   0.412960 0.002070 0.415460 -0.606549
O8    O     O_R   0.587040 0.502070 0.584540 -0.606412
C3    C     C_R   0.437009 0.345775 0.639416 1.032318
C4    C     C_R   0.562965 0.845749 0.360541 1.033351
O9    O     O_3   0.487110 0.337570 0.435490 -0.282735
O10   O     O_3   0.512890 0.837570 0.564510 -0.282700
V1    V     V_3+5 0.502390 0.064650 0.511970 1.198799
V2    V     V_3+5 0.497610 0.564650 0.488030 1.198975
C5    C     C_R   0.608293 0.877239 0.103576 -0.197117
C6    C     C_R   0.391654 0.380119 0.896197 -0.197623
H1    H     H_    0.691951 0.890654 0.978552 0.140896
H2    H     H_    0.308012 0.394233 0.021229 0.140751
H3    H     H_    0.583400 0.885935 0.022949 0.190219
H4    H     H_    0.416590 0.390210 0.976758 0.189083
C7    C     C_R   0.601268 0.853437 0.280414 -0.270254
C8    C     C_R   0.398662 0.353654 0.719466 -0.269873
C9    C     C_R   0.930584 0.842618 0.318559 -0.149856
C10   C     C_R   0.069381 0.341266 0.681476 -0.149643
C11   C     C_R   0.894763 0.833174 0.394914 -0.057348
C12   C     C_R   0.105194 0.331267 0.605126 -0.057636
C13   C     C_R   0.823738 0.839242 0.370275 -0.176169
C14   C     C_R   0.176212 0.337826 0.629717 -0.176163
C15   C     C_R   0.786332 0.854496 0.267219 0.092005
C16   C     C_R   0.213622 0.354175 0.732719 0.092010
C17   C     C_R   0.823554 0.863677 0.189248 0.109210
C18   C     C_R   0.176408 0.364059 0.810679 0.109057
C19   C     C_R   0.713405 0.859664 0.238835 0.109111
C20   C     C_R   0.286543 0.359865 0.761059 0.108986
C21   C     C_R   0.679720 0.873272 0.133760 0.116803
C22   C     C_R   0.320232 0.375111 0.866073 0.117242
C23   C     C_R   0.717375 0.881216 0.058950 -0.173113
C24   C     C_R   0.282586 0.383675 0.940875 -0.173053
C25   C     C_R   0.788060 0.876255 0.086061 -0.250874
C26   C     C_R   0.211907 0.377881 0.913814 -0.250704
C27   C     C_R   0.672581 0.851318 0.310987 -0.290870
C28   C     C_R   0.327358 0.350525 0.688921 -0.290795
C29   C     C_R   0.568377 0.865147 0.175681 0.364864
C30   C     C_R   0.431535 0.367361 0.824094 0.366133
C31   C     C_R   0.895809 0.858869 0.216093 -0.175164
C32   C     C_R   0.104160 0.358673 0.783881 -0.175027
H5    H     H_    0.694469 0.842803 0.392057 0.122634
H6    H     H_    0.305477 0.340562 0.607900 0.122680
H7    H     H_    0.985751 0.836418 0.339435 0.156735
H8    H     H_    0.014220 0.334598 0.660649 0.156446
H9    H     H_    0.799920 0.830701 0.433884 0.143244
H10   H     H_    0.200023 0.328882 0.566114 0.143376
H11   H     H_    0.922285 0.820650 0.474103 0.166265
H12   H     H_    0.077670 0.317907 0.525981 0.166643
H13   H     H_    0.814737 0.881483 0.025042 0.118301
H14   H     H_    0.185232 0.383547 0.974825 0.118270
C33   C     C_3   0.221145 0.663218 0.184166 -0.432918
C34   C     C_3   0.778837 0.163251 0.815928 -0.432768
H15   H     H_    0.189273 0.551733 0.207644 0.219590
H16   H     H_    0.810697 0.051684 0.792466 0.219395
H17   H     H_    0.224480 0.630727 0.104579 0.171952
H18   H     H_    0.775509 0.130845 0.895531 0.172100
C35   C     C_3   0.293396 0.657304 0.255505 -0.320564
C36   C     C_3   0.706581 0.157347 0.744592 -0.320764
H19   H     H_    0.330970 0.619330 0.210043 0.194719
H20   H     H_    0.669002 0.119526 0.790068 0.194642
H21   H     H_    0.295002 0.544291 0.313415 0.175480
H22   H     H_    0.704963 0.044238 0.686723 0.175475
H23   H     H_    0.157125 0.779316 0.326548 0.059867
H24   H     H_    0.842855 0.278997 0.673506 0.059829
H25   H     H_    0.262137 0.789163 0.433392 0.136448
H26   H     H_    0.737851 0.288899 0.566651 0.136353
C37   C     C_3   0.185782 0.897875 0.301836 0.294737
C38   C     C_3   0.814214 0.397661 0.698176 0.294518
C39   C     C_3   0.235570 0.004847 0.152596 -0.330637
C40   C     C_3   0.764430 0.504965 0.847376 -0.330951
C41   C     C_3   0.187693 0.859711 0.187690 -0.049343
C42   C     C_3   0.812299 0.359700 0.812333 -0.049184
H27   H     H_    0.214134 0.149413 0.148437 0.193938
H28   H     H_    0.785872 0.649506 0.851478 0.193908
H29   H     H_    0.239924 0.969840 0.073676 0.154162
H30   H     H_    0.760077 0.470101 0.926310 0.154224
C43   C     C_3   0.312837 0.850481 0.309713 0.047792
C44   C     C_3   0.687155 0.350467 0.690313 0.047737
C45   C     C_3   0.259284 0.896527 0.372198 -0.482905
C46   C     C_3   0.740713 0.396340 0.627817 -0.482459
C47   C     C_3   0.307685 0.003305 0.225536 -0.321761
C48   C     C_3   0.692313 0.503411 0.774439 -0.321813
H31   H     H_    0.346460 0.976703 0.180535 0.202529
H32   H     H_    0.653537 0.476927 0.819449 0.202835
H33   H     H_    0.318590 0.144714 0.261342 0.169155
H34   H     H_    0.681413 0.644783 0.738590 0.169207
H35   H     H_    0.271817 0.034172 0.411687 0.188077
H36   H     H_    0.728193 0.533957 0.588294 0.188113
O11   O     O_R   0.912980 0.203550 0.915410 -0.600702
O12   O     O_R   0.087020 0.703550 0.084590 -0.600688
O13   O     O_R   0.047270 0.535570 0.887960 -0.575742
O14   O     O_R   0.952730 0.035570 0.112040 -0.575749
C49   C     C_R   0.063979 0.368039 0.861637 0.944825
C50   C     C_R   0.936007 0.868072 0.138351 0.944750
O15   O     O_R   0.911030 0.532970 0.903270 -0.568021
O16   O     O_R   0.088970 0.032970 0.096730 -0.567974
O17   O     O_R   0.949820 0.708150 0.099970 -0.597810
O18   O     O_R   0.050180 0.208150 0.900030 -0.597860
C51   C     C_R   0.883590 0.365131 0.882429 0.884986
C52   C     C_R   0.116406 0.865126 0.117585 0.884998
O19   O     O_3   0.012900 0.375230 0.064480 -0.267595
O20   O     O_3   0.987100 0.875230 0.935520 -0.267651
V3    V     V_3+5 0.997610 0.648190 0.988040 1.216469
V4    V     V_3+5 0.002390 0.148190 0.011960 1.216495
N1    N     N_R   0.495172 0.863818 0.141122 0.223605
O21   O     O_R   0.465760 0.944689 0.055202 -0.400360
O22   O     O_R   0.458088 0.763629 0.188361 -0.471424
N2    N     N_R   0.504725 0.367325 0.858503 0.223385
O23   O     O_R   0.534078 0.452573 0.943074 -0.401476
O24   O     O_R   0.541844 0.264246 0.812717 -0.470441
N3    N     N_R   0.150160 0.073489 0.314465 0.235317
O25   O     O_R   0.177436 0.236691 0.305372 -0.457929
O26   O     O_R   0.092850 0.066949 0.342865 -0.449468
N4    N     N_R   0.849862 0.573172 0.685482 0.235327
O27   O     O_R   0.822621 0.736457 0.694554 -0.457874
O28   O     O_R   0.907171 0.566450 0.657082 -0.449087

loop_
_geom_bond_atom_site_label_1
_geom_bond_atom_site_label_2
_geom_bond_distance
_ccdc_geom_bond_type
C36   H20   1.112778 S    
C46   H36   1.112759 S    
C7    C29   1.411410 A    
C11   C13   1.393460 A    
O1    C3    1.311264 A    
H24   C38   1.115180 S    
O2    C4    1.311380 A    
C26   H14   1.082273 S    
C2    O7    1.301397 A    
C12   H12   1.082873 S    
C7    C27   1.400450 A    
C23   C25   1.386898 A    
O18   V4    2.014169 S    
C40   C48   1.552108 S    
O5    C3    1.312015 A    
C14   H10   1.076522 S    
C42   C51   1.523847 S    
C39   C47   1.552102 S    
C2    C43   1.521504 S    
C16   C20   1.430998 A    
O15   V3    2.021207 S    
C22   C24   1.396576 A    
C5    C29   1.400751 A    
O19   V3    2.181757 S    
H2    C24   1.084482 S    
C44   C46   1.551031 S    
C39   H29   1.113254 S    
C3    C8    1.466554 S    
O12   C52   1.319592 A    
N2    O23   1.301649 A    
C50   O17   1.304166 A    
C34   H16   1.111388 S    
O20   V3    1.752937 S    
H25   C45   1.113343 S    
C18   C26   1.407029 A    
C35   H19   1.112761 S    
C45   H35   1.112734 S    
C15   C17   1.427115 A    
C47   H31   1.111606 S    
C19   C27   1.413456 A    
C9    C31   1.396543 A    
C10   C32   1.396543 A    
N3    O26   1.300655 A    
O17   V3    2.014052 S    
C34   C36   1.546124 S    
O6    V2    2.021586 S    
C31   C50   1.467091 S    
H23   C37   1.115201 S    
C6    C30   1.400475 A    
C48   H34   1.113018 S    
C39   C41   1.559411 S    
C33   H15   1.111377 S    
C43   C45   1.551011 S    
C37   N3    1.468770 S    
O4    C2    1.296665 A    
C44   C48   1.553872 S    
O19   V4    1.752852 S    
C33   C41   1.555381 S    
O16   V4    2.021129 S    
O11   V4    1.998620 S    
C43   C47   1.553913 S    
C27   H5    1.077557 S    
O5    V1    2.021377 S    
C40   H30   1.113259 S    
C5    H3    1.084407 S    
C16   C18   1.427080 A    
O4    V2    2.021150 S    
C9    H7    1.082882 S    
C10   H8    1.082913 S    
C40   H28   1.110172 S    
C48   H32   1.111611 S    
C4    C7    1.466788 S    
C39   H27   1.110171 S    
O6    C4    1.312015 A    
O13   V3    2.021418 S    
O14   C50   1.307597 A    
C40   C42   1.559388 S    
O1    V2    2.011007 S    
C5    C21   1.402589 A    
O2    V1    2.010895 S    
H1    C23   1.084493 S    
C1    C44   1.521520 S    
C37   C45   1.560624 S    
O13   C49   1.307634 A    
C8    C28   1.400352 A    
O14   V4    2.021627 S    
C17   C31   1.417436 A    
C15   C19   1.431018 A    
C20   C28   1.413454 A    
C18   C32   1.417417 A    
N4    O28   1.300665 A    
O16   C52   1.316266 A    
O3    V1    2.021229 S    
N1    O21   1.301935 A    
C28   H6    1.077554 S    
C49   O18   1.304104 A    
C38   C46   1.560605 S    
C34   C42   1.555483 S    
O12   V3    1.998654 S    
C19   C21   1.420187 A    
C6    H4    1.084425 S    
C10   C12   1.388834 A    
C38   C42   1.567906 S    
O3    C1    1.296681 A    
C36   C44   1.559715 S    
N3    O25   1.300956 A    
C35   C43   1.559678 S    
C9    C11   1.388838 A    
C33   H17   1.112085 S    
C30   N2    1.439960 S    
C34   H18   1.112180 S    
C38   N4    1.468798 S    
C20   C22   1.420313 A    
C6    C22   1.402646 A    
C17   C25   1.407030 A    
C12   C14   1.393458 A    
C13   C15   1.418037 A    
O8    V2    2.009400 S    
C33   C35   1.546067 S    
C14   C16   1.418048 A    
C36   H22   1.113385 S    
C13   H9    1.076529 S    
C35   H21   1.113414 S    
C32   C49   1.467030 S    
C24   C26   1.386924 A    
N2    O24   1.300590 A    
C41   C52   1.523850 S    
C11   H11   1.082890 S    
C47   H33   1.112992 S    
O20   V4    2.181637 S    
C25   H13   1.082293 S    
O11   C51   1.319564 A    
C29   N1    1.440426 S    
C1    O8    1.301406 A    
C21   C23   1.396629 A    
O9    V2    1.753207 S    
O10   V1    1.753293 S    
O15   C51   1.316319 A    
H26   C46   1.113315 S    
N4    O27   1.300960 A    
C37   C41   1.567919 S    
O7    V1    2.009436 S    
C8    C30   1.410954 A    
N1    O22   1.300921 A    
