data_mof_unit_66430.cif
_audit_creation_date              2013-03-05T16:19:52-0500
_audit_creation_method            fapswitch 2.2
_symmetry_space_group_name_H-M    P1
_symmetry_Int_Tables_number       1
_space_group_crystal_system       triclinic
_cell_length_a                    30.230335
_cell_length_b                    30.58481
_cell_length_c                    21.558933
_cell_angle_alpha                 90.005127
_cell_angle_beta                  134.297585
_cell_angle_gamma                 89.993468
_cell_volume                      14266.5997544

loop_
_atom_site_label
_atom_site_type_symbol
_atom_site_description
_atom_site_fract_x
_atom_site_fract_y
_atom_site_fract_z
_atom_type_partial_charge
O1    O     O_R   0.321150 0.768980 0.142380 -0.596283
O2    O     O_R   0.678850 0.768980 0.857620 -0.595934
O3    O     O_R   0.821150 0.268980 0.142380 -0.595639
O4    O     O_R   0.178850 0.268980 0.857620 -0.596313
O5    O     O_R   0.268980 0.821170 0.038000 -0.555584
O6    O     O_R   0.731020 0.821170 0.962000 -0.555928
O7    O     O_R   0.768980 0.321170 0.038000 -0.554716
O8    O     O_R   0.231020 0.321170 0.962000 -0.555532
C1    C     C_R   0.308869 0.809554 0.118456 0.809455
C2    C     C_R   0.691131 0.809552 0.881545 0.809157
C3    C     C_R   0.808864 0.309555 0.118454 0.810480
C4    C     C_R   0.191132 0.309555 0.881545 0.809647
O9    O     O_R   0.340930 0.723870 0.052190 -0.523720
O10   O     O_R   0.659070 0.723870 0.947810 -0.524628
O11   O     O_R   0.840930 0.223870 0.052190 -0.524049
O12   O     O_R   0.159070 0.223870 0.947810 -0.524052
O13   O     O_R   0.288760 0.776060 0.947810 -0.556868
O14   O     O_R   0.711240 0.776060 0.052190 -0.556668
O15   O     O_R   0.788760 0.276060 0.947810 -0.555994
O16   O     O_R   0.211240 0.276060 0.052190 -0.556770
C5    C     C_R   0.335520 0.750035 0.000020 0.913528
C6    C     C_R   0.664482 0.750037 0.999984 0.913880
C7    C     C_R   0.835524 0.250037 0.000026 0.914352
C8    C     C_R   0.164481 0.250040 0.999979 0.913361
Cu1   Cu    Cu3+1 0.280880 0.719080 0.061820 1.152566
Cu2   Cu    Cu3+1 0.719120 0.719080 0.938180 1.156417
Cu3   Cu    Cu3+1 0.780880 0.219080 0.061820 1.153339
Cu4   Cu    Cu3+1 0.219120 0.219080 0.938180 1.151094
Cu5   Cu    Cu3+1 0.219090 0.780890 0.938220 1.068730
Cu6   Cu    Cu3+1 0.780910 0.780890 0.061780 1.067771
Cu7   Cu    Cu3+1 0.719090 0.280890 0.938220 1.070846
Cu8   Cu    Cu3+1 0.280910 0.280890 0.061780 1.071036
O17   O     O_R   0.230990 0.678800 0.962040 -0.518451
O18   O     O_R   0.769010 0.678800 0.037960 -0.526339
O19   O     O_R   0.730990 0.178800 0.962040 -0.516664
O20   O     O_R   0.269010 0.178800 0.037960 -0.518717
O21   O     O_R   0.178820 0.731000 0.857660 -0.604989
O22   O     O_R   0.821180 0.731000 0.142340 -0.603791
O23   O     O_R   0.678820 0.231000 0.857660 -0.600902
O24   O     O_R   0.321180 0.231000 0.142340 -0.603010
O25   O     O_R   0.211210 0.723910 0.052230 -0.566536
O26   O     O_R   0.788790 0.723910 0.947770 -0.560716
O27   O     O_R   0.711210 0.223910 0.052230 -0.561462
O28   O     O_R   0.288790 0.223910 0.947770 -0.568784
O29   O     O_R   0.159040 0.776100 0.947850 -0.601130
O30   O     O_R   0.840960 0.776100 0.052150 -0.602151
O31   O     O_R   0.659040 0.276100 0.947850 -0.600465
O32   O     O_R   0.340960 0.276100 0.052150 -0.600521
C9    C     C_R   0.190964 0.690521 0.881608 0.847282
C10   C     C_R   0.809094 0.690574 0.118460 0.841810
C11   C     C_R   0.690826 0.190547 0.881706 0.819099
C12   C     C_R   0.309078 0.190527 0.118371 0.847848
C13   C     C_R   0.164374 0.749992 0.000142 0.808735
C14   C     C_R   0.835637 0.749971 0.999888 0.806980
C15   C     C_R   0.664315 0.249895 0.999969 0.788589
C16   C     C_R   0.335634 0.249996 0.999827 0.809849
C17   C     C_R   0.593615 0.790176 0.000913 0.261270
C18   C     C_R   0.406400 0.790171 0.999144 0.260991
C19   C     C_R   0.093579 0.290185 0.000826 0.260921
C20   C     C_R   0.906380 0.290183 0.999096 0.261423
C21   C     C_R   0.616190 0.750101 0.000076 -0.268080
C22   C     C_R   0.383816 0.750096 0.999941 -0.267955
C23   C     C_R   0.116190 0.250107 0.000067 -0.267854
C24   C     C_R   0.883833 0.250106 0.999966 -0.268841
C25   C     C_R   0.592804 0.710043 0.999312 0.250029
C26   C     C_R   0.407197 0.710039 0.000679 0.249493
C27   C     C_R   0.092843 0.210051 0.999382 0.250019
C28   C     C_R   0.907265 0.210052 0.000796 0.251060
C29   C     C_R   0.546328 0.709988 0.999306 0.003707
C30   C     C_R   0.453675 0.709986 0.000687 0.003675
C31   C     C_R   0.046374 0.209998 0.999389 0.003940
C32   C     C_R   0.953737 0.210000 0.000795 0.003820
C33   C     C_R   0.523390 0.750116 0.000012 0.026219
C34   C     C_R   0.476617 0.750115 0.000008 0.026393
C35   C     C_R   0.023402 0.250128 0.000024 0.026405
C36   C     C_R   0.976634 0.250128 0.000030 0.026097
C37   C     C_R   0.547058 0.790241 0.000772 -0.000350
C38   C     C_R   0.452953 0.790239 0.999279 -0.000391
C39   C     C_R   0.047029 0.290253 0.000700 -0.000424
C40   C     C_R   0.952933 0.290251 0.999228 -0.000379
C41   C     C_R   0.522934 0.670539 0.999967 -0.121409
C42   C     C_R   0.477068 0.670538 0.000002 -0.121914
C43   C     C_R   0.023023 0.170550 0.000135 -0.122256
C44   C     C_R   0.977165 0.170551 0.000185 -0.122487
C45   C     C_R   0.477042 0.829687 0.000001 -0.103938
C46   C     C_R   0.522966 0.829688 0.000067 -0.103948
C47   C     C_R   0.976987 0.329699 0.999876 -0.103966
C48   C     C_R   0.022905 0.329700 0.999930 -0.103686
C49   C     C_R   0.406434 0.843483 0.248113 0.062356
C50   C     C_R   0.593570 0.843556 0.752037 0.062212
C51   C     C_R   0.906425 0.343505 0.248065 0.061918
C52   C     C_R   0.093570 0.343496 0.751897 0.062322
C53   C     C_R   0.342083 0.843738 0.183259 -0.097251
C54   C     C_R   0.657926 0.843729 0.816735 -0.096918
C55   C     C_R   0.842074 0.343742 0.183250 -0.098695
C56   C     C_R   0.157921 0.343741 0.816747 -0.097288
C57   C     C_R   0.310267 0.879809 0.176858 -0.161980
C58   C     C_R   0.689773 0.879711 0.822976 -0.163241
C59   C     C_R   0.810254 0.379806 0.176861 -0.161150
C60   C     C_R   0.189737 0.379808 0.823154 -0.161185
H1    H     H_    0.260446 0.882061 0.124230 0.160447
H2    H     H_    0.739611 0.881895 0.875483 0.159861
H3    H     H_    0.760430 0.382049 0.124251 0.161638
H4    H     H_    0.239558 0.382056 0.875785 0.160691
C61   C     C_R   0.342483 0.911762 0.241916 -0.158666
C62   C     C_R   0.657555 0.911658 0.757910 -0.157040
C63   C     C_R   0.842472 0.411764 0.241912 -0.157067
C64   C     C_R   0.157522 0.411762 0.758096 -0.158917
H5    H     H_    0.317147 0.938354 0.238437 0.170383
H6    H     H_    0.682910 0.938178 0.761262 0.170106
H7    H     H_    0.817135 0.438351 0.238445 0.172218
H8    H     H_    0.182858 0.438351 0.761580 0.170565
C65   C     C_R   0.406901 0.908545 0.311958 -0.120017
C66   C     C_R   0.593107 0.908530 0.688025 -0.119791
C67   C     C_R   0.906894 0.408555 0.311936 -0.121029
C68   C     C_R   0.093105 0.408548 0.688048 -0.120098
C69   C     C_R   0.438586 0.875783 0.310932 0.080435
C70   C     C_R   0.561420 0.875854 0.689212 0.079866
C71   C     C_R   0.938577 0.375807 0.310878 0.080058
C72   C     C_R   0.061420 0.375795 0.689079 0.080482
C73   C     C_3   0.485760 0.843850 0.380719 0.040877
C74   C     C_3   0.514121 0.843947 0.619491 0.041120
C75   C     C_3   0.985786 0.343882 0.380649 0.041076
C76   C     C_3   0.014240 0.343866 0.619297 0.040900
C77   C     C_3   0.450111 0.808304 0.310744 0.061982
C78   C     C_3   0.549771 0.808404 0.689470 0.061997
C79   C     C_3   0.950136 0.308334 0.310680 0.062095
C80   C     C_3   0.049886 0.308320 0.689272 0.062031
H9    H     H_    0.484618 0.840077 0.430859 0.066213
H10   H     H_    0.515137 0.840103 0.569234 0.066264
H11   H     H_    0.984678 0.340094 0.430820 0.066305
H12   H     H_    0.015381 0.340081 0.569158 0.066305
H13   H     H_    0.428600 0.783528 0.320722 0.115556
H14   H     H_    0.571158 0.783563 0.679382 0.115844
H15   H     H_    0.928662 0.283543 0.320694 0.115714
H16   H     H_    0.071390 0.283534 0.679291 0.115539
C81   C     C_R   0.867936 0.748289 0.921184 -0.214592
C82   C     C_R   0.132055 0.748006 0.078826 -0.217261
C83   C     C_R   0.368151 0.245677 0.921426 -0.213836
C84   C     C_R   0.632092 0.250412 0.078669 -0.207844
C85   C     C_R   0.884020 0.749803 0.999896 -0.036333
C86   C     C_R   0.115987 0.749838 0.000138 -0.036651
C87   C     C_R   0.384049 0.249802 0.999796 -0.038372
C88   C     C_R   0.615958 0.249651 0.999914 -0.035435
C89   C     C_R   0.946347 0.751131 0.078651 -0.147784
C90   C     C_R   0.053667 0.751484 0.921410 -0.146859
C91   C     C_R   0.446251 0.253623 0.078193 -0.146157
C92   C     C_R   0.553657 0.248536 0.921140 -0.141555
C93   C     C_R   0.992948 0.750145 0.079320 0.095128
C94   C     C_R   0.007060 0.750487 0.920727 0.094477
C95   C     C_R   0.492891 0.252595 0.078944 0.095057
C96   C     C_R   0.507115 0.247511 0.920603 0.099063
C97   C     C_R   0.976710 0.749513 0.999992 0.066741
C98   C     C_R   0.023292 0.749523 0.000042 0.066999
C99   C     C_R   0.476760 0.249306 0.999861 0.067376
C100  C     C_R   0.523330 0.249251 0.999884 0.064756
C101  C     C_R   0.913934 0.748959 0.920612 0.106212
C102  C     C_R   0.086062 0.748658 0.079409 0.106617
C103  C     C_R   0.414103 0.246175 0.920748 0.105211
C104  C     C_R   0.586072 0.251042 0.079185 0.106516
C105  C     C_R   0.055445 0.749727 0.157806 -0.162435
C106  C     C_R   0.944561 0.750379 0.842236 -0.162528
C107  C     C_R   0.555335 0.254746 0.157303 -0.162222
C108  C     C_R   0.444708 0.244766 0.842325 -0.149502
C109  C     C_R   0.101675 0.748632 0.157847 -0.166873
C110  C     C_R   0.898322 0.749263 0.842177 -0.166295
C111  C     C_R   0.601622 0.253632 0.157465 -0.166931
C112  C     C_R   0.398548 0.243772 0.842438 -0.169020
H17   H     H_    0.819611 0.747595 0.860519 0.153614
H18   H     H_    0.180372 0.747070 0.139480 0.153645
H19   H     H_    0.319941 0.243046 0.860954 0.155793
H20   H     H_    0.680417 0.251522 0.139280 0.150708
H21   H     H_    0.958421 0.751959 0.139290 0.164521
H22   H     H_    0.041591 0.752562 0.860781 0.165315
H23   H     H_    0.458285 0.256433 0.138651 0.166599
H24   H     H_    0.541644 0.247521 0.860553 0.168683
H25   H     H_    0.068554 0.750026 0.219151 0.164307
H26   H     H_    0.931454 0.750934 0.780898 0.164375
H27   H     H_    0.568374 0.257095 0.218485 0.164455
H28   H     H_    0.431627 0.243205 0.781048 0.171758
C113  C     C_R   0.136429 0.619652 0.821634 0.032188
C114  C     C_R   0.864437 0.620174 0.178961 0.025094
C115  C     C_R   0.630406 0.122376 0.817012 0.014556
C116  C     C_R   0.365367 0.120368 0.179644 0.030935
C117  C     C_R   0.159064 0.657198 0.815552 -0.039600
C118  C     C_R   0.841569 0.657503 0.184946 -0.048745
C119  C     C_R   0.659377 0.157159 0.816114 -0.044028
C120  C     C_R   0.340943 0.157201 0.184351 -0.038985
C121  C     C_R   0.148449 0.662186 0.740949 -0.147201
C122  C     C_R   0.852587 0.662550 0.259879 -0.142985
C123  C     C_R   0.655970 0.159171 0.747533 -0.130860
C124  C     C_R   0.349658 0.161469 0.257468 -0.144985
H29   H     H_    0.165600 0.690670 0.733348 0.166013
H30   H     H_    0.835681 0.691092 0.267769 0.166129
H31   H     H_    0.678508 0.185396 0.744532 0.165348
H32   H     H_    0.331069 0.189396 0.263906 0.166353
C125  C     C_R   0.116113 0.629775 0.676032 -0.181715
C126  C     C_R   0.884775 0.630017 0.324576 -0.182601
C127  C     C_R   0.623660 0.126719 0.682672 -0.180426
C128  C     C_R   0.381960 0.129046 0.322362 -0.179020
H33   H     H_    0.109028 0.633797 0.619683 0.157875
H34   H     H_    0.892202 0.634098 0.381205 0.157561
H35   H     H_    0.622089 0.128455 0.630977 0.163395
H36   H     H_    0.387591 0.132515 0.377560 0.161045
C129  C     C_R   0.092037 0.592991 0.683628 -0.027380
C130  C     C_R   0.907925 0.592890 0.316136 -0.028338
C131  C     C_R   0.592290 0.093080 0.683917 -0.037942
C132  C     C_R   0.407893 0.093002 0.316292 -0.030194
C133  C     C_R   0.102737 0.589697 0.757239 -0.026444
C134  C     C_R   0.897039 0.589630 0.242324 -0.005670
C135  C     C_R   0.596257 0.092771 0.751953 0.000279
C136  C     C_R   0.399005 0.090438 0.244092 -0.025598
C137  C     C_3   0.090886 0.561495 0.800682 -0.494357
C138  C     C_3   0.906071 0.560649 0.196249 -0.504987
C139  C     C_3   0.573847 0.069675 0.786632 -0.480488
C140  C     C_3   0.413313 0.063263 0.202589 -0.491192
C141  C     C_3   0.128977 0.595577 0.874617 0.542389
C142  C     C_3   0.869392 0.595703 0.123897 0.540707
C143  C     C_3   0.612522 0.103538 0.861059 0.534054
C144  C     C_3   0.375334 0.097351 0.128657 0.540950
H37   H     H_    0.041002 0.560551 0.764119 0.227513
H38   H     H_    0.955630 0.558100 0.231627 0.225233
H39   H     H_    0.523040 0.072899 0.742954 0.233305
H40   H     H_    0.463556 0.063219 0.240987 0.227075
H41   H     H_    0.113470 0.528991 0.818236 0.213884
H42   H     H_    0.881795 0.528838 0.177863 0.220656
H43   H     H_    0.591715 0.035629 0.806597 0.211439
H44   H     H_    0.391571 0.030383 0.184185 0.214450
O33   O     O_R   0.992480 0.545070 0.409820 -0.578722
O34   O     O_R   0.007520 0.545070 0.590180 -0.578282
O35   O     O_R   0.492480 0.045070 0.409820 -0.578373
O36   O     O_R   0.507520 0.045070 0.590180 -0.577497
O37   O     O_R   0.917370 0.545120 0.409780 -0.582740
O38   O     O_R   0.082630 0.545120 0.590220 -0.583661
O39   O     O_R   0.417370 0.045120 0.409780 -0.584020
O40   O     O_R   0.582630 0.045120 0.590220 -0.586384
C145  C     C_R   0.940714 0.559268 0.381322 0.781056
C146  C     C_R   0.059112 0.559440 0.618322 0.781719
C147  C     C_R   0.440881 0.059456 0.381675 0.783399
C148  C     C_R   0.559073 0.059562 0.618237 0.782270
O41   O     O_R   0.492430 0.954900 0.409810 -0.539087
O42   O     O_R   0.507570 0.954900 0.590190 -0.539379
O43   O     O_R   0.992430 0.454900 0.409810 -0.539362
O44   O     O_R   0.007570 0.454900 0.590190 -0.539172
O45   O     O_R   0.417320 0.954950 0.409780 -0.574128
O46   O     O_R   0.582680 0.954950 0.590220 -0.574124
O47   O     O_R   0.917320 0.454950 0.409780 -0.573880
O48   O     O_R   0.082680 0.454950 0.590220 -0.573890
C149  C     C_R   0.440723 0.940540 0.381253 0.789081
C150  C     C_R   0.559275 0.940532 0.618735 0.789764
C151  C     C_R   0.940719 0.440544 0.381245 0.789079
C152  C     C_R   0.059281 0.440542 0.618751 0.788789
Cu9   Cu    Cu3+1 0.544430 0.999980 0.499990 1.057452
Cu10  Cu    Cu3+1 0.455570 0.999980 0.500010 1.059234
Cu11  Cu    Cu3+1 0.044430 0.499980 0.499990 1.059247
Cu12  Cu    Cu3+1 0.955570 0.499980 0.500010 1.059913
N1    N     N_R   0.616895 0.830715 0.999483 0.131907
O49   O     O_R   0.609019 0.840478 0.933572 -0.311786
O50   O     O_R   0.649567 0.856462 0.066585 -0.313516
N2    N     N_R   0.383145 0.830707 0.000647 0.132034
O51   O     O_R   0.350429 0.856462 0.933555 -0.312865
O52   O     O_R   0.391132 0.840475 0.066652 -0.311358
N3    N     N_R   0.116809 0.330720 0.999289 0.132098
O53   O     O_R   0.149463 0.356508 0.066330 -0.312038
O54   O     O_R   0.108910 0.340440 0.933343 -0.311400
N4    N     N_R   0.883088 0.330720 0.000525 0.131697
O55   O     O_R   0.890990 0.340491 0.066458 -0.312553
O56   O     O_R   0.850382 0.356456 0.933407 -0.314260
H45   H     H_    0.149653 0.748088 0.219224 0.166930
H46   H     H_    0.850341 0.748962 0.780792 0.167131
H47   H     H_    0.649572 0.255130 0.218769 0.166901
H48   H     H_    0.350647 0.241447 0.781238 0.168050
N5    N     N_R   0.092664 0.619225 0.885627 0.121663
O57   O     O_R   0.083975 0.661209 0.872705 -0.408702
O58   O     O_R   0.069505 0.598269 0.910030 -0.265400
N6    N     N_R   0.906697 0.617929 0.113158 0.128867
O59   O     O_R   0.928061 0.595916 0.087096 -0.269645
O60   O     O_R   0.917558 0.659710 0.127263 -0.401558
N7    N     N_R   0.575702 0.133825 0.862792 0.103921
O61   O     O_R   0.591325 0.142164 0.935167 -0.294517
O62   O     O_R   0.528739 0.154350 0.792759 -0.384418
N8    N     N_R   0.412326 0.122231 0.120185 0.120679
O63   O     O_R   0.419824 0.164228 0.133619 -0.408859
O64   O     O_R   0.437406 0.102361 0.097698 -0.266794
N9    N     N_R   0.617873 0.669504 0.001491 0.128937
O65   O     O_R   0.584185 0.643679 0.934493 -0.293182
O66   O     O_R   0.675552 0.659815 0.068100 -0.359517
N10   N     N_R   0.382128 0.669500 0.998480 0.129439
O67   O     O_R   0.415815 0.643668 0.065466 -0.292495
O68   O     O_R   0.324444 0.659824 0.931876 -0.358816
N11   N     N_R   0.117941 0.169513 0.001621 0.129131
O69   O     O_R   0.084271 0.143662 0.934662 -0.294081
O70   O     O_R   0.175627 0.159849 0.068244 -0.360787
N12   N     N_R   0.882252 0.169510 0.998696 0.128448
O71   O     O_R   0.915964 0.143728 0.065758 -0.296581
O72   O     O_R   0.824608 0.159760 0.932058 -0.365358
N13   N     N_R   0.186453 0.577532 0.956273 0.127562
O73   O     O_R   0.239697 0.586439 0.983318 -0.298757
O74   O     O_R   0.184155 0.550076 0.000048 -0.260871
N14   N     N_R   0.809375 0.580561 0.041734 0.137172
O75   O     O_R   0.770771 0.560633 0.040635 -0.316088
O76   O     O_R   0.792714 0.588816 0.968611 -0.259027
N15   N     N_R   0.663715 0.083378 0.945508 0.136097
O77   O     O_R   0.720771 0.088555 0.983735 -0.302668
O78   O     O_R   0.651875 0.058003 0.980865 -0.261473
N16   N     N_R   0.319198 0.078886 0.046008 0.127284
O79   O     O_R   0.264957 0.086717 0.016516 -0.301140
O80   O     O_R   0.323701 0.052145 0.003708 -0.260858
H49   H     H_    0.539891 0.639209 0.000675 0.203130
H50   H     H_    0.460109 0.639208 0.999274 0.202822
H51   H     H_    0.040008 0.139220 0.000901 0.202505
H52   H     H_    0.960240 0.139220 0.999526 0.202365
H53   H     H_    0.460811 0.861016 0.000750 0.210665
H54   H     H_    0.539191 0.861019 0.999327 0.210540
H55   H     H_    0.960733 0.361030 0.000576 0.210282
H56   H     H_    0.039102 0.361030 0.999130 0.210665
N17   N     N_R   0.548194 0.851869 0.418161 0.195406
O81   O     O_R   0.561603 0.887689 0.401578 -0.276505
O82   O     O_R   0.592113 0.824320 0.474178 -0.298742
N18   N     N_R   0.451758 0.852072 0.582241 0.195485
O83   O     O_R   0.438499 0.887941 0.598933 -0.276869
O84   O     O_R   0.407749 0.824561 0.526298 -0.298791
N19   N     N_R   0.048200 0.351926 0.418036 0.195486
O85   O     O_R   0.061566 0.387755 0.401415 -0.276409
O86   O     O_R   0.092143 0.324387 0.474037 -0.298225
N20   N     N_R   0.951808 0.351900 0.581858 0.195387
O87   O     O_R   0.938407 0.387726 0.598449 -0.276378
O88   O     O_R   0.907885 0.324357 0.525841 -0.298795
N21   N     N_R   0.483078 0.788954 0.290331 0.194037
O89   O     O_R   0.490971 0.746832 0.295899 -0.291162
O90   O     O_R   0.500680 0.812760 0.260698 -0.249085
N22   N     N_R   0.516883 0.789160 0.710081 0.193901
O91   O     O_R   0.508944 0.747047 0.704607 -0.291310
O92   O     O_R   0.499398 0.813052 0.739792 -0.249262
N23   N     N_R   0.983079 0.289009 0.290210 0.193968
O93   O     O_R   0.990998 0.246890 0.295774 -0.291566
O94   O     O_R   0.000632 0.312833 0.260530 -0.249141
N24   N     N_R   0.016922 0.288988 0.709695 0.194027
O95   O     O_R   0.009027 0.246868 0.704138 -0.291516
O96   O     O_R   0.999322 0.312808 0.739324 -0.249090

loop_
_geom_bond_atom_site_label_1
_geom_bond_atom_site_label_2
_geom_bond_distance
_ccdc_geom_bond_type
C59   H3    1.083325 S    
C126  C130  1.410634 A    
N21   O90   1.302467 A    
C86   C90   1.402240 A    
N11   O69   1.301021 A    
N15   O78   1.301057 A    
C49   C77   1.494641 S    
C75   N19   1.464942 S    
N8    O63   1.301301 A    
C51   C79   1.494623 S    
C98   C102  1.412114 A    
C55   C59   1.405568 A    
C2    C54   1.446883 S    
C27   N11   1.436612 S    
C60   H4    1.083323 S    
O43   Cu11  1.970567 S    
N8    O64   1.300929 A    
Cu6   O22   1.968136 S    
C25   N9    1.436616 S    
O37   C145  1.290934 A    
C138  H38   1.111881 S    
C90   C94   1.399045 A    
C96   C100  1.412167 A    
C30   C34   1.414904 A    
C47   H55   1.081718 S    
C83   H19   1.084559 S    
N20   O87   1.301899 A    
C95   C99   1.411898 A    
O40   Cu9   1.971257 S    
O4    C4    1.294769 A    
C85   C89   1.402182 A    
C57   C61   1.400995 A    
C83   C103  1.399464 A    
C128  C132  1.410686 A    
C77   N21   1.466118 S    
O33   Cu11  1.970515 S    
Cu1   Cu5   2.685377 S    
Cu3   Cu7   2.685377 S    
N19   O85   1.301900 A    
Cu4   Cu8   2.685339 S    
O41   C149  1.292754 A    
C89   H21   1.084623 S    
Cu1   O25   1.972851 S    
N23   O94   1.302464 A    
Cu3   O19   1.971839 S    
C58   H2    1.083327 S    
Cu4   O28   1.972882 S    
C133  C137  1.489432 S    
Cu5   O29   1.971418 S    
C118  C122  1.411704 A    
O15   C7    1.294708 A    
C35   C36   1.413906 A    
C140  H40   1.111748 S    
O11   Cu3   1.971418 S    
N15   O77   1.301471 A    
C28   C32   1.404874 A    
N16   O79   1.301552 A    
C50   C78   1.494636 S    
O9    C5    1.294341 A    
O2    Cu2   1.968373 S    
O10   Cu2   1.971384 S    
C5    C22   1.461209 S    
C32   C44   1.403680 A    
C144  N16   1.466341 S    
C131  C148  1.441588 S    
C3    C55   1.446958 S    
C7    C24   1.461298 S    
O6    Cu6   1.971864 S    
C8    C23   1.461180 S    
O19   C11   1.290591 A    
O33   C145  1.293035 A    
C50   C70   1.384285 A    
N14   O75   1.302119 A    
C121  C125  1.409260 A    
N3    O54   1.300955 A    
C115  C143  1.497772 S    
O39   Cu10  1.971317 S    
C17   C21   1.409059 A    
O46   Cu9   1.968808 S    
C71   C75   1.501403 S    
C19   C23   1.409049 A    
C58   C62   1.400981 A    
C20   C24   1.409075 A    
C26   N10   1.436630 S    
C141  N13   1.466361 S    
N9    O66   1.301105 A    
O24   C12   1.291934 A    
C26   C30   1.404930 A    
C90   H22   1.084614 S    
C17   N1    1.436673 S    
C124  C128  1.409281 A    
C129  C146  1.438239 S    
C30   C42   1.403676 A    
O3    C3    1.294784 A    
N23   O93   1.300380 A    
N13   O73   1.301586 A    
C21   C25   1.408891 A    
C116  C144  1.502354 S    
C14   C85   1.462497 S    
C78   H14   1.113041 S    
O44   Cu12  1.970561 S    
C99   C100  1.407505 A    
C33   C37   1.414952 A    
C35   C39   1.414947 A    
C105  C109  1.397340 A    
O48   C152  1.296416 A    
C102  C109  1.402692 A    
N10   O68   1.301102 A    
O23   C11   1.291698 A    
C74   N18   1.464945 S    
C45   C46   1.387303 A    
C141  N5    1.465709 S    
C140  H44   1.112026 S    
C24   C28   1.408870 A    
C61   C65   1.405276 A    
N11   O70   1.301098 A    
O38   C146  1.290689 A    
Cu9   Cu10  2.686569 S    
C67   C151  1.449588 S    
C114  C134  1.352618 A    
C65   C149  1.449568 S    
C76   H12   1.111348 S    
C13   C86   1.462708 S    
C70   C74   1.501422 S    
C82   C102  1.399336 A    
C93   C97   1.411958 A    
C16   C87   1.464072 S    
C83   C87   1.402645 A    
C126  H34   1.083345 S    
C73   H9    1.111385 S    
O20   C12   1.291556 A    
C128  H36   1.083239 S    
O47   Cu12  1.968749 S    
N7    O62   1.301992 A    
O29   C13   1.296446 A    
C131  C135  1.385729 A    
N13   O74   1.300895 A    
C132  C147  1.438995 S    
C31   C43   1.403669 A    
C60   C64   1.401020 A    
O43   C151  1.292748 A    
C22   C26   1.408871 A    
C99   C103  1.411922 A    
C100  C104  1.412126 A    
C29   C41   1.403691 A    
N22   O91   1.300378 A    
C138  C142  1.547978 S    
C68   C72   1.396942 A    
N19   O86   1.300568 A    
N18   O84   1.300567 A    
C91   C95   1.399026 A    
C73   C77   1.532414 S    
C130  C134  1.385294 A    
C75   C79   1.532413 S    
C43   C44   1.387057 A    
O8    C4    1.291268 A    
C66   C70   1.396971 A    
O25   C13   1.296595 A    
N4    O56   1.301023 A    
C65   C69   1.396926 A    
C38   C45   1.403767 A    
O27   C15   1.296021 A    
C49   C69   1.384243 A    
Cu2   Cu6   2.685339 S    
C67   C71   1.396938 A    
C113  C141  1.502435 S    
C51   C71   1.384223 A    
O41   Cu9   1.970569 S    
Cu5   O21   1.968110 S    
C10   C118  1.440815 S    
C53   C57   1.405549 A    
Cu2   O26   1.972882 S    
O16   Cu8   1.972884 S    
O45   C149  1.296382 A    
C20   C40   1.405330 A    
C79   N23   1.466122 S    
C78   N22   1.466123 S    
O14   C6    1.294684 A    
C63   H7    1.083240 S    
Cu6   O30   1.971385 S    
C92   C96   1.399277 A    
C20   N4    1.436660 S    
N2    O51   1.301021 A    
O1    Cu1   1.968348 S    
C117  C121  1.411473 A    
N18   O83   1.301897 A    
O47   C151  1.296401 A    
N24   O96   1.302463 A    
C81   C101  1.399321 A    
C120  C124  1.411096 A    
O10   C6    1.294340 A    
O3    Cu3   1.968345 S    
C52   C72   1.384238 A    
C84   C104  1.399104 A    
C6    C21   1.461252 S    
C107  H27   1.083574 S    
C56   C60   1.405569 A    
N5    O58   1.300918 A    
C139  H43   1.111992 S    
C49   C53   1.392918 A    
C123  H31   1.083280 S    
C106  H26   1.083588 S    
C137  H41   1.112032 S    
C51   C55   1.392891 A    
C121  H29   1.083230 S    
C9    C117  1.441686 S    
N6    O59   1.301064 A    
N20   O88   1.300565 A    
C12   C120  1.440952 S    
Cu1   O17   1.971839 S    
C18   C22   1.409027 A    
C47   C48   1.387323 A    
O13   Cu5   1.972851 S    
C33   C34   1.413915 A    
C125  C129  1.410291 A    
O15   Cu7   1.972851 S    
O48   Cu11  1.968808 S    
N3    O53   1.301018 A    
O5    C1    1.291296 A    
C109  H45   1.083589 S    
C124  H32   1.083255 S    
C79   H15   1.113040 S    
O34   Cu12  1.970525 S    
C80   H16   1.113039 S    
C45   H53   1.081723 S    
N12   O71   1.301024 A    
C91   H23   1.084568 S    
C54   C58   1.405481 A    
O17   C9    1.291823 A    
C114  C118  1.386500 A    
N17   O82   1.300566 A    
C61   H5    1.083236 S    
O37   Cu12  1.971317 S    
C106  C110  1.397332 A    
C137  H37   1.111737 S    
N16   O80   1.300894 A    
N7    O61   1.301291 A    
C29   C33   1.414886 A    
C108  H28   1.083586 S    
C88   C92   1.401746 A    
C76   C80   1.532416 S    
C43   H51   1.081740 S    
Cu7   O31   1.971418 S    
C127  H35   1.083166 S    
Cu8   O32   1.971384 S    
C39   C48   1.403778 A    
N14   O76   1.301388 A    
C50   C54   1.392912 A    
C94   C106  1.402674 A    
O42   C150  1.292796 A    
C17   C37   1.405311 A    
O36   Cu10  1.970525 S    
C41   H49   1.081738 S    
C82   C86   1.402124 A    
C142  N14   1.467998 S    
C64   H8    1.083235 S    
O7    C3    1.291270 A    
N9    O65   1.301023 A    
C139  C143  1.547202 S    
O21   C9    1.292047 A    
O28   C16   1.296785 A    
C108  C112  1.397473 A    
O30   C14   1.296396 A    
O1    C1    1.294758 A    
C92   H24   1.084630 S    
C93   C105  1.402670 A    
C19   C39   1.405313 A    
C122  C126  1.409501 A    
C19   N3    1.436671 S    
C81   C85   1.402066 A    
C142  N6    1.467109 S    
C75   H11   1.111349 S    
O39   C147  1.290818 A    
C84   C88   1.401612 A    
N22   O92   1.302463 A    
O6    C2    1.291296 A    
C59   C63   1.401017 A    
O45   Cu10  1.968749 S    
C46   H54   1.081722 S    
C64   C68   1.405272 A    
O46   C150  1.296391 A    
O26   C14   1.296517 A    
C25   C29   1.404922 A    
C130  C145  1.438505 S    
C27   C31   1.404889 A    
C97   C101  1.412129 A    
O35   Cu9   1.970515 S    
O13   C5    1.294681 A    
C11   C119  1.438212 S    
C18   C38   1.405282 A    
Cu3   O27   1.972851 S    
Cu4   O20   1.971863 S    
C34   C38   1.414938 A    
C18   N2    1.436648 S    
C4    C56   1.446986 S    
C80   N24   1.466122 S    
O38   Cu11  1.971257 S    
C89   C93   1.399060 A    
O12   Cu4   1.971384 S    
C135  C139  1.491478 S    
C31   C35   1.414898 A    
C82   H18   1.084621 S    
N21   O89   1.300379 A    
C52   C56   1.392902 A    
C32   C36   1.414868 A    
C41   C42   1.387087 A    
C143  N15   1.467763 S    
C87   C91   1.402500 A    
C62   C66   1.405313 A    
C113  C133  1.352424 A    
C123  C127  1.409524 A    
N1    O49   1.300957 A    
C40   C47   1.403779 A    
C115  C119  1.386712 A    
C112  H48   1.083565 S    
C115  C135  1.352923 A    
C66   C150  1.449674 S    
C48   H56   1.081719 S    
C103  C112  1.402826 A    
O35   C147  1.293353 A    
C104  C111  1.402592 A    
C69   C73   1.501405 S    
Cu2   O18   1.971863 S    
C136  C140  1.489587 S    
C28   N12   1.436563 S    
C125  H33   1.083248 S    
O14   Cu6   1.972884 S    
C81   H17   1.084630 S    
C132  C136  1.384564 A    
C73   N17   1.464944 S    
O11   C7    1.294360 A    
C84   H20   1.084655 S    
C143  N7    1.468443 S    
C110  H46   1.083590 S    
O9    Cu1   1.971418 S    
C52   C80   1.494624 S    
O4    Cu4   1.968373 S    
C116  C136  1.352426 A    
O5    Cu5   1.971839 S    
C23   C27   1.408844 A    
O18   C10   1.293266 A    
O7    Cu7   1.971839 S    
O8    Cu8   1.971864 S    
O16   C8    1.294659 A    
N2    O52   1.300960 A    
C113  C117  1.389090 A    
C68   C152  1.449592 S    
C134  C138  1.491808 S    
C116  C120  1.388866 A    
C137  C141  1.545818 S    
N1    O50   1.301021 A    
C74   C78   1.532408 S    
C107  C111  1.397233 A    
C42   H50   1.081742 S    
C129  C133  1.384296 A    
C127  C131  1.412213 A    
N5    O57   1.301248 A    
C63   C67   1.405285 A    
C96   C108  1.402576 A    
N6    O60   1.301455 A    
C37   C46   1.403775 A    
C114  C142  1.496694 S    
C95   C107  1.402634 A    
O42   Cu10  1.970563 S    
O34   C146  1.293114 A    
C36   C40   1.414942 A    
Cu11  Cu12  2.686569 S    
O2    C2    1.294691 A    
C1    C53   1.446962 S    
C44   H52   1.081743 S    
O31   C15   1.296221 A    
C62   H6    1.083231 S    
C77   H13   1.113041 S    
O32   C16   1.296917 A    
C15   C88   1.461055 S    
O44   C152  1.292734 A    
C119  C123  1.409872 A    
C139  H39   1.111436 S    
C101  C110  1.402681 A    
O22   C10   1.290178 A    
N10   O67   1.301026 A    
N12   O72   1.301072 A    
Cu7   O23   1.968110 S    
Cu8   O24   1.968136 S    
N17   O81   1.301901 A    
C138  H42   1.111770 S    
N4    O55   1.300962 A    
C122  H30   1.083291 S    
C76   N20   1.464942 S    
C111  H47   1.083579 S    
O12   C8    1.294326 A    
N24   O95   1.300380 A    
C94   C98   1.411937 A    
O36   C148  1.294039 A    
O40   C148  1.291434 A    
C144  N8    1.465780 S    
C97   C98   1.407448 A    
C140  C144  1.545815 S    
C105  H25   1.083588 S    
C74   H10   1.111382 S    
C57   H1    1.083326 S    
C72   C76   1.501397 S    
