data_mof_unit_43248.cif
_audit_creation_date              2012-12-10T17:28:35-0500
_audit_creation_method            fapswitch 2.2
_symmetry_space_group_name_H-M    P1
_symmetry_Int_Tables_number       1
_space_group_crystal_system       triclinic
_cell_length_a                    10.76762
_cell_length_b                    11.997786
_cell_length_c                    12.884669
_cell_angle_alpha                 92.674193
_cell_angle_beta                  88.026942
_cell_angle_gamma                 86.158525
_cell_volume                      1657.81283137

loop_
_atom_site_label
_atom_site_type_symbol
_atom_type_description
_atom_site_fract_x
_atom_site_fract_y
_atom_site_fract_z
_atom_type_partial_charge
C1    C     C_R   0.502359 0.521609 0.700229 0.836531
C2    C     C_R   0.500394 0.561985 0.131944 -0.291812
C3    C     C_R   0.492678 0.447191 0.974849 0.170994
C4    C     C_R   0.500457 0.553319 0.025343 0.174195
C5    C     C_R   0.384412 0.956609 0.404664 0.273375
C6    C     C_R   0.615512 0.043403 0.595403 0.273613
C7    C     C_R   0.395465 0.839314 0.413748 0.184449
C8    C     C_R   0.604445 0.160699 0.586327 0.185616
C9    C     C_R   0.548896 0.856808 0.540226 -0.034546
C10   C     C_R   0.451116 0.143191 0.459765 -0.035147
C11   C     C_R   0.541760 0.974751 0.534467 -0.072379
C12   C     C_R   0.497588 0.478409 0.299801 0.883633
C13   C     C_R   0.458220 0.025252 0.465553 -0.072381
C14   C     C_R   0.739480 0.499322 0.492365 0.935231
C15   C     C_R   0.260418 0.500969 0.509890 0.847608
C16   C     C_R   0.895404 0.498093 0.299681 0.103202
C17   C     C_R   0.100649 0.507317 0.706510 0.093994
C18   C     C_R   0.974205 0.496849 0.210832 -0.156591
C19   C     C_R   0.020663 0.507958 0.794097 -0.076175
C20   C     C_R   0.101545 0.495958 0.219539 -0.154662
C21   C     C_R   0.894040 0.505028 0.784038 -0.185748
C22   C     C_R   0.151661 0.496661 0.317001 -0.126241
C23   C     C_R   0.493933 0.466118 0.188708 -0.086414
C24   C     C_R   0.845845 0.502174 0.686063 -0.130888
C25   C     C_R   0.075200 0.498928 0.409436 0.057062
C26   C     C_R   0.923533 0.501398 0.594479 0.053771
C27   C     C_R   0.945397 0.499327 0.401486 0.067095
C28   C     C_R   0.053344 0.502841 0.603154 0.028017
C29   C     C_R   0.127534 0.500589 0.508823 -0.161169
C30   C     C_R   0.871839 0.500132 0.495162 -0.174432
C31   C     C_R   0.502504 0.534087 0.811431 -0.051397
C32   C     C_R   0.509121 0.649104 0.968574 -0.207620
C33   C     C_R   0.484445 0.351374 0.031666 -0.202872
C34   C     C_R   0.510214 0.639478 0.861190 -0.179853
C35   C     C_R   0.485298 0.360810 0.139027 -0.189703
C36   C     C_R   0.493708 0.438439 0.868185 -0.267662
Cl1   Cl    Cl    0.278076 0.014899 0.317066 -0.653680
Cl2   Cl    Cl    0.721761 0.985125 0.683076 -0.653914
H1    H     H_    0.832637 0.505640 0.852468 0.152347
H2    H     H_    0.517345 0.713824 0.817371 0.183106
H3    H     H_    0.515303 0.730734 0.007044 0.158393
H4    H     H_    0.478150 0.269747 0.993225 0.158336
H5    H     H_    0.388409 0.184738 0.407890 0.201324
H6    H     H_    0.611626 0.815258 0.592082 0.200881
H7    H     H_    0.750383 0.426046 0.237442 0.187184
H8    H     H_    0.738550 0.567715 0.242798 0.189718
H9    H     H_    0.275924 0.438715 0.698625 0.208424
H10   H     H_    0.260370 0.584359 0.696562 0.202717
H11   H     H_    0.772375 0.208579 0.629768 0.220324
H12   H     H_    0.161982 0.494495 0.150460 0.156165
H13   H     H_    0.659587 0.219792 0.725726 0.198321
H14   H     H_    0.339910 0.780329 0.274449 0.198592
H15   H     H_    0.227424 0.791432 0.370631 0.220468
H16   H     H_    0.935765 0.496033 0.134199 0.137845
H17   H     H_    0.057650 0.511078 0.871272 0.147847
H18   H     H_    0.251547 0.495384 0.318344 0.141697
H19   H     H_    0.746301 0.500819 0.683615 0.138139
H20   H     H_    0.507456 0.643610 0.170308 0.168549
H21   H     H_    0.486914 0.356820 0.829723 0.166970
H22   H     H_    0.479472 0.286341 0.182867 0.184676
N1    N     N_R   0.523130 0.207800 0.519340 -0.130139
N2    N     N_R   0.476870 0.792200 0.480660 -0.129999
N3    N     N_3   0.765188 0.497417 0.283886 -0.458308
N4    N     N_3   0.228450 0.512578 0.728120 -0.473874
N5    N     N_3   0.678384 0.231883 0.647064 -0.380568
N6    N     N_3   0.321377 0.768152 0.353129 -0.379353
O1    O     O_R   0.506170 0.421700 0.658830 -0.620545
O2    O     O_R   0.493830 0.578300 0.341170 -0.606646
O3    O     O_R   0.491330 0.609310 0.646410 -0.632330
O4    O     O_R   0.508670 0.390690 0.353590 -0.621382
O5    O     O_R   0.690650 0.406190 0.506220 -0.598612
O6    O     O_R   0.309350 0.593810 0.493780 -0.600163
O7    O     O_R   0.675800 0.593810 0.493800 -0.609725
O8    O     O_R   0.324200 0.406190 0.506200 -0.618124
Zn1   Zn    Zn3+2 0.509910 0.374730 0.508290 0.966538
Zn2   Zn    Zn3+2 0.490090 0.625270 0.491710 0.968105

loop_
_geom_bond_atom_site_label_1
_geom_bond_atom_site_label_2
_ccdc_geom_bond_type
C5    Cl1   S    
C14   O5    A    
O6    Zn2   S    
C36   H21   S    
N1    Zn1   S    
C15   O6    A    
C12   O2    A    
C12   C23   S    
H11   N5    S    
C34   H2    S    
C33   H4    S    
C28   C29   A    
C19   C21   A    
C24   C26   A    
C17   N4    S    
H10   N4    S    
C3    C33   A    
C1    C31   S    
O3    Zn2   S    
H13   N5    S    
C20   H12   S    
C17   C19   A    
C24   H19   S    
C22   C25   A    
C32   H3    S    
C6    Cl2   S    
C16   N3    S    
C5    C13   A    
C8    N1    A    
C16   C27   A    
C8    N5    S    
C27   C30   A    
N2    Zn2   S    
C14   C30   S    
C15   C29   S    
C25   C29   A    
O8    Zn1   S    
C9    N2    A    
C14   O7    A    
H9    N4    S    
C5    C7    A    
C22   H18   S    
H7    N3    S    
C1    O3    A    
C35   H22   S    
C32   C34   A    
C2    C4    A    
C7    N2    A    
C21   H1    S    
C2    C23   A    
C31   C34   A    
O2    Zn2   S    
H15   N6    S    
C9    C11   A    
C4    C32   A    
C20   C22   A    
C26   C30   A    
C23   C35   A    
O7    Zn2   S    
C10   N1    A    
O1    Zn1   S    
C3    C4    A    
C6    C11   A    
H14   N6    S    
C19   H17   S    
C12   O4    A    
C9    H6    S    
C10   H5    S    
C17   C28   A    
C10   C13   A    
C6    C8    A    
C2    H20   S    
C1    O1    A    
C25   C27   A    
C26   C28   A    
H8    N3    S    
C7    N6    S    
O5    Zn1   S    
C11   C13   A    
C3    C36   A    
C33   C35   A    
C18   C20   A    
C18   H16   S    
C15   O8    A    
C16   C18   A    
C21   C24   A    
O4    Zn1   S    
C31   C36   A    
