data_mof_unit_25303.cif
_audit_creation_date              2012-12-11T14:21:01-0500
_audit_creation_method            fapswitch 2.2
_symmetry_space_group_name_H-M    P1
_symmetry_Int_Tables_number       1
_space_group_crystal_system       triclinic
_cell_length_a                    21.956332
_cell_length_b                    7.207828
_cell_length_c                    14.890001
_cell_angle_alpha                 90.000585
_cell_angle_beta                  107.251877
_cell_angle_gamma                 90.000814
_cell_volume                      2250.43748878

loop_
_atom_site_label
_atom_site_type_symbol
_atom_type_description
_atom_site_fract_x
_atom_site_fract_y
_atom_site_fract_z
_atom_type_partial_charge
O1    O     O_R   0.584770 0.505770 0.002090 -0.536779
O2    O     O_R   0.415230 0.005770 0.997910 -0.536778
O3    O     O_R   0.467060 0.173340 0.861950 -0.535933
O4    O     O_R   0.532940 0.673340 0.138050 -0.535937
C1    C     C_R   0.454849 0.344514 0.825790 0.706646
C2    C     C_R   0.545149 0.844516 0.174210 0.706650
O5    O     O_R   0.587510 0.175890 0.993210 -0.540935
O6    O     O_R   0.412490 0.675890 0.006790 -0.540940
O7    O     O_R   0.536540 0.008150 0.130100 -0.529156
O8    O     O_R   0.463460 0.508150 0.869900 -0.529151
C3    C     C_R   0.612458 0.344954 0.995727 0.739659
C4    C     C_R   0.387542 0.844952 0.004273 0.739669
O9    O     O_3   0.483140 0.340040 0.044760 -0.379949
O10   O     O_3   0.516860 0.840040 0.955240 -0.379944
V1    V     V_3+5 0.503130 0.064190 0.991700 1.513744
V2    V     V_3+5 0.496870 0.564190 0.008300 1.513732
C5    C     C_2   0.215858 0.739102 0.009480 -0.144705
C6    C     C_2   0.784138 0.239108 0.990502 -0.144716
C7    C     C_2   0.176366 0.885931 0.980392 0.155115
C8    C     C_2   0.823635 0.385924 0.019609 0.155117
H1    H     H_    0.199436 0.621754 0.041793 0.139906
H2    H     H_    0.800555 0.121776 0.958173 0.139926
C9    C     C_2   0.280597 0.720194 0.997742 -0.024750
C10   C     C_2   0.719399 0.220194 0.002241 -0.024765
C11   C     C_2   0.322546 0.861098 0.013200 -0.256576
C12   C     C_2   0.677454 0.361105 0.986802 -0.256574
H3    H     H_    0.295266 0.582808 0.982486 0.173326
H4    H     H_    0.704725 0.082799 0.017478 0.173322
H5    H     H_    0.309281 0.995169 0.034729 0.175610
H6    H     H_    0.690724 0.495186 0.965290 0.175621
C13   C     C_R   0.926268 0.891129 0.722773 -0.077502
C14   C     C_R   0.073729 0.391151 0.277230 -0.077495
C15   C     C_R   0.573335 0.857421 0.276092 -0.107582
C16   C     C_R   0.426661 0.357413 0.723907 -0.107583
C17   C     C_R   0.937689 0.959196 0.569938 -0.059336
C18   C     C_R   0.062316 0.459401 0.430055 -0.059331
C19   C     C_R   0.964174 0.941648 0.666565 -0.162849
C20   C     C_R   0.035831 0.441802 0.333429 -0.162826
C21   C     C_R   0.860593 0.860449 0.681939 0.202745
C22   C     C_R   0.139399 0.360402 0.318071 0.202754
C23   C     C_R   0.831300 0.908916 0.585678 0.001736
C24   C     C_R   0.168697 0.408933 0.414322 0.001737
C25   C     C_R   0.871266 0.945100 0.528004 -0.050215
C26   C     C_R   0.128735 0.445242 0.471992 -0.050203
C27   C     C_R   0.764068 0.924840 0.545265 0.033414
C28   C     C_R   0.235931 0.424813 0.454730 0.033431
C29   C     C_R   0.736833 0.928601 0.445894 -0.068872
C30   C     C_R   0.263167 0.428630 0.554101 -0.068867
C31   C     C_R   0.777629 0.969744 0.389828 0.346918
C32   C     C_R   0.222375 0.469878 0.610164 0.346921
C33   C     C_R   0.844220 0.975184 0.430622 0.253682
C34   C     C_R   0.155784 0.475385 0.569369 0.253691
C35   C     C_R   0.723845 0.961771 0.601269 -0.083816
C36   C     C_R   0.276156 0.461652 0.398715 -0.083813
C37   C     C_R   0.658064 0.969043 0.563093 -0.111331
C38   C     C_R   0.341938 0.468920 0.436892 -0.111330
C39   C     C_R   0.629568 0.935202 0.467400 0.054603
C40   C     C_R   0.370432 0.435143 0.532592 0.054609
C41   C     C_R   0.669107 0.908062 0.408108 0.083481
C42   C     C_R   0.330891 0.408057 0.591889 0.083485
C43   C     C_R   0.562382 0.930584 0.429120 0.347960
C44   C     C_R   0.437618 0.430539 0.570876 0.347962
C45   C     C_R   0.534969 0.897021 0.333320 -0.162208
C46   C     C_R   0.465030 0.396988 0.666677 -0.162194
C47   C     C_R   0.639581 0.854289 0.314173 -0.123883
C48   C     C_R   0.360415 0.354317 0.685829 -0.123862
H7    H     H_    0.667319 0.807811 0.269504 0.180442
H8    H     H_    0.332674 0.307887 0.730504 0.180439
H9    H     H_    0.483583 0.901358 0.303387 0.145141
H10   H     H_    0.516416 0.401324 0.696610 0.145143
H11   H     H_    0.629971 0.998757 0.609972 0.177597
H12   H     H_    0.370032 0.498580 0.390005 0.177588
H13   H     H_    0.969867 0.992117 0.529665 0.183025
H14   H     H_    0.030141 0.492419 0.470322 0.183014
H15   H     H_    0.014829 0.965338 0.697668 0.167890
H16   H     H_    0.985179 0.465554 0.302321 0.167877
H17   H     H_    0.743027 0.997986 0.674601 0.165494
H18   H     H_    0.256976 0.497805 0.325373 0.165480
O11   O     O_R   0.036450 0.233070 0.130130 -0.518444
O12   O     O_R   0.963550 0.733070 0.869870 -0.518460
O13   O     O_R   0.912470 0.560570 0.006790 -0.511162
O14   O     O_R   0.087530 0.060570 0.993210 -0.511167
C49   C     C_R   0.887681 0.391853 0.005471 0.698641
C50   C     C_R   0.112319 0.891855 0.994529 0.698655
O15   O     O_R   0.032920 0.562940 0.138050 -0.543863
O16   O     O_R   0.967080 0.062940 0.861950 -0.543861
O17   O     O_R   0.084790 0.730500 0.002090 -0.552234
O18   O     O_R   0.915210 0.230500 0.997910 -0.552226
C51   C     C_R   0.045561 0.394707 0.174741 0.737724
C52   C     C_R   0.954439 0.894703 0.825260 0.737749
O19   O     O_3   0.016820 0.396170 0.955260 -0.371638
O20   O     O_3   0.983180 0.896170 0.044740 -0.371617
V3    V     V_3+5 0.996880 0.672090 0.008300 1.594597
V4    V     V_3+5 0.003120 0.172090 0.991700 1.594591
Br1   Br    Br    0.816939 0.718709 0.754958 -0.575594
Br2   Br    Br    0.183035 0.218496 0.245088 -0.575563
Cl1   Cl    Cl    0.747513 0.064080 0.274932 -0.571302
Cl2   Cl    Cl    0.252505 0.564246 0.725055 -0.571322
Br3   Br    Br    0.505240 0.972542 0.503086 -0.491253
Br4   Br    Br    0.494762 0.472524 0.496914 -0.491259
Br5   Br    Br    0.195456 0.085184 0.906114 -0.445113
Br6   Br    Br    0.804554 0.585143 0.093916 -0.445040
Br7   Br    Br    0.897835 0.027374 0.350942 -0.442194
Br8   Br    Br    0.102172 0.527757 0.649039 -0.442260

loop_
_geom_bond_atom_site_label_1
_geom_bond_atom_site_label_2
_ccdc_geom_bond_type
C40   C44   A    
C48   H8    S    
O14   V4    S    
O1    C3    A    
C50   O17   A    
O2    C4    A    
C16   C48   A    
C2    O7    A    
C15   C47   A    
C21   C23   A    
C20   H16   S    
O5    C3    A    
C5    C9    S    
C6    C10   S    
C17   C19   A    
C10   C12   D    
C39   C41   A    
C8    Br6   S    
C33   Br7   S    
C24   C28   A    
C27   C29   A    
C43   C45   A    
C44   C46   A    
O16   V4    S    
O15   V3    S    
C34   Br8   S    
C45   H9    S    
C13   C21   A    
C47   H7    S    
C32   C34   A    
C14   C20   A    
C17   C25   A    
O6    C4    A    
C26   C34   A    
C30   C32   A    
C49   O18   A    
C19   H15   S    
C42   C48   A    
O6    V2    S    
C23   C25   A    
C43   Br3   S    
C24   C26   A    
C22   Br2   S    
O13   C49   A    
C30   C42   A    
C28   C30   A    
C9    H3    S    
C35   C37   A    
C11   H5    S    
C36   C38   A    
C32   Cl2   S    
O11   V4    S    
C29   C31   A    
O16   C52   A    
C31   C33   A    
O15   C51   A    
O5    V1    S    
C3    C12   S    
C38   H12   S    
C31   Cl1   S    
C27   C35   A    
C5    H1    S    
C13   C19   A    
O4    V2    S    
C35   H17   S    
O13   V3    S    
C14   C51   S    
C15   C45   A    
C13   C52   S    
C1    C16   S    
C28   C36   A    
C16   C46   A    
O1    V2    S    
O2    V1    S    
C21   Br1   S    
C18   H14   S    
C44   Br4   S    
O4    C2    A    
C12   H6    S    
C46   H10   S    
C37   C39   A    
C18   C26   A    
C7    C50   S    
C14   C22   A    
O3    V1    S    
C17   H13   S    
C6    H2    S    
C10   H4    S    
O3    C1    A    
C8    C49   S    
C39   C43   A    
O14   C50   A    
C2    C15   S    
C4    C11   S    
C18   C20   A    
O7    V1    S    
C1    O8    A    
O8    V2    S    
C41   C47   A    
O19   V4    S    
C7    Br5   S    
C25   C33   A    
O17   V3    S    
C22   C24   A    
O20   V3    S    
C5    C7    D    
C38   C40   A    
C6    C8    D    
C9    C11   D    
O12   C52   A    
O11   C51   A    
C29   C41   A    
O9    V2    S    
O18   V4    S    
C23   C27   A    
O10   V1    S    
O12   V3    S    
C40   C42   A    
C37   H11   S    
C36   H18   S    
