data_mof_unit_9155.cif
_audit_creation_date              2012-12-10T17:17:31-0500
_audit_creation_method            fapswitch 2.2
_symmetry_space_group_name_H-M    P1
_symmetry_Int_Tables_number       1
_space_group_crystal_system       triclinic
_cell_length_a                    10.228423
_cell_length_b                    10.773502
_cell_length_c                    12.208989
_cell_angle_alpha                 92.055592
_cell_angle_beta                  109.079154
_cell_angle_gamma                 94.314642
_cell_volume                      1265.26086244

loop_
_atom_site_label
_atom_site_type_symbol
_atom_type_description
_atom_site_fract_x
_atom_site_fract_y
_atom_site_fract_z
_atom_type_partial_charge
C1    C     C_R   0.047654 0.731676 0.489069 0.968636
C2    C     C_R   0.204948 0.518129 0.840711 -0.218709
C3    C     C_2   0.068046 0.862332 0.476602 -0.463130
C4    C     C_R   0.133131 0.509503 0.715004 0.875807
C5    C     C_2   0.960178 0.926042 0.421557 0.443069
C6    C     C_2   0.914258 0.130901 0.483240 0.142607
C7    C     C_2   0.989235 0.061836 0.433631 0.238159
C8    C     C_2   0.429362 0.516499 0.508350 0.479199
C9    C     C_2   0.570323 0.481013 0.503817 -0.270273
C10   C     C_R   0.948329 0.266130 0.502746 0.831117
C11   C     C_R   0.865771 0.484615 0.285413 0.934995
C12   C     C_R   0.423018 0.497189 0.993453 0.136303
C13   C     C_R   0.719891 0.313774 0.991281 0.379648
C14   C     C_R   0.788465 0.456366 0.162778 -0.246394
C15   C     C_R   0.165819 0.602761 0.913415 0.479944
C16   C     C_R   0.257394 0.632326 0.026915 -0.307246
C17   C     C_R   0.382740 0.580346 0.066197 -0.265762
C18   C     C_3   0.040806 0.373003 0.084292 0.163692
C19   C     C_3   0.165084 0.297689 0.101083 -0.861807
C20   C     C_3   0.757987 0.933323 0.263461 0.124058
C21   C     C_3   0.647033 0.847540 0.173723 -0.871771
C22   C     C_3   0.824110 0.056056 0.618075 0.124313
C23   C     C_R   0.325767 0.455251 0.885164 0.001855
C24   C     C_3   0.697647 0.984031 0.632723 -0.762410
C25   C     C_3   0.482710 0.627261 0.684076 0.138474
C26   C     C_3   0.437660 0.734287 0.744071 -0.817620
C27   C     C_3   0.717480 0.101964 0.962396 0.149773
C28   C     C_3   0.842435 0.026117 0.988006 -0.866472
C29   C     C_3   0.981656 0.693123 0.950919 0.102108
C30   C     C_3   0.825973 0.687392 0.892464 -0.858567
C31   C     C_3   0.128378 0.076227 0.316074 0.078545
C32   C     C_3   0.281033 0.068285 0.330574 -0.825009
C33   C     C_R   0.556802 0.454165 0.025046 0.051974
C34   C     C_R   0.586516 0.357897 0.956755 -0.030070
C35   C     C_R   0.481512 0.305730 0.857350 -0.214307
C36   C     C_R   0.352471 0.352569 0.822838 -0.217084
C37   C     C_R   0.662178 0.506064 0.122956 -0.358064
C38   C     C_R   0.822430 0.364781 0.094118 0.357112
H1    H     H_    0.171929 0.908348 0.518370 0.161374
H2    H     H_    0.827744 0.976241 0.219106 0.101527
H3    H     H_    0.705184 0.007427 0.292914 0.198150
H4    H     H_    0.579849 0.796865 0.215856 0.268889
H5    H     H_    0.581751 0.902923 0.105170 0.206318
H6    H     H_    0.696921 0.780859 0.132369 0.242451
H7    H     H_    0.846187 0.145828 0.671724 0.154342
H8    H     H_    0.914107 0.999001 0.649682 0.132339
H9    H     H_    0.672481 0.894634 0.578764 0.264956
H10   H     H_    0.718845 0.963078 0.724798 0.193557
H11   H     H_    0.606829 0.040016 0.605551 0.251159
H12   H     H_    0.323460 0.364929 0.413097 0.118140
H13   H     H_    0.573582 0.390624 0.463110 0.160447
H14   H     H_    0.596168 0.640675 0.708582 0.117433
H15   H     H_    0.456254 0.538004 0.717868 0.171106
H16   H     H_    0.322831 0.727734 0.719647 0.257460
H17   H     H_    0.483408 0.730808 0.839790 0.210361
H18   H     H_    0.473928 0.824890 0.718271 0.240070
H19   H     H_    0.677301 0.644063 0.568745 0.199509
H20   H     H_    0.630700 0.051853 0.890538 0.137081
H21   H     H_    0.684092 0.105405 0.040923 0.110825
H22   H     H_    0.926904 0.068568 0.065445 0.258824
H23   H     H_    0.498898 0.229875 0.804680 0.175810
H24   H     H_    0.812669 0.929945 0.006054 0.207108
H25   H     H_    0.881188 0.022545 0.913110 0.257353
H26   H     H_    0.021174 0.789410 0.989117 0.150125
H27   H     H_    0.999131 0.627512 0.021299 0.107638
H28   H     H_    0.786980 0.591520 0.853142 0.254021
H29   H     H_    0.774671 0.708795 0.957314 0.207432
H30   H     H_    0.800995 0.756004 0.824550 0.255225
H31   H     H_    0.443598 0.604363 0.155632 0.164478
H32   H     H_    0.235033 0.699040 0.085263 0.142638
H33   H     H_    0.273867 0.307859 0.746227 0.167962
H34   H     H_    0.646620 0.582286 0.175003 0.198031
H35   H     H_    0.086906 0.148379 0.255374 0.214791
H36   H     H_    0.072669 0.984832 0.275444 0.113338
H37   H     H_    0.322245 0.992713 0.388151 0.263613
H38   H     H_    0.292565 0.047467 0.244619 0.208349
H39   H     H_    0.342680 0.157573 0.369301 0.247314
H40   H     H_    0.079767 0.466579 0.129273 0.141232
H41   H     H_    0.991925 0.382399 0.989137 0.159616
H42   H     H_    0.130187 0.199830 0.066372 0.252541
H43   H     H_    0.232099 0.338240 0.053942 0.230261
H44   H     H_    0.227397 0.299671 0.194584 0.243980
N1    N     N_2   0.313640 0.446500 0.454900 -0.206023
N2    N     N_2   0.686360 0.553430 0.545150 -0.177575
O1    O     O_R   0.936910 0.692950 0.509080 -0.560518
O2    O     O_3   0.830202 0.864777 0.358268 -0.576314
O3    O     O_3   0.794917 0.077847 0.499681 -0.624379
O4    O     O_3   0.420172 0.629409 0.562536 -0.578161
O5    O     O_3   0.751044 0.220001 0.925898 -0.615708
O6    O     O_3   0.044303 0.661433 0.867220 -0.598394
O7    O     O_3   0.115497 0.110983 0.424782 -0.606385
O8    O     O_R   0.138320 0.658600 0.480130 -0.569251
O9    O     O_R   0.002900 0.525670 0.675280 -0.554906
O10   O     O_R   0.204310 0.491320 0.646330 -0.614960
O11   O     O_R   0.861680 0.341400 0.519870 -0.600063
O12   O     O_R   0.063090 0.307050 0.490920 -0.564694
O13   O     O_R   0.795690 0.508680 0.353670 -0.599360
O14   O     O_R   0.997100 0.474330 0.324720 -0.591466
O15   O     O_3   0.947823 0.313060 0.133636 -0.615876
Zn1   Zn    Zn3+2 0.865520 0.522940 0.519330 0.992574
Zn2   Zn    Zn3+2 0.134480 0.477060 0.480670 0.995591

loop_
_geom_bond_atom_site_label_1
_geom_bond_atom_site_label_2
_ccdc_geom_bond_type
C17   H31   S    
C8    N1    D    
C35   C36   A    
C9    H13   S    
C26   H17   S    
C32   H37   S    
C20   H3    S    
C12   C23   A    
C11   O14   A    
C25   H15   S    
C18   C19   S    
C20   H2    S    
C11   C14   S    
C31   H35   S    
C15   C16   A    
C34   C35   A    
C32   H39   S    
C21   H5    S    
O10   Zn2   S    
C8    C9    S    
C20   O2    S    
C12   C17   A    
C19   H44   S    
C30   H29   S    
C36   H33   S    
C29   H26   S    
C3    H1    S    
O12   Zn2   S    
C26   H16   S    
C29   O6    S    
H12   N1    S    
C28   H22   S    
C1    O1    A    
N2    Zn1   S    
C16   H32   S    
C5    C7    S    
O11   Zn1   S    
C18   H41   S    
C31   H36   S    
C25   C26   S    
C25   O4    S    
C33   C37   A    
C6    O3    S    
C4    O9    A    
C8    O4    S    
C24   H10   S    
C2    C4    S    
C32   H38   S    
C29   C30   S    
C14   C38   A    
C21   H6    S    
C31   C32   S    
C10   O12   A    
C18   H40   S    
C7    O7    S    
C33   C34   A    
H19   N2    S    
C35   H23   S    
C22   O3    S    
C2    C15   A    
O9    Zn1   S    
C13   C38   A    
C30   H28   S    
O8    Zn2   S    
C29   H27   S    
C5    O2    S    
C22   H8    S    
C1    O8    A    
C31   O7    S    
C4    O10   A    
C18   O15   S    
C2    C23   A    
O13   Zn1   S    
C24   H11   S    
N1    Zn2   S    
C13   O5    S    
C24   H9    S    
C38   O15   S    
C3    C5    D    
C27   H20   S    
C26   H18   S    
C6    C10   S    
C6    C7    D    
O14   Zn2   S    
C11   O13   A    
C25   H14   S    
C13   C34   A    
O1    Zn1   S    
C27   H21   S    
C15   O6    S    
C16   C17   A    
C10   O11   A    
C27   O5    S    
C22   C24   S    
C19   H42   S    
C9    N2    D    
C21   H4    S    
C28   H25   S    
C22   H7    S    
C20   C21   S    
C23   C36   A    
C37   H34   S    
C27   C28   S    
C1    C3    S    
C12   C33   A    
C19   H43   S    
C30   H30   S    
C14   C37   A    
C28   H24   S    
