data_mof_unit_39276.cif
_audit_creation_date              2012-12-11T15:48:07-0500
_audit_creation_method            fapswitch 2.2
_symmetry_space_group_name_H-M    P1
_symmetry_Int_Tables_number       1
_space_group_crystal_system       triclinic
_cell_length_a                    6.929263
_cell_length_b                    17.595757
_cell_length_c                    19.444789
_cell_angle_alpha                 108.578923
_cell_angle_beta                  89.657886
_cell_angle_gamma                 90.479604
_cell_volume                      2247.17215056

loop_
_atom_site_label
_atom_site_type_symbol
_atom_type_description
_atom_site_fract_x
_atom_site_fract_y
_atom_site_fract_z
_atom_type_partial_charge
O1    O     O_R   0.494330 0.415710 0.413720 -0.540606
O2    O     O_R   0.819360 0.430070 0.560210 -0.549035
O3    O     O_R   0.994320 0.584290 0.586280 -0.525954
C1    C     C_R   0.650487 0.415659 0.582276 0.701104
O4    O     O_R   0.823740 0.406290 0.412670 -0.512879
O5    O     O_R   0.998730 0.560340 0.437690 -0.537456
C2    C     C_R   0.654781 0.382589 0.385377 0.759291
O6    O     O_R   0.489920 0.439660 0.562310 -0.544158
O7    O     O_3   0.662330 0.550570 0.508380 -0.372639
V1    V     V_3+5 0.935370 0.490620 0.498440 1.451914
O8    O     O_R   0.328720 0.569930 0.439790 -0.545266
C3    C     C_R   0.160565 0.585154 0.418194 0.721887
O9    O     O_R   0.324340 0.593710 0.587330 -0.558100
C4    C     C_R   0.155071 0.617233 0.615009 0.750458
V2    V     V_3+5 0.435940 0.509380 0.501560 1.393949
O10   O     O_3   0.159110 0.449430 0.491620 -0.365355
C5    C     C_R   0.277221 0.692452 0.739360 -0.329909
H1    H     H_    0.389281 0.647996 0.731992 0.142504
C6    C     C_R   0.266536 0.755296 0.805557 0.479813
C7    C     C_R   0.120676 0.813698 0.816759 -0.183504
C8    C     C_R   0.986224 0.806798 0.761347 -0.276585
H2    H     H_    0.877972 0.852749 0.768386 0.150253
C9    C     C_R   0.995219 0.743162 0.695282 0.463982
C10   C     C_R   0.143414 0.685741 0.683732 -0.188917
C11   C     C_R   0.307806 0.634170 0.321484 -0.223540
C12   C     C_R   0.152934 0.634572 0.368873 -0.084245
C13   C     C_R   0.989845 0.681591 0.368200 -0.207547
C14   C     C_R   0.981715 0.728376 0.321613 0.085287
C15   C     C_R   0.136483 0.726723 0.273625 0.053501
C16   C     C_R   0.299518 0.679038 0.273274 0.091692
C17   C     C_R   0.821575 0.776921 0.322171 -0.183312
C18   C     C_R   0.813541 0.822659 0.275048 -0.182287
C19   C     C_R   0.965187 0.820551 0.226285 0.090410
C20   C     C_R   0.128131 0.772791 0.225864 0.054224
C21   C     C_R   0.282832 0.771094 0.177832 0.090699
C22   C     C_R   0.442916 0.722512 0.177243 -0.189376
C23   C     C_R   0.451077 0.676869 0.224451 -0.184583
C24   C     C_R   0.957079 0.865575 0.178217 -0.216287
C25   C     C_R   0.111892 0.865140 0.130813 -0.076415
C26   C     C_R   0.274725 0.817915 0.131276 -0.225663
H3    H     H_    0.433393 0.597703 0.321163 0.121544
H4    H     H_    0.870216 0.682616 0.404682 0.136064
H5    H     H_    0.701696 0.779168 0.358796 0.138293
H6    H     H_    0.687776 0.859311 0.276416 0.136122
H7    H     H_    0.831670 0.902180 0.178654 0.118355
H8    H     H_    0.394195 0.816817 0.094707 0.125228
H9    H     H_    0.562712 0.720214 0.140569 0.133775
H10   H     H_    0.576877 0.640243 0.223103 0.133757
C27   C     C_R   0.755410 0.193397 0.877345 -0.302826
C28   C     C_R   0.620120 0.131192 0.866714 -0.171321
C29   C     C_R   0.487069 0.115780 0.808841 0.393990
C30   C     C_R   0.500974 0.159448 0.759127 0.029281
C31   C     C_R   0.634463 0.223641 0.771615 0.014342
C32   C     C_R   0.760591 0.240560 0.831251 0.040664
C33   C     C_R   0.384686 0.139960 0.697032 -0.197026
C34   C     C_R   0.391922 0.185659 0.650383 -0.165450
C35   C     C_R   0.517010 0.252138 0.663825 0.121264
C36   C     C_R   0.641051 0.271076 0.724645 -0.102230
C37   C     C_R   0.769568 0.337486 0.739153 -0.014367
C38   C     C_R   0.898902 0.352172 0.798723 0.499202
C39   C     C_R   0.891252 0.304271 0.844063 -0.280106
C40   C     C_R   0.518656 0.299570 0.617529 0.100721
C41   C     C_R   0.643168 0.366921 0.632163 -0.185727
C42   C     C_R   0.766227 0.386598 0.693661 0.132490
H11   H     H_    0.854215 0.206185 0.922738 0.134685
H12   H     H_    0.287242 0.088988 0.683851 0.166516
H13   H     H_    0.297029 0.168684 0.603837 0.166076
H14   H     H_    0.988681 0.317501 0.889871 0.138533
C43   C     C_R   0.788599 0.253646 0.300294 0.496743
C44   C     C_R   0.779874 0.189893 0.234678 0.077436
C45   C     C_R   0.622720 0.183313 0.186006 -0.266470
C46   C     C_R   0.476945 0.242336 0.205219 0.467691
C47   C     C_R   0.487171 0.305083 0.271082 -0.272996
H15   H     H_    0.373181 0.349249 0.284427 0.173035
C48   C     C_R   0.644015 0.312809 0.318081 -0.277531
O11   O     O_R   0.774940 0.060470 0.937800 -0.554285
O12   O     O_R   0.440880 0.093730 0.087350 -0.514212
O13   O     O_R   0.266130 0.939630 0.062280 -0.541278
C49   C     C_R   0.610036 0.115947 0.116134 0.739985
O14   O     O_R   0.445480 0.069960 0.939820 -0.530761
O15   O     O_R   0.270770 0.915690 0.913690 -0.507239
C50   C     C_R   0.613946 0.083866 0.917397 0.754406
O16   O     O_R   0.770300 0.084410 0.086380 -0.553203
O17   O     O_3   0.602600 0.949510 0.991670 -0.361094
V3    V     V_3+5 0.329470 0.009370 0.001550 1.486573
O18   O     O_R   0.940760 0.906160 0.912560 -0.544603
C51   C     C_R   0.110021 0.882769 0.884950 0.753377
O19   O     O_R   0.936150 0.929930 0.060100 -0.548084
C52   C     C_R   0.104312 0.914698 0.081657 0.696803
V4    V     V_3+5 0.828930 0.990450 0.998310 1.419297
O20   O     O_3   0.105670 0.050490 0.008320 -0.376120
O21   O     O_3   0.354032 0.053849 0.798110 -0.561116
C53   C     C_3   0.172686 0.086462 0.825297 -0.189819
H16   H     H_    0.073884 0.036605 0.825515 0.156149
H17   H     H_    0.106918 0.118254 0.790365 0.128126
H18   H     H_    0.181619 0.127980 0.881977 0.130841
N1    N     N_3   0.393958 0.278007 0.555351 -0.688277
H19   H     H_    0.475746 0.273072 0.508808 0.224014
H20   H     H_    0.290398 0.322646 0.562154 0.249167
N2    N     N_3   0.881610 0.458519 0.712032 -0.600710
H21   H     H_    0.794363 0.507147 0.713262 0.211618
H22   H     H_    0.990681 0.452099 0.673332 0.234299
O22   O     O_3   0.029406 0.415229 0.815384 -0.531750
C54   C     C_3   0.210976 0.385321 0.786545 -0.202379
H23   H     H_    0.268200 0.342346 0.812653 0.126240
H24   H     H_    0.203655 0.356708 0.726670 0.139808
H25   H     H_    0.314558 0.436165 0.797474 0.161750
O23   O     O_3   0.404515 0.760833 0.857983 -0.547288
C55   C     C_3   0.338965 0.716975 0.902983 -0.220801
H26   H     H_    0.320721 0.652233 0.871791 0.143852
H27   H     H_    0.201871 0.741822 0.931048 0.112042
H28   H     H_    0.448866 0.721813 0.945453 0.156197
O24   O     O_3   0.945398 0.259281 0.345481 -0.527553
C56   C     C_3   0.898551 0.220191 0.396493 -0.153018
H29   H     H_    0.867051 0.155406 0.369443 0.135121
H30   H     H_    0.774765 0.249380 0.431338 0.084850
H31   H     H_    0.024572 0.224529 0.432509 0.158969
N3    N     N_3   0.930901 0.131516 0.220648 -0.614940
H32   H     H_    0.014254 0.135037 0.176819 0.284009
H33   H     H_    0.870123 0.074269 0.209328 0.209369
O25   O     O_3   0.319328 0.237969 0.160840 -0.538994
C57   C     C_3   0.357674 0.285521 0.116036 -0.229859
H34   H     H_    0.487937 0.264311 0.081643 0.110443
H35   H     H_    0.374153 0.349907 0.148590 0.125418
H36   H     H_    0.233342 0.280360 0.079101 0.152737
O26   O     O_3   0.874572 0.742325 0.638564 -0.558958
C58   C     C_3   0.684591 0.725168 0.655530 -0.148340
H37   H     H_    0.677481 0.667783 0.668172 0.124693
H38   H     H_    0.592538 0.718212 0.607418 0.163976
H39   H     H_    0.623705 0.775010 0.700951 0.133449

loop_
_geom_bond_atom_site_label_1
_geom_bond_atom_site_label_2
_ccdc_geom_bond_type
C33   C34   A    
O26   C58   S    
C46   O25   S    
C47   H15   S    
C21   C22   A    
C39   H14   S    
C1    O6    A    
O14   V3    S    
C45   C49   S    
N1    H19   S    
V3    O20   S    
C35   C40   A    
C31   C32   A    
C34   C35   A    
C26   H8    S    
C1    C41   S    
C43   O24   S    
C12   C13   A    
C40   C41   A    
C17   H5    S    
C14   C15   A    
C55   H27   S    
O5    C3    A    
C24   C25   A    
C27   C32   A    
C7    C51   S    
O23   C55   S    
C22   H9    S    
C20   C21   A    
C4    C10   S    
N3    H32   S    
N2    H21   S    
C24   H7    S    
O8    V2    S    
C6    C7    A    
C9    C10   A    
C44   C45   A    
O1    V2    S    
C38   O22   S    
O7    V1    S    
C30   C33   A    
C6    O23   S    
O12   V3    S    
C37   C38   A    
C53   H17   S    
O9    C4    A    
C47   C48   A    
O17   V4    S    
C54   H24   S    
C54   H23   S    
N1    H20   S    
C5    H1    S    
C35   C36   A    
O12   C49   A    
O13   C52   A    
C18   H6    S    
C5    C10   A    
C29   C30   A    
O17   V3    S    
O14   C50   A    
O18   V4    S    
C55   H28   S    
O11   C50   A    
C25   C26   A    
O4    C2    A    
O18   C51   A    
C2    C48   S    
C28   C29   A    
C11   C12   A    
C15   C20   A    
C16   C23   A    
C3    C12   S    
C38   C39   A    
O2    C1    A    
C58   H38   S    
C15   C16   A    
C29   O21   S    
C40   N1    S    
C17   C18   A    
C31   C36   A    
N2    H22   S    
C19   C20   A    
C37   C42   A    
C53   H16   S    
O19   C52   A    
C23   H10   S    
O25   C57   S    
O15   C51   A    
O3    C4    A    
C27   H11   S    
C9    O26   S    
O13   V3    S    
O19   V4    S    
O6    V2    S    
C8    C9    A    
C11   H3    S    
C58   H37   S    
O2    V1    S    
O22   C54   S    
C33   H12   S    
C30   C31   A    
C28   C50   S    
O24   C56   S    
C11   C16   A    
O16   V4    S    
C22   C23   A    
O1    C2    A    
C14   C17   A    
C46   C47   A    
O5    V1    S    
C56   H30   S    
O8    C3    A    
C56   H29   S    
C32   C39   A    
C53   H18   S    
C34   H13   S    
C19   C24   A    
C18   C19   A    
C57   H36   S    
O9    V2    S    
C21   C26   A    
C36   C37   A    
C58   H39   S    
O4    V1    S    
O3    V1    S    
V1    O10   S    
C55   H26   S    
C49   O16   A    
C13   H4    S    
V4    O20   S    
C44   N3    S    
O21   C53   S    
C5    C6    A    
C43   C48   A    
O7    V2    S    
C43   C44   A    
N3    H33   S    
C56   H31   S    
C41   C42   A    
C42   N2    S    
C45   C46   A    
C7    C8    A    
C27   C28   A    
C13   C14   A    
C57   H34   S    
C8    H2    S    
C57   H35   S    
C25   C52   S    
C54   H25   S    
O15   V3    S    
V2    O10   S    
O11   V4    S    
