data_mof_unit_59212.cif
_audit_creation_date              2012-10-26T20:31:42-0400
_audit_creation_method            fapswitch 2.2
_symmetry_space_group_name_H-M    P1
_symmetry_Int_Tables_number       1
_space_group_crystal_system       triclinic
_cell_length_a                    15.881893
_cell_length_b                    10.811912
_cell_length_c                    9.556712
_cell_angle_alpha                 89.84921
_cell_angle_beta                  90.172471
_cell_angle_gamma                 90.220761
_cell_volume                      1640.99245481

loop_
_atom_site_label
_atom_site_type_symbol
_atom_type_description
_atom_site_fract_x
_atom_site_fract_y
_atom_site_fract_z
_atom_type_partial_charge
Br1   Br    Br    0.091010 0.275182 0.322755 -0.604242
C1    C     C_R   0.501041 0.262458 0.500215 0.545413
C2    C     C_R   0.507699 0.129425 0.501774 0.007690
C3    C     C_R   0.538547 0.065307 0.385185 -0.171234
C4    C     C_R   0.340239 0.499769 0.499864 0.553911
C5    C     C_R   0.538689 0.936294 0.385405 -0.162544
C6    C     C_R   0.507313 0.871049 0.501537 0.010592
C7    C     C_R   0.486654 0.936199 0.622447 0.015929
C8    C     C_3   0.408251 0.930015 0.708471 -0.269549
C9    C     C_3   0.409076 0.070304 0.708903 -0.272577
C10   C     C_R   0.561292 0.561351 0.073555 0.117021
C11   C     C_R   0.445516 0.426558 0.074807 0.375466
C12   C     C_3   0.951221 0.421374 0.624222 -0.214161
C13   C     C_R   0.444782 0.429152 0.924973 -0.001413
C14   C     C_R   0.561755 0.560480 0.926434 0.144909
C15   C     C_3   0.582217 0.694928 0.919301 -0.267025
C16   C     C_R   0.500993 0.737680 0.500003 0.539444
C17   C     C_3   0.580091 0.696361 0.077898 -0.284174
C18   C     C_R   0.659783 0.500023 0.500121 0.544861
C19   C     C_3   0.048776 0.421669 0.624521 -0.201582
C20   C     C_3   0.047840 0.441088 0.359581 0.061122
C21   C     C_3   0.950008 0.440208 0.361796 -0.181970
C22   C     C_1   0.749477 0.499556 0.500386 -0.033085
C23   C     C_3   0.917214 0.498195 0.499300 0.039584
C24   C     C_3   0.082815 0.497034 0.498263 0.073518
C25   C     C_3   0.389132 0.231794 0.114868 -0.017857
C26   C     C_3   0.305702 0.190006 0.051384 -0.380330
C27   C     C_3   0.951966 0.631878 0.510966 -0.226697
C28   C     C_3   0.049523 0.631216 0.510905 -0.250247
C29   C     C_1   0.825041 0.498980 0.500107 -0.076532
C30   C     C_1   0.175038 0.498199 0.498947 -0.025974
C31   C     C_1   0.250586 0.499038 0.499411 -0.000737
C32   C     C_R   0.487047 0.063558 0.622527 0.026904
Cu1   Cu    Cu3+1 0.500000 0.499980 0.640670 0.936004
Cu2   Cu    Cu3+1 0.500000 0.500020 0.359330 0.996944
H1    H     H_    0.927714 0.324449 0.617364 0.134548
H2    H     H_    0.421749 0.110212 0.813797 0.128597
H3    H     H_    0.072213 0.324944 0.621165 0.169585
H4    H     H_    0.398544 0.375873 0.867663 0.122056
H5    H     H_    0.646023 0.712174 0.875763 0.129291
H6    H     H_    0.531195 0.750662 0.871367 0.154252
H7    H     H_    0.642302 0.716589 0.126437 0.127019
H8    H     H_    0.526394 0.750692 0.118900 0.144129
H9    H     H_    0.069198 0.499616 0.270381 0.135763
H10   H     H_    0.925308 0.344202 0.351821 0.166513
H11   H     H_    0.925792 0.493279 0.270265 0.099128
H12   H     H_    0.072125 0.462803 0.724075 0.111629
H13   H     H_    0.073314 0.674271 0.609131 0.124326
H14   H     H_    0.073040 0.688501 0.422191 0.119234
H15   H     H_    0.929029 0.675606 0.608968 0.126116
H16   H     H_    0.398466 0.179530 0.213797 0.170400
H17   H     H_    0.442019 0.205086 0.044623 0.081105
H18   H     H_    0.293487 0.239442 0.951559 0.137395
H19   H     H_    0.307615 0.089081 0.030396 0.104132
H20   H     H_    0.253505 0.209154 0.125167 0.216350
H21   H     H_    0.927952 0.460457 0.724508 0.119762
H22   H     H_    0.928699 0.688800 0.421766 0.123100
H23   H     H_    0.559864 0.114352 0.292784 0.126477
H24   H     H_    0.561043 0.888338 0.293898 0.120533
H25   H     H_    0.353965 0.889815 0.650261 0.140214
H26   H     H_    0.419352 0.889558 0.813832 0.129844
H27   H     H_    0.355122 0.112004 0.651511 0.142905
N1    N     N_R   0.500530 0.500930 0.147930 -0.224129
N2    N     N_R   0.500530 0.500890 0.852020 -0.261610
O1    O     O_R   0.500000 0.319640 0.618810 -0.504363
O2    O     O_R   0.500010 0.319680 0.381230 -0.487252
O3    O     O_R   0.379430 0.499990 0.618840 -0.514159
O4    O     O_R   0.379440 0.500030 0.381260 -0.433220
O5    O     O_R   0.499990 0.680320 0.618770 -0.503847
O6    O     O_R   0.500000 0.680360 0.381190 -0.514537
O7    O     O_R   0.620560 0.499970 0.618740 -0.492177
O8    O     O_R   0.620570 0.500010 0.381160 -0.501274
O9    O     O_3   0.385545 0.359387 0.147892 -0.515215

loop_
_geom_bond_atom_site_label_1
_geom_bond_atom_site_label_2
_ccdc_geom_bond_type
Cu1   O3    S    
C24   C30   S    
C18   C22   S    
C14   N2    A    
C26   H18   S    
C10   C17   S    
Br1   C20   S    
C5    C6    A    
C18   O7    A    
C25   H17   S    
C20   H9    S    
C19   H3    S    
C8    C9    S    
C26   H20   S    
C10   N1    A    
C30   C31   T    
C12   C19   S    
C5    H24   S    
C4    O3    A    
C4    C31   S    
C13   N2    A    
C1    O1    A    
Cu1   N2    S    
C1    C2    S    
C18   O8    A    
C26   H19   S    
C6    C7    A    
C12   H21   S    
C28   H14   S    
C25   H16   S    
C16   O5    A    
Cu1   O5    S    
C25   C26   S    
C9    H27   S    
C10   C14   A    
Cu2   O4    S    
C15   H5    S    
C4    O4    A    
C8    H26   S    
C15   H6    S    
Cu1   O1    S    
C20   C21   S    
C27   C28   S    
C21   H11   S    
C11   C13   A    
Cu2   O8    S    
Cu1   Cu2   S    
C9    C32   S    
C23   C29   S    
C7    C32   A    
C17   H7    S    
C24   C28   S    
C21   C23   S    
C19   H12   S    
C19   C24   S    
C2    C32   A    
C28   H13   S    
C3    C5    A    
C14   C15   S    
C22   C29   T    
C23   C27   S    
C17   H8    S    
C16   O6    A    
C25   O9    S    
C27   H22   S    
C12   H1    S    
C15   C17   S    
C21   H10   S    
C9    H2    S    
C3    H23   S    
C11   N1    A    
C20   C24   S    
Cu2   N1    S    
Cu2   O6    S    
Cu2   O2    S    
C6    C16   S    
C13   H4    S    
C11   O9    S    
C27   H15   S    
Cu1   O7    S    
C2    C3    A    
C12   C23   S    
C7    C8    S    
C1    O2    A    
C8    H25   S    
