data_mof_unit_9937.cif
_audit_creation_date              2012-12-10T18:56:29-0500
_audit_creation_method            fapswitch 2.2
_symmetry_space_group_name_H-M    P1
_symmetry_Int_Tables_number       1
_space_group_crystal_system       triclinic
_cell_length_a                    10.649001
_cell_length_b                    9.931105
_cell_length_c                    19.458672
_cell_angle_alpha                 91.447343
_cell_angle_beta                  92.501052
_cell_angle_gamma                 90.452739
_cell_volume                      2055.17833363

loop_
_atom_site_label
_atom_site_type_symbol
_atom_type_description
_atom_site_fract_x
_atom_site_fract_y
_atom_site_fract_z
_atom_type_partial_charge
C1    C     C_R   0.874638 0.498497 0.482548 -0.190324
C2    C     C_R   0.739460 0.499881 0.491653 0.950943
C3    C     C_R   0.506754 0.498087 0.365707 0.904837
C4    C     C_R   0.493911 0.502226 0.634323 0.913911
C5    C     C_R   0.059856 0.375814 0.517327 -0.143873
C6    C     C_R   0.941768 0.621077 0.487693 -0.157824
C7    C     C_R   0.937842 0.374726 0.488705 -0.060043
C8    C     C_R   0.062664 0.621808 0.517468 -0.077583
C9    C     C_R   0.448323 0.389590 0.745116 -0.043536
C10   C     C_R   0.560154 0.613122 0.256393 -0.030152
C11   C     C_R   0.489332 0.377435 0.248602 -0.029554
C12   C     C_R   0.126930 0.498817 0.521536 -0.185050
C13   C     C_R   0.517679 0.625567 0.750404 -0.038789
C14   C     C_R   0.468610 0.383782 0.816056 -0.206876
C15   C     C_R   0.548475 0.618840 0.185025 -0.208603
C16   C     C_R   0.479223 0.387035 0.177423 -0.206750
C17   C     C_R   0.535800 0.616540 0.821436 -0.209664
C18   C     C_R   0.512161 0.496529 0.853966 0.064838
C19   C     C_R   0.507553 0.506786 0.145884 0.063036
C20   C     C_R   0.579895 0.075806 0.543775 -0.052076
C21   C     C_R   0.417500 0.924098 0.457700 -0.044753
C22   C     C_R   0.413502 0.067721 0.459264 -0.007580
C23   C     C_R   0.616797 0.548467 0.967515 -0.164557
C24   C     C_R   0.585420 0.932429 0.541454 -0.058080
C25   C     C_R   0.484001 0.507316 0.710319 -0.172197
C26   C     C_R   0.521143 0.494648 0.289960 -0.182861
C27   C     C_2   0.647033 0.150170 0.601261 1.007739
C28   C     C_2   0.341340 0.847635 0.404532 1.002555
C29   C     C_2   0.304602 0.131143 0.421848 0.973405
C30   C     C_2   0.693550 0.870342 0.580581 1.029685
C31   C     C_2   0.097923 0.261929 0.561281 1.089322
C32   C     C_2   0.908163 0.731313 0.440699 1.134521
C33   C     C_2   0.883332 0.247298 0.456752 0.965712
C34   C     C_R   0.403383 0.457752 0.032308 -0.164584
C35   C     C_2   0.115221 0.747714 0.551593 0.970135
C36   C     C_2   0.370074 0.280859 0.711778 0.980811
C37   C     C_2   0.628385 0.726472 0.292323 0.997367
C38   C     C_2   0.474557 0.239878 0.274595 1.013172
C39   C     C_2   0.520880 0.763413 0.723144 1.011336
C40   C     C_R   0.614125 0.554517 0.038716 -0.167437
C41   C     C_R   0.406080 0.451640 0.961240 -0.168298
C42   C     C_R   0.507409 0.508932 0.071204 0.120485
C43   C     C_R   0.513022 0.496335 0.928697 0.120009
C44   C     C_R   0.261179 0.499667 0.509443 0.948190
H1    H     H_    0.442416 0.293938 0.842769 0.181207
H2    H     H_    0.320074 0.789133 0.304770 0.348783
H3    H     H_    0.119492 0.121531 0.394268 0.356600
H4    H     H_    0.874819 0.887771 0.615351 0.354186
H5    H     H_    0.055652 0.147938 0.641712 0.347486
H6    H     H_    0.806688 0.897658 0.421416 0.358496
H7    H     H_    0.773596 0.161149 0.380682 0.359560
H8    H     H_    0.115177 0.950074 0.559709 0.374700
H9    H     H_    0.311940 0.087222 0.711557 0.351344
H10   H     H_    0.667792 0.925635 0.297293 0.357487
H11   H     H_    0.375673 0.065612 0.268430 0.378144
H12   H     H_    0.576771 0.709134 0.159328 0.176419
H13   H     H_    0.435103 0.903672 0.664964 0.356758
H14   H     H_    0.455617 0.298122 0.145744 0.169080
H15   H     H_    0.559869 0.706252 0.852384 0.166684
H16   H     H_    0.699618 0.583575 0.942678 0.152262
H17   H     H_    0.320329 0.422895 0.057025 0.153962
H18   H     H_    0.695956 0.592131 0.068446 0.148800
H19   H     H_    0.324038 0.414220 0.931618 0.148697
H20   H     H_    0.664048 0.184362 0.703821 0.357749
N1    N     N_R   0.500000 0.857200 0.500000 -0.147278
N2    N     N_R   0.500000 0.142800 0.500000 -0.145473
O1    O     O_R   0.316770 0.614620 0.500000 -0.592392
O2    O     O_R   0.609458 0.132108 0.668263 -0.790284
O3    O     O_2   0.240054 0.799121 0.417991 -0.546432
O4    O     O_R   0.380901 0.841315 0.337164 -0.815808
O5    O     O_2   0.317167 0.232930 0.389575 -0.594778
O6    O     O_R   0.185344 0.071082 0.422384 -0.735548
O7    O     O_2   0.683018 0.763814 0.608939 -0.598259
O8    O     O_R   0.809808 0.937457 0.586279 -0.724052
O9    O     O_2   0.191124 0.195899 0.550086 -0.604501
O10   O     O_R   0.022442 0.227915 0.615365 -0.719357
O11   O     O_2   0.965264 0.742392 0.387926 -0.549382
O12   O     O_R   0.683230 0.385380 0.500000 -0.583660
O13   O     O_R   0.816527 0.824804 0.456772 -0.738017
O14   O     O_2   0.911915 0.137403 0.479344 -0.548632
O15   O     O_R   0.802221 0.253682 0.398476 -0.772911
O16   O     O_2   0.191487 0.740075 0.600159 -0.585641
O17   O     O_R   0.074080 0.874242 0.530930 -0.713382
O18   O     O_2   0.294112 0.308027 0.665701 -0.628533
O19   O     O_R   0.374958 0.150051 0.736668 -0.771022
O20   O     O_2   0.702316 0.703968 0.340100 -0.635981
O21   O     O_R   0.614670 0.857767 0.268866 -0.768943
O22   O     O_2   0.555324 0.192554 0.313210 -0.605972
O23   O     O_R   0.683230 0.614620 0.500000 -0.574488
O24   O     O_R   0.373298 0.159677 0.249530 -0.784143
O25   O     O_2   0.605852 0.841257 0.742044 -0.589225
O26   O     O_R   0.421845 0.808091 0.680321 -0.732354
O27   O     O_R   0.316770 0.385380 0.500000 -0.572920
O28   O     O_R   0.500030 0.614710 0.398180 -0.613258
O29   O     O_R   0.499970 0.385290 0.601820 -0.621950
O30   O     O_R   0.499970 0.614710 0.601820 -0.549968
O31   O     O_R   0.500030 0.385290 0.398180 -0.546716
O32   O     O_2   0.740574 0.217269 0.591440 -0.542881
Zn1   Zn    Zn3+2 0.500000 0.653120 0.500000 1.074371
Zn2   Zn    Zn3+2 0.500000 0.346880 0.500000 1.080401

loop_
_geom_bond_atom_site_label_1
_geom_bond_atom_site_label_2
_ccdc_geom_bond_type
C6    C32   S    
C27   O32   D    
H13   O26   S    
H8    O17   S    
C41   C43   A    
C14   C18   A    
C28   O3    D    
C34   C42   A    
H6    O13   S    
C4    C25   S    
C9    C25   A    
C15   C19   A    
O23   Zn1   S    
C10   C37   S    
H20   O2    S    
C20   N2    A    
C22   C29   S    
H11   O24   S    
C10   C15   A    
H10   O21   S    
C30   O8    S    
C23   C40   A    
O30   Zn1   S    
C40   H18   S    
C1    C2    S    
N2    Zn2   S    
C22   N2    A    
C27   O2    S    
C32   O11   D    
C4    O30   A    
C20   C24   A    
C9    C36   S    
C44   O27   A    
H7    O15   S    
C19   C42   S    
O1    Zn1   S    
C29   O6    S    
C10   C26   A    
C40   C42   A    
C21   C22   A    
C7    C33   S    
C13   C25   A    
C34   C41   A    
C39   O25   D    
C35   O16   D    
C14   H1    S    
C23   H16   S    
H2    O4    S    
C1    C6    A    
H4    O8    S    
C37   O20   D    
N1    Zn1   S    
C5    C12   A    
C5    C7    A    
C30   O7    D    
C35   O17   S    
O29   Zn2   S    
C6    C8    A    
C11   C26   A    
C34   H17   S    
C38   O22   D    
C8    C35   S    
C2    O23   A    
C9    C14   A    
C2    O12   A    
C4    O29   A    
C11   C16   A    
C3    O31   A    
C31   O9    D    
C8    C12   A    
C17   C18   A    
H5    O10   S    
C16   H14   S    
O27   Zn2   S    
C24   N1    A    
C17   H15   S    
C21   C28   S    
O12   Zn2   S    
C41   H19   S    
C39   O26   S    
O31   Zn2   S    
C21   N1    A    
C1    C7    A    
C23   C43   A    
C37   O21   S    
C3    C26   S    
C28   O4    S    
C44   O1    A    
C33   O14   D    
C20   C27   S    
C36   O19   S    
C38   O24   S    
C13   C17   A    
C15   H12   S    
C12   C44   S    
C18   C43   S    
C32   O13   S    
C31   O10   S    
O28   Zn1   S    
C36   O18   D    
C16   C19   A    
C3    O28   A    
C24   C30   S    
H3    O6    S    
C13   C39   S    
C11   C38   S    
H9    O19   S    
C29   O5    D    
C33   O15   S    
C5    C31   S    
