data_mof_unit_55457.cif
_audit_creation_date              2012-10-26T20:23:07-0400
_audit_creation_method            fapswitch 2.2
_symmetry_space_group_name_H-M    P1
_symmetry_Int_Tables_number       1
_space_group_crystal_system       triclinic
_cell_length_a                    10.662147
_cell_length_b                    12.749532
_cell_length_c                    13.880712
_cell_angle_alpha                 97.829376
_cell_angle_beta                  90.233132
_cell_angle_gamma                 94.07315
_cell_volume                      1864.41622623

loop_
_atom_site_label
_atom_site_type_symbol
_atom_type_description
_atom_site_fract_x
_atom_site_fract_y
_atom_site_fract_z
_atom_type_partial_charge
C1    C     C_R   0.498504 0.483654 0.315880 0.550199
C2    C     C_3   0.974111 0.604182 0.515184 0.259585
C3    C     C_3   0.953920 0.458769 0.412930 0.211102
C4    C     C_3   0.048391 0.545509 0.583792 0.264646
C5    C     C_3   0.877599 0.506030 0.500604 -0.045814
C6    C     C_3   0.123512 0.497963 0.497361 0.012123
C7    C     C_3   0.952897 0.447319 0.570060 -0.203669
C8    C     C_3   0.050820 0.556627 0.427701 -0.182090
C9    C     C_1   0.500936 0.525796 0.787372 -0.029564
C10   C     C_1   0.495369 0.474371 0.212724 -0.034687
C11   C     C_2   0.501047 0.545245 0.979634 0.285500
C12   C     C_R   0.501089 0.516375 0.684148 0.554518
C13   C     C_2   0.487750 0.455327 0.020578 0.285878
C14   C     C_1   0.491960 0.465412 0.125694 -0.025935
C15   C     C_1   0.500885 0.534979 0.874454 -0.021442
C16   C     C_3   0.986155 0.388132 0.252261 0.019359
C17   C     C_3   0.980617 0.464930 0.176873 -0.274139
C18   C     C_3   0.079985 0.444601 0.098964 -0.481877
C19   C     C_3   0.020693 0.612640 0.744775 0.028332
C20   C     C_3   0.089033 0.665559 0.837710 -0.252303
C21   C     C_3   0.997099 0.691034 0.920171 -0.501275
C22   C     C_3   0.958331 0.222572 0.455862 0.026320
C23   C     C_2   0.473826 0.027683 0.467612 -0.163944
C24   C     C_3   0.961304 0.161307 0.543124 -0.263675
C25   C     C_3   0.842350 0.088129 0.546643 -0.493046
C26   C     C_3   0.883198 0.764670 0.487284 0.021059
C27   C     C_3   0.885080 0.732430 0.376167 -0.281915
C28   C     C_3   0.799903 0.798795 0.324265 -0.470800
C29   C     C_3   0.446136 0.269093 0.010255 0.008312
C30   C     C_3   0.566898 0.225498 0.044069 -0.262320
C31   C     C_3   0.537213 0.131026 0.098934 -0.482864
C32   C     C_3   0.519152 0.732831 0.990181 0.007002
C33   C     C_3   0.652169 0.761713 0.955805 -0.268168
C34   C     C_2   0.525896 0.972210 0.532485 -0.169801
C35   C     C_3   0.654975 0.858924 0.902542 -0.485245
C36   C     C_1   0.522201 0.854779 0.521205 0.122550
C37   C     C_1   0.477705 0.145194 0.478828 0.134690
C38   C     C_R   0.259247 0.499300 0.499050 0.588937
C39   C     C_R   0.741087 0.501262 0.499948 0.568553
C40   C     C_3   0.027960 0.401077 0.481392 0.243678
Cu1   Cu    Cu3+1 0.491940 0.395330 0.493960 1.017834
Cu2   Cu    Cu3+1 0.508060 0.604670 0.506040 0.987377
H1    H     H_    0.911480 0.403435 0.627418 0.097549
H2    H     H_    0.072942 0.500973 0.045177 0.153000
H3    H     H_    0.065355 0.362340 0.060405 0.145626
H4    H     H_    0.970671 0.537339 0.760460 0.115985
H5    H     H_    0.951075 0.666615 0.723228 0.169586
H6    H     H_    0.157799 0.611695 0.860390 0.171499
H7    H     H_    0.141441 0.740280 0.823415 0.179246
H8    H     H_    0.930991 0.748413 0.900509 0.146347
H9    H     H_    0.049888 0.726962 0.987100 0.146875
H10   H     H_    0.942860 0.617593 0.935450 0.146432
H11   H     H_    0.963836 0.165545 0.388214 0.140702
H12   H     H_    0.096400 0.597890 0.370278 0.101170
H13   H     H_    0.866202 0.258526 0.452282 0.167020
H14   H     H_    0.044669 0.113298 0.538237 0.178273
H15   H     H_    0.969618 0.217910 0.611535 0.171352
H16   H     H_    0.758951 0.135753 0.556733 0.159628
H17   H     H_    0.848872 0.042055 0.608614 0.145602
H18   H     H_    0.830294 0.031857 0.478278 0.139682
H19   H     H_    0.911297 0.850978 0.501378 0.145471
H20   H     H_    0.787124 0.757900 0.516191 0.176010
H21   H     H_    0.982434 0.744661 0.349655 0.156148
H22   H     H_    0.850827 0.647965 0.356632 0.186665
H23   H     H_    0.572291 0.015449 0.597182 0.121233
H24   H     H_    0.701552 0.788380 0.349292 0.175789
H25   H     H_    0.801607 0.772731 0.244630 0.153318
H26   H     H_    0.833020 0.884096 0.338500 0.133018
H27   H     H_    0.396272 0.205997 0.957931 0.154791
H28   H     H_    0.379393 0.286135 0.070976 0.119415
H29   H     H_    0.624523 0.200053 0.979666 0.166870
H30   H     H_    0.623458 0.288073 0.092399 0.170760
H31   H     H_    0.483022 0.155663 0.165383 0.161367
H32   H     H_    0.626228 0.100095 0.120933 0.146109
H33   H     H_    0.481799 0.066490 0.051879 0.134819
H34   H     H_    0.426929 0.984312 0.403153 0.127103
H35   H     H_    0.490718 0.800446 0.042717 0.150966
H36   H     H_    0.448471 0.723685 0.929758 0.125137
H37   H     H_    0.717119 0.778604 0.019767 0.166445
H38   H     H_    0.686494 0.694321 0.906174 0.159105
H39   H     H_    0.592415 0.842898 0.837205 0.160726
H40   H     H_    0.752286 0.878104 0.878880 0.143283
H41   H     H_    0.624015 0.928477 0.951318 0.143678
H42   H     H_    0.962107 0.306174 0.215442 0.145351
H43   H     H_    0.084266 0.389096 0.281070 0.142473
H44   H     H_    0.885835 0.455403 0.141741 0.173148
H45   H     H_    0.996101 0.548018 0.213221 0.156410
H46   H     H_    0.175741 0.456383 0.132332 0.151045
N1    N     N_1   0.479830 0.238040 0.484880 -0.185123
N2    N     N_1   0.520170 0.761960 0.515120 -0.204000
O1    O     O_R   0.492210 0.399110 0.356330 -0.495273
O2    O     O_3   0.109900 0.592034 0.671138 -0.539440
O3    O     O_3   0.064499 0.296292 0.459841 -0.552669
O4    O     O_3   0.967067 0.714827 0.543109 -0.558502
O5    O     O_3   0.474649 0.357384 0.960261 -0.593421
O6    O     O_3   0.517674 0.642961 0.040067 -0.597699
O7    O     O_R   0.507790 0.600890 0.643670 -0.493544
O8    O     O_R   0.505820 0.575890 0.366540 -0.494013
O9    O     O_R   0.494180 0.424110 0.633460 -0.485750
O10   O     O_R   0.310050 0.411620 0.494870 -0.463232
O11   O     O_R   0.689950 0.588380 0.505130 -0.521428
O12   O     O_R   0.323660 0.588400 0.505080 -0.475188
O13   O     O_R   0.676340 0.411600 0.494920 -0.493408
O14   O     O_3   0.895392 0.411471 0.324639 -0.572518

loop_
_geom_bond_atom_site_label_1
_geom_bond_atom_site_label_2
_ccdc_geom_bond_type
C3    O14   S    
C26   O4    S    
Cu1   N1    S    
Cu2   O11   S    
Cu1   Cu2   S    
C2    C4    S    
C19   C20   S    
C40   O3    S    
C30   H29   S    
C35   H39   S    
C19   H4    S    
C26   C27   S    
C29   C30   S    
C13   O5    S    
C22   C24   S    
C28   H26   S    
C26   H19   S    
Cu2   O8    S    
C30   C31   S    
C19   H5    S    
C31   H31   S    
C16   H42   S    
C11   O6    S    
C12   O9    A    
C19   O2    S    
C32   H35   S    
C11   C15   S    
C16   O14   S    
C16   C17   S    
C7    C40   S    
Cu1   O9    S    
C25   H18   S    
C7    H1    S    
C23   H34   S    
C1    O1    A    
C13   C14   S    
C4    C7    S    
Cu2   O12   S    
C34   H23   S    
C21   H8    S    
C35   H40   S    
C39   O11   A    
C22   H11   S    
C29   H27   S    
C17   H44   S    
C2    O4    S    
C28   H25   S    
C24   C25   S    
C38   O10   A    
C3    C8    S    
C10   C14   T    
Cu2   O7    S    
C8    H12   S    
C29   O5    S    
C35   H41   S    
C33   H37   S    
C31   H32   S    
C6    C8    S    
C23   C37   S    
C18   H46   S    
Cu1   O13   S    
Cu2   N2    S    
C28   H24   S    
C20   H7    S    
C18   H2    S    
C31   H33   S    
C23   C34   D    
C6    C38   S    
C17   C18   S    
Cu1   O10   S    
C12   O7    A    
C20   H6    S    
C27   H21   S    
C4    C6    S    
Cu1   O1    S    
C3    C40   S    
C5    C39   S    
C16   H43   S    
C22   O3    S    
C6    C40   S    
C2    C5    S    
C25   H16   S    
C18   H3    S    
C21   H9    S    
C5    C7    S    
C29   H28   S    
C24   H15   S    
C36   N2    T    
C32   O6    S    
C17   H45   S    
C2    C8    S    
C1    C10   S    
C3    C5    S    
C1    O8    A    
C30   H30   S    
C33   H38   S    
C39   O13   A    
C22   H13   S    
C24   H14   S    
C37   N1    T    
C32   C33   S    
C26   H20   S    
C38   O12   A    
C11   C13   D    
C33   C35   S    
C34   C36   S    
C9    C15   T    
C9    C12   S    
C27   H22   S    
C32   H36   S    
C20   C21   S    
C27   C28   S    
C25   H17   S    
C21   H10   S    
C4    O2    S    
