data_mof_unit_52723.cif
_audit_creation_date              2012-12-10T18:29:33-0500
_audit_creation_method            fapswitch 2.2
_symmetry_space_group_name_H-M    P1
_symmetry_Int_Tables_number       1
_space_group_crystal_system       triclinic
_cell_length_a                    11.533751
_cell_length_b                    15.008585
_cell_length_c                    15.369324
_cell_angle_alpha                 82.417885
_cell_angle_beta                  89.492218
_cell_angle_gamma                 104.506025
_cell_volume                      2550.74142442

loop_
_atom_site_label
_atom_site_type_symbol
_atom_type_description
_atom_site_fract_x
_atom_site_fract_y
_atom_site_fract_z
_atom_type_partial_charge
C1    C     C_R   0.481259 0.441824 0.662452 0.891899
C2    C     C_R   0.513689 0.558086 0.337621 0.892359
C3    C     C_R   0.369563 0.351204 0.931794 -0.047987
C4    C     C_R   0.481464 0.654431 0.066867 -0.046989
C5    C     C_R   0.426094 0.516541 0.953562 0.042233
C6    C     C_R   0.408225 0.490190 0.044000 0.043104
C7    C     C_R   0.350767 0.396914 0.075999 -0.352209
C8    C     C_R   0.450691 0.611878 0.920174 -0.352081
C9    C     C_R   0.333680 0.326595 0.021831 0.505703
C10   C     C_R   0.481578 0.681030 0.975055 0.506642
C11   C     C_R   0.681380 0.842841 0.635070 -0.304508
C12   C     C_R   0.309354 0.153832 0.373105 -0.313838
C13   C     C_R   0.650325 0.753864 0.612449 -0.014134
C14   C     C_R   0.347863 0.245052 0.389089 -0.004270
C15   C     C_R   0.508276 0.793181 0.513903 -0.027595
C16   C     C_R   0.487502 0.206011 0.489971 -0.023996
C17   C     C_R   0.533237 0.884405 0.535601 -0.032925
C18   C     C_R   0.454885 0.112274 0.475085 -0.029173
C19   C     C_R   0.623869 0.909290 0.596537 0.079757
C20   C     C_R   0.361123 0.086261 0.416844 0.048323
C21   C     C_R   0.473072 0.951169 0.497903 0.002387
C22   C     C_R   0.510810 0.044261 0.516467 0.013333
C23   C     C_R   0.718060 0.501062 0.500111 0.902294
C24   C     C_R   0.281946 0.498972 0.499878 0.903089
C25   C     C_R   0.604317 0.066832 0.574795 -0.334748
C26   C     C_R   0.376228 0.927539 0.442476 -0.313405
C27   C     C_R   0.656646 0.999814 0.617929 0.477133
C28   C     C_R   0.319181 0.993064 0.403998 0.470682
C29   C     C_1   0.839196 0.502704 0.500490 -0.197415
C30   C     C_1   0.160860 0.497504 0.499451 -0.188394
C31   C     C_1   0.941108 0.501541 0.500244 -0.001979
C32   C     C_1   0.059009 0.498854 0.499685 -0.000079
C33   C     C_R   0.452079 0.406717 0.755357 -0.114724
C34   C     C_R   0.505495 0.593268 0.245138 -0.112439
C35   C     C_R   0.360026 0.283296 0.873729 0.521401
C36   C     C_R   0.516347 0.720924 0.126062 0.521442
C37   C     C_R   0.396765 0.313433 0.784489 -0.347677
C38   C     C_R   0.525395 0.688147 0.215760 -0.351515
C39   C     C_R   0.467437 0.471045 0.813619 -0.230767
C40   C     C_R   0.467254 0.529541 0.187566 -0.236471
C41   C     C_R   0.418699 0.446819 0.899024 -0.009360
C42   C     C_R   0.448610 0.557846 0.100118 -0.007836
H1    H     H_    0.640153 0.136464 0.588449 0.148022
H2    H     H_    0.340213 0.857869 0.428347 0.157487
H3    H     H_    0.455962 0.456722 0.211216 0.169399
H4    H     H_    0.518672 0.541236 0.791216 0.164227
H5    H     H_    0.547887 0.735712 0.263513 0.172781
H6    H     H_    0.381189 0.264577 0.737463 0.172963
H7    H     H_    0.314089 0.379242 0.142660 0.149444
H8    H     H_    0.442811 0.633926 0.851141 0.161269
H9    H     H_    0.552671 0.232043 0.536013 0.125612
H10   H     H_    0.445571 0.768832 0.465642 0.127360
H11   H     H_    0.306944 0.297337 0.356903 0.131835
H12   H     H_    0.694201 0.702180 0.641860 0.136279
H13   H     H_    0.750233 0.859189 0.682021 0.188144
H14   H     H_    0.238819 0.136510 0.327547 0.167583
N1    N     N_R   0.566020 0.731700 0.552730 -0.095648
N2    N     N_R   0.433980 0.268300 0.447270 -0.097334
O1    O     O_R   0.466720 0.383110 0.605620 -0.618028
O2    O     O_R   0.533280 0.616890 0.394380 -0.617239
O3    O     O_R   0.509090 0.531900 0.639510 -0.621731
O4    O     O_R   0.490910 0.468100 0.360490 -0.623299
O5    O     O_R   0.644370 0.425610 0.483050 -0.609634
O6    O     O_R   0.355630 0.574390 0.516950 -0.611808
O7    O     O_R   0.686740 0.574390 0.516930 -0.616934
O8    O     O_R   0.313260 0.425610 0.483070 -0.612086
Zn1   Zn    Zn3+2 0.471710 0.400660 0.477370 0.937416
Zn2   Zn    Zn3+2 0.528290 0.599340 0.522630 0.933970
O9    O     O_3   0.278261 0.234561 0.054723 -0.594428
C43   C     C_3   0.333712 0.201499 0.130034 0.117925
H15   H     H_    0.279472 0.130118 0.154513 0.180658
H16   H     H_    0.331454 0.241931 0.185097 0.113030
C44   C     C_3   0.462010 0.195566 0.109287 -0.385384
H17   H     H_    0.459324 0.143519 0.063732 0.223999
H18   H     H_    0.517589 0.263750 0.077229 0.214163
C45   C     C_3   0.521547 0.167520 0.193129 -0.933201
H19   H     H_    0.532451 0.222156 0.236823 0.273734
H20   H     H_    0.611447 0.158763 0.176285 0.268640
H21   H     H_    0.466290 0.101075 0.228749 0.278695
O10   O     O_3   0.508178 0.774282 0.939382 -0.595134
C46   C     C_3   0.611183 0.798425 0.881393 0.096976
H22   H     H_    0.609684 0.863917 0.838916 0.158994
H23   H     H_    0.611743 0.746899 0.835719 0.116971
C47   C     C_3   0.726889 0.815350 0.932116 -0.358151
H24   H     H_    0.731374 0.874118 0.969890 0.228503
H25   H     H_    0.727460 0.752377 0.978943 0.213607
C48   C     C_3   0.837709 0.838501 0.870182 -0.962548
H26   H     H_    0.835969 0.780483 0.831756 0.262098
H27   H     H_    0.919575 0.849441 0.909024 0.273686
H28   H     H_    0.841920 0.903042 0.824377 0.274621
O11   O     O_3   0.303106 0.190558 0.903333 -0.594040
C49   C     C_3   0.359601 0.127153 0.870659 0.078903
H29   H     H_    0.373191 0.077219 0.927327 0.163877
H30   H     H_    0.450749 0.159734 0.839656 0.109203
C50   C     C_3   0.277323 0.072133 0.807752 -0.327211
H31   H     H_    0.198908 0.023980 0.845936 0.231447
H32   H     H_    0.242955 0.119994 0.759352 0.223376
C51   C     C_3   0.342696 0.016278 0.758076 -0.958827
H33   H     H_    0.414823 0.064084 0.713779 0.257121
H34   H     H_    0.278743 0.972952 0.717392 0.272987
H35   H     H_    0.382080 0.970024 0.804715 0.274183
O12   O     O_3   0.529587 0.815043 0.095343 -0.598375
C52   C     C_3   0.613500 0.876553 0.140725 0.068999
H36   H     H_    0.663732 0.934703 0.091576 0.151316
H37   H     H_    0.683266 0.844913 0.172071 0.122510
C53   C     C_3   0.548311 0.918500 0.205923 -0.334761
H38   H     H_    0.504785 0.968848 0.168559 0.232919
H39   H     H_    0.476381 0.864017 0.244523 0.230049
C54   C     C_3   0.635015 0.967774 0.269222 -0.962058
H40   H     H_    0.674326 0.917102 0.310353 0.265065
H41   H     H_    0.586463 0.000521 0.313219 0.280364
H42   H     H_    0.708140 0.022699 0.232245 0.264312
O13   O     O_3   0.750482 0.024503 0.673446 -0.658247
C55   C     C_3   0.716829 0.066437 0.743873 0.043493
H43   H     H_    0.729679 0.024323 0.806316 0.158914
H44   H     H_    0.621063 0.069046 0.745770 0.128026
C56   C     C_3   0.798712 0.164305 0.741550 -0.310555
H45   H     H_    0.893018 0.159830 0.748486 0.234932
H46   H     H_    0.793075 0.206671 0.677548 0.217377
C57   C     C_3   0.764110 0.212721 0.815357 -0.963537
H47   H     H_    0.671843 0.221506 0.807431 0.254307
H48   H     H_    0.826941 0.282483 0.813160 0.272584
H49   H     H_    0.768805 0.171644 0.880267 0.267074
O14   O     O_3   0.225988 0.965364 0.349277 -0.657059
C58   C     C_3   0.114514 0.949730 0.395947 0.068887
H50   H     H_    0.050182 0.970045 0.348741 0.168240
H51   H     H_    0.117494 0.993057 0.450085 0.132499
C59   C     C_3   0.066778 0.846562 0.432061 -0.359682
H52   H     H_    0.065190 0.804043 0.377888 0.237706
H53   H     H_    0.126864 0.826009 0.482658 0.215904
C60   C     C_3   0.940394 0.826442 0.473482 -0.916766
H54   H     H_    0.940100 0.867230 0.528736 0.267353
H55   H     H_    0.908673 0.751375 0.499278 0.272064
H56   H     H_    0.877472 0.844337 0.423846 0.262352

loop_
_geom_bond_atom_site_label_1
_geom_bond_atom_site_label_2
_ccdc_geom_bond_type
C21   C26   A    
C4    C36   A    
C44   H18   S    
C44   H17   S    
C50   H31   S    
C47   C48   S    
C48   H26   S    
C60   H56   S    
C59   H52   S    
C25   H1    S    
C55   H43   S    
C50   C51   S    
C26   H2    S    
C39   C41   A    
C11   C19   A    
C33   C39   A    
C4    C42   A    
O4    Zn1   S    
C34   C40   A    
O6    Zn2   S    
C35   C37   A    
C47   H25   S    
C13   H12   S    
C54   H41   S    
C5    C6    A    
C2    O2    A    
C13   N1    A    
C53   H38   S    
C36   O12   S    
O1    Zn1   S    
C28   O14   S    
C22   C25   A    
C58   C59   S    
C16   H9    S    
C43   H15   S    
C19   C27   A    
C57   H49   S    
C24   O8    A    
C2    C34   S    
C23   O5    A    
O8    Zn1   S    
C24   O6    A    
C34   C38   A    
C21   C22   A    
C15   N1    A    
O12   C52   S    
C46   H23   S    
C57   H48   S    
C46   H22   S    
C40   H3    S    
C14   N2    A    
O5    Zn1   S    
C1    C33   S    
C45   H20   S    
C47   H24   S    
C7    H7    S    
C56   C57   S    
O11   C49   S    
C10   O10   S    
C20   C28   A    
C49   C50   S    
C33   C37   A    
C1    O3    A    
C17   C21   A    
C3    C9    A    
C40   C42   A    
C31   C32   S    
C3    C35   A    
O7    Zn2   S    
C12   C20   A    
C43   C44   S    
C49   H30   S    
C52   H37   S    
C16   N2    A    
C15   H10   S    
C45   H19   S    
C37   H6    S    
C38   H5    S    
C12   H14   S    
C39   H4    S    
C27   O13   S    
C16   C18   A    
C1    O1    A    
C12   C14   A    
C51   H34   S    
C48   H27   S    
C58   H50   S    
C44   C45   S    
C54   H42   S    
N1    Zn2   S    
C4    C10   A    
C60   H54   S    
C59   C60   S    
C8    H8    S    
C46   C47   S    
C11   H13   S    
C57   H47   S    
C45   H21   S    
O13   C55   S    
C15   C17   A    
C5    C41   A    
C3    C41   A    
C18   C22   A    
C9    O9    S    
O10   C46   S    
C60   H55   S    
C59   H53   S    
C5    C8    A    
C55   H44   S    
C23   C29   S    
C50   H32   S    
C6    C7    A    
C25   C27   A    
C51   H35   S    
C26   C28   A    
C23   O7    A    
C56   H46   S    
C29   C31   T    
C56   H45   S    
C30   C32   T    
C11   C13   A    
O3    Zn2   S    
C53   H39   S    
C36   C38   A    
C49   H29   S    
C17   C19   A    
C52   C53   S    
C18   C20   A    
O9    C43   S    
C24   C30   S    
C55   C56   S    
C7    C9    A    
N2    Zn1   S    
C14   H11   S    
O2    Zn2   S    
C8    C10   A    
C51   H33   S    
C6    C42   A    
C48   H28   S    
C52   H36   S    
C58   H51   S    
C43   H16   S    
C54   H40   S    
C2    O4    A    
O14   C58   S    
C53   C54   S    
C35   O11   S    
