data_mof_unit_49050.cif
_audit_creation_date              2012-12-11T14:24:49-0500
_audit_creation_method            fapswitch 2.2
_symmetry_space_group_name_H-M    P1
_symmetry_Int_Tables_number       1
_space_group_crystal_system       triclinic
_cell_length_a                    19.062222
_cell_length_b                    11.225512
_cell_length_c                    18.655456
_cell_angle_alpha                 89.945523
_cell_angle_beta                  91.469924
_cell_angle_gamma                 89.704529
_cell_volume                      3990.58516069

loop_
_atom_site_label
_atom_site_type_symbol
_atom_type_description
_atom_site_fract_x
_atom_site_fract_y
_atom_site_fract_z
_atom_type_partial_charge
C1    C     C_R   0.729587 0.374677 0.145724 0.555426
C2    C     C_R   0.251562 0.920457 0.076516 0.043391
C3    C     C_R   0.656023 0.585519 0.408814 -0.113625
C4    C     C_R   0.839175 0.175324 0.594574 0.268400
C5    C     C_R   0.098933 0.109436 0.420539 0.235734
C6    C     C_R   0.368638 0.677439 0.581454 0.252165
C7    C     C_R   0.586638 0.590806 0.426958 0.235821
C8    C     C_R   0.874449 0.167401 0.530801 -0.052812
C9    C     C_R   0.076843 0.070872 0.487488 -0.091395
C10   C     C_R   0.392264 0.667010 0.512122 -0.073542
C11   C     C_R   0.568364 0.552514 0.494732 -0.079487
C12   C     C_R   0.849260 0.100230 0.472232 0.078464
C13   C     C_R   0.242190 0.428108 0.919482 0.038502
C14   C     C_R   0.124522 0.025394 0.539720 0.008170
C15   C     C_R   0.360254 0.589235 0.462474 0.064604
C16   C     C_R   0.619125 0.514043 0.545908 0.005456
C17   C     C_R   0.760531 0.943070 0.430817 0.063723
C18   C     C_R   0.253555 0.958313 0.562422 0.066454
C19   C     C_R   0.253855 0.450946 0.434636 0.065451
C20   C     C_R   0.751089 0.455495 0.564234 0.076017
C21   C     C_R   0.734172 0.388764 0.348962 0.562290
C22   C     C_R   0.266888 0.382600 0.648473 0.545444
C23   C     C_R   0.234392 0.887738 0.349321 0.573524
C24   C     C_R   0.745107 0.407170 0.071396 0.030495
C25   C     C_R   0.768774 0.875599 0.646039 0.541180
C26   C     C_R   0.560297 0.151132 0.361193 0.535479
C27   C     C_R   0.468576 0.157022 0.648077 0.549595
C28   C     C_R   0.036420 0.656130 0.355446 0.535544
C29   C     C_R   0.969328 0.656977 0.648503 0.548873
C30   C     C_R   0.743570 0.976860 0.357756 0.528441
C31   C     C_R   0.259142 0.980622 0.639645 0.581548
C32   C     C_R   0.242686 0.478178 0.358910 0.555088
C33   C     C_R   0.758227 0.478232 0.640749 0.580642
C34   C     C_3   0.549292 0.233447 0.966782 -0.164278
C35   C     C_R   0.696164 0.858949 0.965062 0.048481
C36   C     C_3   0.497046 0.278613 0.023925 -0.166880
C37   C     C_3   0.008439 0.777557 0.974647 -0.112530
C38   C     C_3   0.954435 0.739881 0.031881 -0.152601
C39   C     C_3   0.563866 0.123089 0.013705 0.240958
C40   C     C_3   0.438752 0.206604 0.985862 0.216484
C41   C     C_3   0.064200 0.700059 0.013572 0.221763
C42   C     C_3   0.936383 0.629945 0.986066 0.241539
C43   C     C_3   0.511974 0.166202 0.069583 0.022253
C44   C     C_3   0.490042 0.161841 0.930063 0.035398
C45   C     C_3   0.011188 0.662786 0.069513 0.029486
C46   C     C_R   0.310265 0.873133 0.040259 -0.008236
C47   C     C_3   0.989614 0.665885 0.929879 0.023386
C48   C     C_2   0.638315 0.248308 0.503505 0.554214
C49   C     C_2   0.448342 0.328104 0.527182 0.586294
C50   C     C_2   0.130828 0.738350 0.490326 0.570690
C51   C     C_2   0.948812 0.839604 0.534004 0.604536
C52   C     C_2   0.896276 0.089768 0.410984 0.606574
C53   C     C_2   0.092458 0.991796 0.609141 0.624716
C54   C     C_2   0.401500 0.568837 0.397950 0.649337
C55   C     C_2   0.589035 0.489178 0.617785 0.624972
C56   C     C_2   0.604996 0.858121 0.861607 0.586631
C57   C     C_R   0.188545 0.370702 0.958186 0.005896
C58   C     C_2   0.396478 0.866978 0.149386 0.591595
C59   C     C_2   0.101071 0.346364 0.851280 0.587650
C60   C     C_2   0.893161 0.372437 0.140624 0.590334
C61   C     C_R   0.804568 0.362696 0.035123 0.045699
C62   C     C_R   0.703176 0.849729 0.041044 0.056411
C63   C     C_R   0.305248 0.865362 0.963976 0.021331
C64   C     C_R   0.195932 0.366332 0.034451 0.019243
C65   C     C_R   0.267809 0.379340 0.851469 0.582066
C66   C     C_R   0.799520 0.352149 0.959180 0.053406
C67   C     C_R   0.807364 0.972071 0.039061 -0.159736
C68   C     C_R   0.197029 0.979901 0.963861 -0.093502
C69   C     C_R   0.289160 0.512460 0.028988 -0.143046
C70   C     C_R   0.688659 0.457888 0.957771 -0.159169
C71   C     C_R   0.806314 0.968106 0.965747 -0.155990
C72   C     C_R   0.197850 0.977634 0.037117 -0.086584
C73   C     C_R   0.287268 0.506334 0.955318 -0.159120
C74   C     C_R   0.687722 0.452075 0.030995 -0.156022
C75   C     C_R   0.634441 0.812204 0.931086 0.090932
C76   C     C_R   0.231084 0.877880 0.147487 0.587036
C77   C     C_R   0.372360 0.828536 0.076168 0.047991
C78   C     C_R   0.129009 0.314704 0.924493 0.063196
C79   C     C_R   0.867538 0.323213 0.070690 0.083565
C80   C     C_R   0.088658 0.237173 0.964900 -0.144202
C81   C     C_R   0.912404 0.246319 0.034357 -0.155539
C82   C     C_R   0.593857 0.731186 0.968841 -0.150019
C83   C     C_R   0.418038 0.755570 0.038087 -0.146914
C84   C     C_R   0.606299 0.711179 0.041584 -0.154173
C85   C     C_R   0.406774 0.734450 0.965433 -0.178163
C86   C     C_R   0.101465 0.222689 0.037875 -0.176050
C87   C     C_R   0.769787 0.875567 0.853739 0.549848
C88   C     C_R   0.901238 0.222286 0.961882 -0.158078
C89   C     C_R   0.658873 0.772787 0.078125 -0.057789
C90   C     C_R   0.352670 0.791674 0.928126 -0.089850
C91   C     C_R   0.154198 0.286392 0.072582 -0.081081
C92   C     C_R   0.847218 0.278532 0.923738 -0.063294
C93   C     C_R   0.533121 0.155895 0.144647 0.594677
C94   C     C_R   0.467080 0.154939 0.855306 0.593926
C95   C     C_R   0.033105 0.655327 0.144572 0.580953
C96   C     C_R   0.967570 0.655661 0.854987 0.581746
C97   C     C_R   0.754276 0.918741 0.077815 0.023129
C98   C     C_3   0.452916 0.096345 0.032184 -0.101436
C99   C     C_R   0.251091 0.927823 0.925916 0.024828
C100  C     C_R   0.245275 0.441531 0.070108 0.012870
C101  C     C_R   0.745978 0.414511 0.920942 0.020909
C102  C     C_R   0.513696 0.163078 0.584976 0.002525
C103  C     C_R   0.548583 0.148504 0.440183 -0.070737
C104  C     C_R   0.011049 0.662990 0.582786 -0.005144
C105  C     C_R   0.023435 0.659360 0.433237 -0.060249
C106  C     C_R   0.543281 0.056210 0.559913 0.022380
C107  C     C_R   0.550881 0.042095 0.484190 -0.010969
C108  C     C_R   0.024934 0.554144 0.547640 0.012407
C109  C     C_3   0.505653 0.050642 0.976401 -0.070050
C110  C     C_R   0.012784 0.551903 0.472422 -0.018651
C111  C     C_R   0.561719 0.250667 0.480423 -0.029344
C112  C     C_R   0.514494 0.261094 0.537644 0.003966
C113  C     C_R   0.052271 0.751425 0.476046 -0.017285
C114  C     C_R   0.013183 0.766156 0.538994 0.013618
C115  C     C_R   0.564946 0.965570 0.607876 -0.048439
C116  C     C_R   0.570001 0.928474 0.460132 -0.078694
C117  C     C_R   0.042759 0.448302 0.583932 -0.045723
C118  C     C_R   0.994937 0.442930 0.441180 -0.076380
C119  C     C_R   0.035181 0.340869 0.548575 -0.146700
C120  C     C_3   0.992208 0.552390 0.024140 -0.078315
C121  C     C_R   0.009128 0.339329 0.478236 -0.148760
C122  C     C_R   0.582431 0.855355 0.582414 -0.091282
C123  C     C_R   0.584721 0.838641 0.509432 -0.115162
C124  C     C_R   0.747381 0.907308 0.575022 0.023007
C125  C     C_R   0.260164 0.952183 0.413618 0.031980
C126  C     C_R   0.241459 0.434459 0.581721 0.021070
C127  C     C_R   0.755953 0.451431 0.415249 0.036763
C128  C     C_R   0.764151 0.019913 0.551121 0.009643
C129  C     C_R   0.211986 0.026904 0.447171 -0.016682
C130  C     C_R   0.279715 0.528961 0.553710 0.044005
C131  C     C_3   0.046284 0.590509 0.967995 -0.147912
C132  C     C_R   0.703501 0.517400 0.449876 -0.029869
C133  C     C_R   0.789313 0.026677 0.481570 0.079856
C134  C     C_R   0.196024 0.003221 0.519084 0.013986
C135  C     C_R   0.298688 0.522839 0.481399 0.078152
C136  C     C_R   0.690803 0.495320 0.522736 0.003095
C137  C     C_R   0.738825 0.833909 0.454321 -0.135845
C138  C     C_R   0.315995 0.924335 0.527998 -0.147666
C139  C     C_R   0.204047 0.375913 0.463938 -0.130195
C140  C     C_R   0.813546 0.425572 0.528776 -0.141225
C141  C     C_R   0.742717 0.967858 0.149627 0.551219
C142  C     C_R   0.752225 0.911189 0.927144 0.030589
C143  C     C_R   0.258532 0.970065 0.851793 0.551064
C144  C     C_R   0.240576 0.474009 0.146599 0.530938
C145  C     C_R   0.757402 0.467025 0.850086 0.558731
C146  C     C_R   0.738072 0.812356 0.526946 -0.110409
C147  C     C_R   0.316638 0.909458 0.454129 -0.131624
C148  C     C_R   0.201414 0.361402 0.536669 -0.130036
C149  C     C_R   0.813642 0.412674 0.455078 -0.138518
C150  C     C_R   0.778486 0.109891 0.601543 -0.006700
C151  C     C_R   0.169213 0.100972 0.405108 -0.098216
C152  C     C_R   0.309253 0.614754 0.600417 -0.022020
Cr1   Cr    Cr6+3 0.772820 0.169820 0.252640 1.074091
Cr2   Cr    Cr6+3 0.383280 0.011130 0.749340 1.043158
Cr3   Cr    Cr6+3 0.116720 0.511130 0.250660 1.013066
Cr4   Cr    Cr6+3 0.883280 0.511130 0.749340 1.067973
Cr5   Cr    Cr6+3 0.227180 0.169820 0.747360 1.090008
Cr6   Cr    Cr6+3 0.272820 0.669820 0.252640 1.086171
Cr7   Cr    Cr6+3 0.727180 0.669820 0.747360 1.063717
Cr8   Cr    Cr6+3 0.615040 0.323610 0.249150 1.046122
Cr9   Cr    Cr6+3 0.384960 0.323610 0.750850 1.070094
Cr10  Cr    Cr6+3 0.115040 0.823610 0.249150 1.064120
Cr11  Cr    Cr6+3 0.884960 0.823610 0.750850 1.067224
Cr12  Cr    Cr6+3 0.616720 0.011130 0.250660 1.019670
H1    H     H_    0.569425 0.980217 0.665179 0.152626
H2    H     H_    0.364253 0.908327 0.557728 0.192815
H3    H     H_    0.167663 0.326862 0.430252 0.142821
H4    H     H_    0.862200 0.407804 0.557946 0.181482
H5    H     H_    0.752791 0.109304 0.652755 0.115098
H6    H     H_    0.186600 0.128367 0.352673 0.114195
H7    H     H_    0.290526 0.622932 0.654607 0.111764
H8    H     H_    0.670866 0.617919 0.356492 0.112868
H9    H     H_    0.729891 0.722607 0.545739 0.125908
H10   H     H_    0.359800 0.864257 0.429016 0.161811
H11   H     H_    0.171765 0.287577 0.557251 0.137299
H12   H     H_    0.580343 0.907059 0.405442 0.184979
H13   H     H_    0.856906 0.368983 0.429759 0.160908
H14   H     H_    0.924132 0.207645 0.530347 0.120800
H15   H     H_    0.021699 0.075478 0.498744 0.174493
H16   H     H_    0.438344 0.717088 0.497796 0.155243
H17   H     H_    0.514658 0.562090 0.509325 0.192922
H18   H     H_    0.589436 0.284746 0.938233 0.128670
H19   H     H_    0.491129 0.370963 0.044242 0.120386
H20   H     H_    0.017490 0.868508 0.953468 0.124987
H21   H     H_    0.915921 0.797421 0.059121 0.124853
H22   H     H_    0.409489 0.050791 0.058040 0.163921
H23   H     H_    0.060422 0.448436 0.639591 0.156232
H24   H     H_    0.510144 0.957386 0.957630 0.155710
H25   H     H_    0.986188 0.460304 0.043958 0.156147
H26   H     H_    0.086871 0.537765 0.941770 0.155832
H27   H     H_    0.849534 0.021077 0.065235 0.151682
H28   H     H_    0.153318 0.024257 0.936855 0.146378
H29   H     H_    0.326013 0.573406 0.053829 0.162212
H30   H     H_    0.644316 0.499435 0.930019 0.147371
H31   H     H_    0.850827 0.005580 0.939430 0.145252
H32   H     H_    0.151861 0.011470 0.062619 0.147603
H33   H     H_    0.326508 0.553936 0.926390 0.137899
H34   H     H_    0.970311 0.435513 0.388573 0.165842
H35   H     H_    0.639545 0.478982 0.055550 0.143265
H36   H     H_    0.046998 0.186963 0.939700 0.144764
H37   H     H_    0.957100 0.206929 0.061889 0.142833
H38   H     H_    0.551541 0.684840 0.942107 0.135627
H39   H     H_    0.462504 0.714068 0.064881 0.155095
H40   H     H_    0.070629 0.160727 0.068068 0.115904
H41   H     H_    0.934625 0.160307 0.934513 0.116555
H42   H     H_    0.574240 0.649107 0.070345 0.110918
H43   H     H_    0.439130 0.671754 0.937431 0.120833
H44   H     H_    0.666684 0.755513 0.134858 0.131421
H45   H     H_    0.046111 0.259205 0.576944 0.172511
H46   H     H_    0.345513 0.770382 0.871912 0.138663
H47   H     H_    0.163393 0.268489 0.128966 0.145310
H48   H     H_    0.840638 0.258533 0.867225 0.132215
H49   H     H_    0.657733 0.149712 0.049196 0.318346
H50   H     H_    0.379346 0.330837 0.951706 0.337572
H51   H     H_    0.156658 0.666979 0.051773 0.321041
H52   H     H_    0.843230 0.663845 0.949971 0.317498
H53   H     H_    0.676726 0.202948 0.406426 0.304022
H54   H     H_    0.408087 0.210296 0.455367 0.307110
H55   H     H_    0.158981 0.688167 0.389714 0.328923
H56   H     H_    0.996436 0.258072 0.452472 0.195948
H57   H     H_    0.895313 0.718380 0.473760 0.291052
H58   H     H_    0.840565 0.226242 0.694164 0.323898
H59   H     H_    0.074849 0.168375 0.324555 0.320634
H60   H     H_    0.384967 0.738564 0.677933 0.324864
H61   H     H_    0.560538 0.676892 0.339566 0.317780
H62   H     H_    0.928407 0.165749 0.319450 0.368309
H63   H     H_    0.025193 0.036410 0.686746 0.358280
H64   H     H_    0.429540 0.634994 0.302286 0.353616
H65   H     H_    0.520793 0.541221 0.692906 0.348741
H66   H     H_    0.541224 0.830018 0.775260 0.339478
H67   H     H_    0.599204 0.785311 0.618975 0.169708
H68   H     H_    0.459937 0.835905 0.235767 0.349978
H69   H     H_    0.039662 0.300401 0.766007 0.343221
H70   H     H_    0.955443 0.351203 0.228905 0.342459
H71   H     H_    0.610263 0.762084 0.492149 0.133696
H72   H     H_    0.726835 0.766207 0.415889 0.105093
O1    O     O_R   0.788190 0.043000 0.172520 -0.516501
O2    O     O_R   0.454170 0.051610 0.669840 -0.527596
O3    O     O_R   0.045830 0.551610 0.330160 -0.530597
O4    O     O_R   0.954170 0.551610 0.669840 -0.524088
O5    O     O_R   0.681920 0.959720 0.327070 -0.553405
O6    O     O_R   0.318080 0.959720 0.672930 -0.510264
O7    O     O_R   0.181920 0.459720 0.327070 -0.518902
O8    O     O_R   0.818080 0.459720 0.672930 -0.491216
O9    O     O_3   0.668190 0.168190 0.250820 -0.305260
O10   O     O_3   0.331810 0.168190 0.749180 -0.278873
O11   O     O_3   0.168190 0.668190 0.250820 -0.299603
O12   O     O_R   0.211810 0.043000 0.827480 -0.500960
O13   O     O_3   0.831810 0.668190 0.749180 -0.288181
O14   O     O_R   0.766240 0.292300 0.176860 -0.490548
O15   O     O_R   0.233760 0.292300 0.823140 -0.475119
O16   O     O_R   0.266240 0.792300 0.176860 -0.489443
O17   O     O_R   0.733760 0.792300 0.823140 -0.489539
O18   O     O_R   0.670310 0.409160 0.168720 -0.539874
O19   O     O_R   0.329690 0.409160 0.831280 -0.547399
O20   O     O_R   0.170310 0.909160 0.168720 -0.524452
O21   O     O_R   0.829690 0.909160 0.831280 -0.538815
O22   O     O_R   0.556160 0.251900 0.173380 -0.507871
O23   O     O_R   0.288190 0.543000 0.172520 -0.509596
O24   O     O_R   0.443840 0.251900 0.826620 -0.503072
O25   O     O_R   0.056160 0.751900 0.173380 -0.481031
O26   O     O_R   0.943840 0.751900 0.826620 -0.519131
O27   O     O_R   0.545410 0.050140 0.168240 -0.463946
O28   O     O_R   0.454590 0.050140 0.831760 -0.500173
O29   O     O_R   0.045410 0.550140 0.168240 -0.505905
O30   O     O_R   0.954590 0.550140 0.831760 -0.466175
O31   O     O_R   0.681530 0.958350 0.176970 -0.488326
O32   O     O_R   0.318470 0.958350 0.823030 -0.510400
O33   O     O_R   0.181530 0.458350 0.176970 -0.516458
O34   O     O_R   0.711810 0.543000 0.827480 -0.506668
O35   O     O_R   0.818470 0.458350 0.823030 -0.491997
O36   O     O_R   0.788610 0.044480 0.334450 -0.480673
O37   O     O_R   0.211390 0.044480 0.665550 -0.493746
O38   O     O_R   0.288610 0.544480 0.334450 -0.483564
O39   O     O_R   0.711390 0.544480 0.665550 -0.507173
O40   O     O_R   0.766630 0.293670 0.326970 -0.464261
O41   O     O_R   0.233370 0.293670 0.673030 -0.516154
O42   O     O_R   0.266630 0.793670 0.326970 -0.460258
O43   O     O_R   0.733370 0.793670 0.673030 -0.532466
O44   O     O_R   0.670730 0.410640 0.330640 -0.526421
O45   O     O_R   0.556550 0.253260 0.323480 -0.452648
O46   O     O_R   0.329270 0.410640 0.669360 -0.481842
O47   O     O_R   0.170730 0.910640 0.330640 -0.516727
O48   O     O_R   0.829270 0.910640 0.669360 -0.469686
O49   O     O_3   0.631186 0.080411 0.030119 -0.678334
O50   O     O_3   0.371453 0.249604 0.970078 -0.684257
O51   O     O_3   0.132738 0.736754 0.029360 -0.692464
O52   O     O_3   0.867886 0.592988 0.970233 -0.676839
O53   O     O_2   0.654640 0.253112 0.566941 -0.474317
O54   O     O_R   0.692210 0.223913 0.456592 -0.697091
O55   O     O_2   0.437385 0.415324 0.564016 -0.461721
O56   O     O_R   0.443450 0.253260 0.676520 -0.451208
O57   O     O_R   0.395403 0.287277 0.480275 -0.664023
O58   O     O_2   0.154447 0.748326 0.551315 -0.464804
O59   O     O_R   0.178618 0.703262 0.439021 -0.687356
O60   O     O_2   0.945281 0.932310 0.567430 -0.455045
O61   O     O_R   0.890128 0.801139 0.494435 -0.674798
O62   O     O_3   0.869887 0.235910 0.651396 -0.682733
O63   O     O_3   0.050439 0.143888 0.368482 -0.703628
O64   O     O_3   0.407160 0.743851 0.630541 -0.682026
O65   O     O_3   0.538499 0.651130 0.384593 -0.699009
O66   O     O_2   0.923778 0.994187 0.397157 -0.451612
O67   O     O_R   0.056550 0.753260 0.323480 -0.479298
O68   O     O_R   0.904044 0.187311 0.365323 -0.702383
O69   O     O_2   0.109073 0.899778 0.640334 -0.457571
O70   O     O_R   0.043031 0.067625 0.639590 -0.695993
O71   O     O_2   0.424941 0.469942 0.384793 -0.456554
O72   O     O_R   0.407846 0.662032 0.348631 -0.653168
O73   O     O_2   0.607019 0.402390 0.653400 -0.456814
O74   O     O_R   0.538148 0.566634 0.644326 -0.676492
O75   O     O_2   0.620093 0.958002 0.840931 -0.524748
O76   O     O_R   0.558105 0.788631 0.820908 -0.716884
O77   O     O_2   0.374175 0.959195 0.175515 -0.533161
O78   O     O_R   0.943450 0.753260 0.676520 -0.458605
O79   O     O_R   0.446790 0.799502 0.187572 -0.717156
O80   O     O_2   0.116750 0.440905 0.823361 -0.542115
O81   O     O_R   0.055344 0.268835 0.814821 -0.706061
O82   O     O_2   0.873880 0.471140 0.160002 -0.518261
O83   O     O_R   0.941390 0.307743 0.183163 -0.721253
O84   O     O_R   0.545830 0.051610 0.330160 -0.524739

loop_
_geom_bond_atom_site_label_1
_geom_bond_atom_site_label_2
_ccdc_geom_bond_type
C94   O28   A    
C105  C110  A    
C60   C79   S    
C24   C61   A    
C11   H17   S    
C51   O61   S    
C25   O43   A    
C110  C118  A    
C22   O41   A    
C151  H6    S    
C141  O31   A    
C99   C143  S    
C117  C119  A    
H54   O57   S    
C40   C98   S    
C106  C107  A    
Cr6   O23   S    
C38   C45   S    
C80   C86   A    
C48   O53   D    
Cr12  O84   S    
Cr2   O10   S    
C30   O5    A    
C70   C74   A    
C49   O57   S    
C27   O56   A    
C115  H1    S    
Cr5   O10   S    
C88   H41   S    
C98   C109  S    
C17   C30   S    
C4    O62   S    
Cr11  O78   S    
C19   C32   S    
C23   O42   A    
C96   O30   A    
Cr12  O31   S    
H61   O65   S    
C15   C54   S    
H69   O81   S    
C137  C146  A    
Cr9   O56   S    
Cr10  O20   S    
C100  C144  S    
C41   C131  S    
Cr4   O13   S    
Cr10  O25   S    
C47   C131  S    
C50   O58   D    
C37   C38   S    
C56   O75   D    
C36   C40   S    
C68   C72   A    
C69   H29   S    
C58   O77   D    
C139  H3    S    
Cr3   O29   S    
C60   O83   S    
C20   C33   S    
C45   C120  S    
C128  C150  A    
C13   C73   A    
C82   C84   A    
C130  C152  A    
C121  H56   S    
C76   O16   A    
C21   O40   A    
H53   O54   S    
C1    O18   A    
C90   H46   S    
C48   O54   S    
C26   O84   A    
C96   O26   A    
C57   C78   A    
C72   H32   S    
C46   C77   A    
C85   C90   A    
Cr3   O11   S    
C4    C150  A    
C5    C151  A    
C106  C115  A    
C120  H25   S    
H59   O63   S    
C65   O19   A    
H51   O51   S    
H52   O52   S    
C5    O63   S    
Cr5   O12   S    
C81   C88   A    
C95   O29   A    
Cr5   O41   S    
C69   C100  A    
C84   H42   S    
C95   O25   A    
Cr4   O30   S    
H63   O70   S    
C19   C139  A    
C126  C130  A    
C17   C137  A    
C18   C31   S    
C64   C91   A    
C41   O51   S    
H65   O74   S    
C27   O2    A    
C116  C123  A    
Cr7   O43   S    
C31   O6    A    
C111  C112  A    
Cr8   O44   S    
C87   O21   A    
C147  H10   S    
Cr4   O35   S    
Cr10  O47   S    
C39   O49   S    
C122  H67   S    
C101  C145  S    
H49   O49   S    
C105  C113  A    
C55   O74   S    
C28   O3    A    
C78   C80   A    
C13   C57   A    
C143  O12   A    
Cr10  O11   S    
C63   C99   A    
Cr4   O8    S    
C58   C77   S    
C94   O24   A    
C26   O45   A    
C37   C47   S    
C9    H15   S    
C8    C12   A    
C56   C75   S    
C66   C101  A    
Cr5   O15   S    
C59   C78   S    
C119  C121  A    
C139  C148  A    
C51   C114  S    
C34   C39   S    
C30   O36   A    
C54   O71   D    
Cr7   O13   S    
C91   H47   S    
C22   O46   A    
C66   C92   A    
C124  C146  A    
C93   O22   A    
C29   C104  S    
C145  O34   A    
C53   O69   D    
C28   O67   A    
C5    C9    A    
C125  C129  A    
C62   C97   A    
C71   H31   S    
C39   C109  S    
C132  C136  A    
C36   H19   S    
C20   C136  A    
Cr12  O9    S    
C51   O60   D    
C7    O65   S    
C16   C55   S    
C92   H48   S    
Cr6   O11   S    
C16   C136  A    
C85   H43   S    
C60   O82   D    
C41   C45   S    
C108  C117  A    
C103  C107  A    
C75   C82   A    
C23   O47   A    
Cr1   O14   S    
Cr11  O21   S    
C27   C102  S    
C46   C63   A    
C138  H2    S    
H66   O76   S    
C59   O80   D    
C127  C149  A    
C42   C120  S    
C61   C79   A    
C108  C110  A    
C18   C134  A    
C34   C36   S    
C37   C41   S    
C76   O20   A    
C107  C116  A    
Cr2   O28   S    
C35   C142  A    
C40   C44   S    
C14   C53   S    
Cr11  O48   S    
C1    C24   S    
C140  C149  A    
C45   C95   S    
C120  C131  S    
H62   O68   S    
C102  C112  A    
C130  C135  A    
Cr8   O9    S    
H50   O50   S    
Cr6   O16   S    
C129  C151  A    
C3    C7    A    
C86   C91   A    
Cr5   O37   S    
C3    H8    S    
Cr6   O42   S    
Cr12  O5    S    
C19   C135  A    
C62   C89   A    
C103  C111  A    
C143  O32   A    
Cr8   O18   S    
C50   O59   S    
C18   C138  A    
C144  O23   A    
C56   O76   S    
Cr1   O9    S    
C47   C96   S    
C69   C73   A    
C29   O4    A    
C124  C128  A    
C6    C152  A    
C44   C109  S    
Cr3   O3    S    
C2    C72   A    
C12   C52   S    
C70   C101  A    
C119  H45   S    
C3    C132  A    
C52   O66   D    
C83   H39   S    
C125  C147  A    
C126  C148  A    
C81   H37   S    
C33   O39   A    
C2    C46   A    
Cr8   O45   S    
C9    C14   A    
C26   C103  S    
C11   C16   A    
C28   C105  S    
C70   H30   S    
H57   O61   S    
Cr8   O22   S    
C137  H72   S    
C97   C141  S    
C49   C112  S    
C123  H71   S    
Cr9   O24   S    
C83   C85   A    
Cr1   O36   S    
Cr7   O17   S    
H64   O72   S    
C118  H34   S    
C104  C108  A    
C2    C76   S    
C82   H38   S    
C113  C114  A    
C131  H26   S    
Cr2   O2    S    
Cr9   O46   S    
C6    C10   A    
C50   C113  S    
C10   H16   S    
C20   C140  A    
C144  O33   A    
C55   O73   D    
C98   H22   S    
C6    O64   S    
Cr11  O26   S    
C43   C93   S    
C67   C71   A    
C87   C142  S    
C59   O81   S    
C67   C97   A    
C129  C134  A    
C150  H5    S    
C64   C100  A    
C74   H35   S    
C68   H28   S    
C36   C43   S    
C140  H4    S    
Cr2   O6    S    
C52   O68   S    
C43   C98   S    
C4    C8    A    
C13   C65   S    
Cr4   O4    S    
C7    C11   A    
C35   C75   A    
C54   O72   S    
C38   C42   S    
Cr2   O32   S    
C10   C15   A    
C67   H27   S    
C22   C126  S    
C89   H44   S    
C15   C135  A    
C77   C83   A    
C80   H36   S    
Cr12  O27   S    
C127  C132  A    
Cr10  O67   S    
C61   C66   A    
C88   C92   A    
C73   H33   S    
C102  C106  A    
C21   C127  S    
C23   C125  S    
Cr7   O34   S    
C115  C122  A    
H58   O62   S    
H70   O83   S    
Cr3   O33   S    
Cr6   O38   S    
C109  H24   S    
C148  H11   S    
C116  H12   S    
Cr11  O13   S    
C34   C44   S    
C29   O78   A    
C117  H23   S    
C21   O44   A    
C79   C81   A    
C152  H7    S    
C1    O14   A    
C39   C43   S    
C14   C134  A    
C37   H20   S    
C118  C121  A    
C146  H9    S    
C138  C147  A    
C149  H13   S    
C25   O48   A    
C71   C142  A    
C104  C114  A    
C12   C133  A    
C65   O15   A    
C32   O7    A    
C49   O55   D    
C84   C89   A    
C86   H40   S    
Cr9   O19   S    
C57   C64   A    
H55   O59   S    
H68   O79   S    
C141  O1    A    
C44   C94   S    
C38   H21   S    
Cr1   O1    S    
C145  O35   A    
Cr7   O39   S    
C53   O70   S    
C122  C123  A    
C68   C99   A    
Cr9   O10   S    
C128  C133  A    
C17   C133  A    
C24   C74   A    
C63   C90   A    
C40   O50   S    
Cr1   O40   S    
C34   H18   S    
C35   C62   A    
C42   C47   S    
C25   C124  S    
C32   O38   A    
C8    H14   S    
C48   C111  S    
H60   O64   S    
C87   O17   A    
C33   O8    A    
C58   O79   S    
C42   O52   S    
Cr3   O7    S    
C93   O27   A    
C31   O37   A    
