data_mof_unit_33100.cif
_audit_creation_date              2012-12-10T17:41:50-0500
_audit_creation_method            fapswitch 2.2
_symmetry_space_group_name_H-M    P1
_symmetry_Int_Tables_number       1
_space_group_crystal_system       triclinic
_cell_length_a                    13.752278
_cell_length_b                    13.848736
_cell_length_c                    15.038727
_cell_angle_alpha                 88.26492
_cell_angle_beta                  89.795327
_cell_angle_gamma                 83.983219
_cell_volume                      2847.06652774

loop_
_atom_site_label
_atom_site_type_symbol
_atom_type_description
_atom_site_fract_x
_atom_site_fract_y
_atom_site_fract_z
_atom_type_partial_charge
C1    C     C_R   0.499859 0.502512 0.329128 0.881155
C2    C     C_R   0.500144 0.497483 0.670872 0.881154
C3    C     C_R   0.500245 0.498582 0.953031 -0.157768
C4    C     C_R   0.499845 0.501407 0.046967 -0.157752
C5    C     C_R   0.506956 0.407911 0.910251 -0.088565
C6    C     C_R   0.493131 0.592078 0.089747 -0.088549
C7    C     C_R   0.487125 0.675650 0.944634 0.581750
C8    C     C_R   0.512974 0.324339 0.055364 0.581747
C9    C     C_R   0.486598 0.678716 0.036725 0.481180
C10   C     C_R   0.513506 0.321272 0.963273 0.481154
C11   C     C_R   0.788013 0.549418 0.434225 0.639167
C12   C     C_R   0.211981 0.450591 0.565779 0.639202
C13   C     C_R   0.797843 0.450116 0.565407 0.637493
C14   C     C_R   0.202157 0.549912 0.434605 0.637490
C15   C     C_R   0.900840 0.453136 0.570433 -0.151749
C16   C     C_R   0.099152 0.546934 0.429595 -0.151706
C17   C     C_R   0.948218 0.499884 0.499928 -0.028952
C18   C     C_R   0.051776 0.500158 0.500087 -0.028962
C19   C     C_R   0.891636 0.546103 0.429129 -0.154599
C20   C     C_R   0.108357 0.453923 0.570882 -0.154577
C21   C     C_R   0.957035 0.412291 0.644098 -0.045212
C22   C     C_R   0.042940 0.587847 0.355961 -0.045305
C23   C     C_R   0.516504 0.316951 0.498912 0.847203
C24   C     C_R   0.483496 0.683049 0.501087 0.847223
C25   C     C_R   0.060170 0.413370 0.644689 -0.042002
C26   C     C_R   0.939814 0.586691 0.355338 -0.041986
C27   C     C_1   0.472083 0.786156 0.504461 -0.102041
C28   C     C_1   0.527920 0.213844 0.495533 -0.102022
C29   C     C_2   0.458775 0.977491 0.506416 -0.049840
C30   C     C_2   0.541237 0.022508 0.493569 -0.049829
C31   C     C_1   0.535889 0.126864 0.493520 -0.034145
C32   C     C_1   0.464120 0.873136 0.506469 -0.034148
C33   C     C_R   0.506789 0.407132 0.816034 -0.090239
C34   C     C_R   0.493269 0.592858 0.183964 -0.090266
C35   C     C_R   0.500258 0.495644 0.767164 -0.217880
C36   C     C_R   0.499761 0.504348 0.232836 -0.217893
C37   C     C_R   0.494201 0.584119 0.809258 0.605984
C38   C     C_R   0.505841 0.415871 0.190741 0.606000
C39   C     C_R   0.493881 0.586609 0.902029 -0.187174
C40   C     C_R   0.506199 0.413380 0.097970 -0.187151
Cu1   Cu    Cu3+1 0.597420 0.500010 0.499990 1.067718
Cu2   Cu    Cu3+1 0.402580 0.499990 0.500010 1.067734
N1    N     N_R   0.743820 0.499960 0.499930 -0.271587
N2    N     N_R   0.256180 0.500040 0.500070 -0.271579
O1    O     O_R   0.582280 0.500030 0.370250 -0.536606
O2    O     O_R   0.417720 0.499970 0.629750 -0.536595
O3    O     O_R   0.417740 0.500020 0.370270 -0.532193
O4    O     O_R   0.582260 0.499980 0.629730 -0.532228
O5    O     O_R   0.593900 0.362160 0.500010 -0.552198
O6    O     O_R   0.406100 0.637840 0.499990 -0.552207
O7    O     O_R   0.429360 0.362150 0.500030 -0.547507
O8    O     O_R   0.570640 0.637850 0.499970 -0.547507
C41   C     C_R   0.639848 0.968424 0.482999 0.121759
C42   C     C_R   0.698570 0.989827 0.409833 -0.148416
C43   C     C_R   0.790774 0.938549 0.398762 -0.157979
C44   C     C_R   0.825494 0.866203 0.460970 -0.101695
C45   C     C_R   0.768519 0.845709 0.534861 -0.098700
C46   C     C_R   0.676522 0.897124 0.546434 -0.131530
H1    H     H_    0.672239 0.044996 0.360576 0.158335
H2    H     H_    0.835121 0.954604 0.341680 0.131419
H3    H     H_    0.896717 0.826324 0.452172 0.121639
H4    H     H_    0.795776 0.790161 0.583356 0.132032
H5    H     H_    0.633977 0.881363 0.604832 0.149765
C47   C     C_R   0.360162 0.031575 0.516973 0.121770
C48   C     C_R   0.301431 0.010179 0.590133 -0.148416
C49   C     C_R   0.209218 0.061445 0.601182 -0.157986
C50   C     C_R   0.174499 0.133773 0.538956 -0.101744
C51   C     C_R   0.231486 0.154264 0.465073 -0.098740
C52   C     C_R   0.323492 0.102860 0.453523 -0.131535
H6    H     H_    0.327759 0.955021 0.639401 0.158310
H7    H     H_    0.164861 0.045393 0.658259 0.131407
H8    H     H_    0.103267 0.173642 0.547736 0.121694
H9    H     H_    0.204230 0.209799 0.416566 0.132070
H10   H     H_    0.366046 0.118615 0.395129 0.149766
C53   C     C_R   0.511935 0.314840 0.768201 0.126890
C54   C     C_R   0.426174 0.271858 0.752276 -0.023666
C55   C     C_R   0.431326 0.177362 0.721457 -0.088382
C56   C     C_R   0.522316 0.125790 0.705587 -0.085347
C57   C     C_R   0.607994 0.170296 0.716755 -0.113939
C58   C     C_R   0.602815 0.264860 0.747781 -0.045184
H11   H     H_    0.355989 0.310490 0.766805 0.186913
H12   H     H_    0.364906 0.143620 0.711780 0.146743
H13   H     H_    0.526377 0.051790 0.683679 0.144175
H14   H     H_    0.678355 0.130980 0.702852 0.137924
H15   H     H_    0.669188 0.298025 0.758816 0.187484
C59   C     C_R   0.488101 0.685151 0.231797 0.126873
C60   C     C_R   0.397209 0.735106 0.252213 -0.045277
C61   C     C_R   0.392000 0.829674 0.283232 -0.113940
C62   C     C_R   0.477662 0.874206 0.294402 -0.085354
C63   C     C_R   0.568665 0.822657 0.278540 -0.088358
C64   C     C_R   0.573847 0.728158 0.247724 -0.023530
H16   H     H_    0.330851 0.701916 0.241178 0.187534
H17   H     H_    0.321627 0.868972 0.297127 0.137892
H18   H     H_    0.473577 0.948209 0.316306 0.144167
H19   H     H_    0.635072 0.856418 0.288217 0.146755
H20   H     H_    0.644043 0.689547 0.233198 0.186897
F1    F     F_    0.488317 0.667651 0.758587 -0.632617
F2    F     F_    0.511708 0.332340 0.241412 -0.632615
F3    F     F_    0.480731 0.761277 0.897378 -0.563112
F4    F     F_    0.519375 0.238711 0.102620 -0.563105
F5    F     F_    0.479300 0.768060 0.072302 -0.623981
F6    F     F_    0.520813 0.231928 0.927696 -0.623965
F7    F     F_    0.730284 0.604107 0.375102 -0.670219
F8    F     F_    0.269705 0.395906 0.624908 -0.670215
F9    F     F_    0.750753 0.395849 0.624580 -0.670066
F10   F     F_    0.249266 0.604145 0.375418 -0.670080
C65   C     C_R   0.908326 0.377577 0.725605 0.190703
C66   C     C_R   0.869743 0.444539 0.788140 -0.095893
C67   C     C_R   0.825833 0.412142 0.865970 -0.135698
C68   C     C_R   0.820980 0.312823 0.882102 -0.115661
C69   C     C_R   0.859089 0.245813 0.819949 -0.153810
C70   C     C_R   0.901950 0.278021 0.741510 -0.102360
H21   H     H_    0.874015 0.521555 0.776597 0.115758
H22   H     H_    0.795846 0.463969 0.913896 0.126513
H23   H     H_    0.786985 0.287858 0.942373 0.151165
H24   H     H_    0.854591 0.168999 0.832190 0.142527
H25   H     H_    0.930616 0.225648 0.693489 0.110715
C71   C     C_R   0.091602 0.622831 0.274539 0.190871
C72   C     C_R   0.098094 0.722424 0.258998 -0.102424
C73   C     C_R   0.140835 0.754926 0.180610 -0.154045
C74   C     C_R   0.178696 0.688170 0.118140 -0.115577
C75   C     C_R   0.173723 0.588812 0.133907 -0.135763
C76   C     C_R   0.129940 0.556124 0.211691 -0.095977
H26   H     H_    0.069585 0.774600 0.307251 0.110773
H27   H     H_    0.145421 0.831768 0.168650 0.142444
H28   H     H_    0.212590 0.713361 0.057902 0.151360
H29   H     H_    0.203513 0.537182 0.085730 0.126480
H30   H     H_    0.125558 0.479085 0.222945 0.115782
C77   C     C_R   0.114549 0.382655 0.727909 0.190984
C78   C     C_R   0.134365 0.283865 0.752139 -0.111425
C79   C     C_R   0.179808 0.256094 0.833333 -0.150667
C80   C     C_R   0.207027 0.326677 0.890179 -0.119587
C81   C     C_R   0.189127 0.425112 0.865732 -0.148674
C82   C     C_R   0.142666 0.453158 0.785046 -0.096590
H31   H     H_    0.113494 0.228673 0.708805 0.109371
H32   H     H_    0.194438 0.179863 0.851921 0.148853
H33   H     H_    0.242870 0.305084 0.952691 0.152990
H34   H     H_    0.210798 0.479667 0.909509 0.129943
H35   H     H_    0.127750 0.529658 0.767355 0.119156
C83   C     C_R   0.885440 0.617365 0.272101 0.190907
C84   C     C_R   0.857247 0.546824 0.215042 -0.096501
C85   C     C_R   0.810794 0.574815 0.134341 -0.148767
C86   C     C_R   0.792977 0.673230 0.109799 -0.119689
C87   C     C_R   0.820268 0.743851 0.166574 -0.150488
C88   C     C_R   0.865703 0.716139 0.247778 -0.111413
H36   H     H_    0.872097 0.470337 0.232806 0.119182
H37   H     H_    0.789065 0.520230 0.090625 0.129990
H38   H     H_    0.757143 0.694778 0.047273 0.152941
H39   H     H_    0.805701 0.820068 0.147904 0.148872
H40   H     H_    0.886628 0.771362 0.291051 0.109371

loop_
_geom_bond_atom_site_label_1
_geom_bond_atom_site_label_2
_ccdc_geom_bond_type
C2    C35   S    
C24   O8    A    
C43   C44   A    
Cu1   Cu2   S    
C42   C43   A    
C69   C70   A    
C24   C27   S    
C38   F2    S    
C25   C77   S    
C6    C9    A    
C37   F1    S    
C63   C64   A    
C45   H4    S    
C55   C56   A    
C2    O2    A    
C11   C19   A    
C29   C30   D    
C7    F3    S    
C35   C37   A    
C12   F8    S    
C29   C32   S    
C26   C83   S    
C59   C64   A    
C34   C59   S    
C70   H25   S    
C23   O5    A    
C20   C25   A    
C86   C87   A    
C62   H18   S    
C66   C67   A    
C22   C71   S    
C50   H8    S    
Cu2   O2    S    
C75   H29   S    
C19   C26   A    
C71   C72   A    
C17   C19   A    
C64   H20   S    
C68   C69   A    
C56   H13   S    
C33   C53   S    
C78   H31   S    
C51   C52   A    
C5    C33   A    
C65   C66   A    
C11   N1    A    
C69   H24   S    
C53   C58   A    
Cu1   O8    S    
C18   C20   A    
C88   H40   S    
Cu2   O7    S    
C71   C76   A    
C43   H2    S    
C49   C50   A    
C29   C47   S    
C3    C39   A    
C81   H34   S    
C60   H16   S    
Cu1   N1    S    
C58   H15   S    
Cu2   N2    S    
Cu1   O5    S    
C45   C46   A    
C42   H1    S    
C24   O6    A    
C86   H38   S    
C30   C41   S    
C13   F9    S    
C50   C51   A    
C4    C40   A    
C63   H19   S    
C83   C84   A    
C4    C6    A    
C79   H32   S    
C82   H35   S    
C56   C57   A    
C1    O3    A    
C2    O4    A    
C80   H33   S    
C72   H26   S    
C6    C34   A    
C66   H21   S    
C83   C88   A    
C53   C54   A    
C87   H39   S    
C23   O7    A    
C49   H7    S    
C10   F6    S    
C72   C73   A    
C12   C20   A    
C17   C18   A    
C52   H10   S    
C44   H3    S    
C65   C70   A    
C47   C52   A    
C54   C55   A    
C74   C75   A    
C21   C65   S    
C84   H36   S    
Cu2   O6    S    
C67   H22   S    
C8    C10   A    
C13   C15   A    
C81   C82   A    
C14   C16   A    
C57   C58   A    
C23   C28   S    
C44   C45   A    
C3    C4    A    
C62   C63   A    
C13   N1    A    
C73   C74   A    
C14   N2    A    
C77   C78   A    
C46   H5    S    
C15   C17   A    
C21   C25   A    
C61   H17   S    
C16   C22   A    
C57   H14   S    
C27   C32   T    
C59   C60   A    
C85   H37   S    
C28   C31   T    
C87   C88   A    
C3    C5    A    
C16   C18   A    
C54   H11   S    
C41   C46   A    
C41   C42   A    
C47   C48   A    
C36   C38   A    
C78   C79   A    
C51   H9    S    
C74   H28   S    
C37   C39   A    
Cu1   O1    S    
C84   C85   A    
C38   C40   A    
C1    O1    A    
C76   H30   S    
C30   C31   S    
C15   C21   A    
C55   H12   S    
C33   C35   A    
Cu1   O4    S    
C80   C81   A    
C34   C36   A    
Cu2   O3    S    
C73   H27   S    
C8    F4    S    
C79   C80   A    
C77   C82   A    
C7    C9    A    
C5    C10   A    
C61   C62   A    
C60   C61   A    
C9    F5    S    
C48   C49   A    
C22   C26   A    
C14   F10   S    
C7    C39   A    
C85   C86   A    
C12   N2    A    
C11   F7    S    
C8    C40   A    
C75   C76   A    
C67   C68   A    
C68   H23   S    
C48   H6    S    
C1    C36   S    
