data_mof_unit_53408.cif
_audit_creation_date              2012-12-10T17:30:25-0500
_audit_creation_method            fapswitch 2.2
_symmetry_space_group_name_H-M    P1
_symmetry_Int_Tables_number       1
_space_group_crystal_system       triclinic
_cell_length_a                    12.081106
_cell_length_b                    12.821359
_cell_length_c                    14.919142
_cell_angle_alpha                 92.945759
_cell_angle_beta                  85.53723
_cell_angle_gamma                 93.134897
_cell_volume                      2297.88396678

loop_
_atom_site_label
_atom_site_type_symbol
_atom_type_description
_atom_site_fract_x
_atom_site_fract_y
_atom_site_fract_z
_atom_type_partial_charge
C1    C     C_R   0.521983 0.700160 0.497280 0.904779
C2    C     C_R   0.477997 0.299901 0.503127 0.904321
C3    C     C_R   0.546977 0.687997 0.961761 -0.225096
C4    C     C_R   0.451337 0.310812 0.038032 -0.225689
C5    C     C_R   0.463296 0.188605 0.504484 -0.047764
C6    C     C_R   0.536380 0.811580 0.497112 -0.046996
C7    C     C_R   0.635041 0.970781 0.543377 -0.226119
C8    C     C_R   0.363961 0.029316 0.459581 -0.215604
C9    C     C_R   0.630540 0.862996 0.531245 -0.169054
C10   C     C_R   0.368947 0.137133 0.470747 -0.172050
C11   C     C_R   0.450464 0.866924 0.469246 -0.294854
C12   C     C_R   0.548706 0.133345 0.533353 -0.296703
C13   C     C_R   0.453149 0.973950 0.482530 0.188634
C14   C     C_R   0.545798 0.026211 0.520578 0.187695
C15   C     C_R   0.959298 0.403919 0.412681 -0.322326
C16   C     C_R   0.040817 0.596514 0.587119 -0.321477
C17   C     C_R   0.842718 0.409615 0.421751 0.250611
C18   C     C_R   0.157393 0.590524 0.578255 0.251139
C19   C     C_R   0.857000 0.542410 0.537788 -0.071581
C20   C     C_R   0.143018 0.457899 0.462017 -0.071383
C21   C     C_R   0.974222 0.535098 0.531589 0.060832
C22   C     C_R   0.025856 0.465392 0.468147 0.061375
C23   C     C_R   0.499769 0.502459 0.672761 0.925086
C24   C     C_R   0.500102 0.496941 0.327194 0.924639
C25   C     C_R   0.475565 0.401071 0.183355 0.066693
C26   C     C_R   0.525869 0.597460 0.816412 0.068847
C27   C     C_R   0.500652 0.494338 0.231771 -0.082605
C28   C     C_R   0.498870 0.504715 0.768094 -0.082398
C29   C     C_R   0.524162 0.588036 0.190650 -0.305347
C30   C     C_R   0.471868 0.411545 0.809316 -0.306802
C31   C     C_R   0.524013 0.592313 0.097828 0.106280
C32   C     C_R   0.473525 0.406716 0.902008 0.106386
C33   C     C_R   0.499999 0.498359 0.046734 0.003958
C34   C     C_R   0.499468 0.500264 0.953022 0.003211
C35   C     C_R   0.475631 0.402584 0.089565 0.073356
C36   C     C_R   0.524506 0.595967 0.910185 0.074131
C37   C     C_R   0.546149 0.687985 0.055061 0.088196
C38   C     C_R   0.449542 0.311240 0.944813 0.093660
H1    H     H_    0.997932 0.350187 0.362736 0.148329
H2    H     H_    0.002165 0.650085 0.637179 0.148397
H3    H     H_    0.541771 0.657090 0.232972 0.148807
H4    H     H_    0.451411 0.343143 0.767103 0.149405
H5    H     H_    0.565023 0.761568 0.930292 0.183833
H6    H     H_    0.433489 0.237247 0.069543 0.183562
H7    H     H_    0.619012 0.174087 0.563006 0.154006
H8    H     H_    0.380085 0.826303 0.439587 0.152422
H9    H     H_    0.301797 0.180318 0.449380 0.173858
H10   H     H_    0.697966 0.819749 0.552041 0.174558
H11   H     H_    0.706874 0.010429 0.571567 0.142348
H12   H     H_    0.292037 0.989625 0.431561 0.142382
H13   H     H_    0.182508 0.403193 0.413564 0.146620
H14   H     H_    0.817482 0.597123 0.586217 0.147588
N1    N     N_R   0.207800 0.519350 0.516680 -0.116822
N2    N     N_R   0.792200 0.480650 0.483320 -0.116594
O1    O     O_R   0.421700 0.658830 0.504450 -0.635562
O2    O     O_R   0.578300 0.341170 0.495550 -0.635485
O3    O     O_R   0.609310 0.646410 0.493750 -0.617718
O4    O     O_R   0.390690 0.353590 0.506250 -0.619344
O5    O     O_R   0.406180 0.506230 0.637500 -0.642897
O6    O     O_R   0.593820 0.493770 0.362500 -0.642682
O7    O     O_R   0.593800 0.493820 0.626800 -0.603903
O8    O     O_R   0.406200 0.506180 0.373200 -0.603395
Zn1   Zn    Zn3+2 0.374730 0.508290 0.507150 0.944321
Zn2   Zn    Zn3+2 0.625270 0.491710 0.492850 0.944165
I1    I     I_    0.437309 0.260901 0.254606 -0.496946
I2    I     I_    0.567687 0.737182 0.745181 -0.510843
C39   C     C_3   0.567084 0.791891 0.106194 -0.418658
C40   C     C_3   0.686884 0.804446 0.134037 -0.333463
C41   C     C_3   0.703753 0.903373 0.193744 -0.878735
H15   H     H_    0.685439 0.973390 0.157687 0.269831
H16   H     H_    0.648407 0.899053 0.256670 0.268522
H17   H     H_    0.791331 0.911510 0.211852 0.251030
H18   H     H_    0.707775 0.736198 0.171221 0.227708
H19   H     H_    0.745134 0.809108 0.072734 0.228360
H20   H     H_    0.552822 0.857971 0.063666 0.202476
H21   H     H_    0.505944 0.799840 0.165416 0.203103
C42   C     C_3   0.420383 0.208662 0.894014 -0.421881
C43   C     C_3   0.524245 0.160420 0.846502 -0.354644
C44   C     C_3   0.493171 0.063708 0.787812 -0.842838
H22   H     H_    0.447588 0.003463 0.829383 0.271662
H23   H     H_    0.440358 0.084878 0.734455 0.262090
H24   H     H_    0.569780 0.030077 0.755027 0.266311
H25   H     H_    0.572140 0.217739 0.803396 0.225491
H26   H     H_    0.579138 0.137748 0.897926 0.229946
H27   H     H_    0.379929 0.151027 0.941054 0.201128
H28   H     H_    0.357489 0.220739 0.845558 0.201492
C45   C     C_3   0.221058 0.665456 0.639735 -0.375147
C46   C     C_3   0.207779 0.780014 0.618373 -0.386392
C47   C     C_3   0.281214 0.854928 0.673774 -0.829705
H29   H     H_    0.259496 0.846310 0.746827 0.263509
H30   H     H_    0.370141 0.839111 0.658073 0.291467
H31   H     H_    0.268750 0.936771 0.657360 0.248226
H32   H     H_    0.229977 0.790784 0.545754 0.232276
H33   H     H_    0.120070 0.800994 0.633377 0.217105
H34   H     H_    0.189428 0.653180 0.710622 0.180448
H35   H     H_    0.309430 0.651852 0.636144 0.274291
C48   C     C_3   0.779163 0.333563 0.361275 -0.373775
C49   C     C_3   0.792214 0.219900 0.385315 -0.386089
C50   C     C_3   0.719712 0.143259 0.330892 -0.829318
H36   H     H_    0.630687 0.159508 0.345047 0.292318
H37   H     H_    0.742853 0.149284 0.257758 0.264881
H38   H     H_    0.731742 0.062299 0.349917 0.252262
H39   H     H_    0.880063 0.198773 0.371589 0.216796
H40   H     H_    0.769169 0.211229 0.458092 0.232573
H41   H     H_    0.690867 0.347573 0.363977 0.273398
H42   H     H_    0.811373 0.343849 0.290225 0.179552

loop_
_geom_bond_atom_site_label_1
_geom_bond_atom_site_label_2
_ccdc_geom_bond_type
C45   C46   S    
C8    C13   A    
C27   C29   A    
C11   C13   A    
C24   C27   S    
C6    C9    A    
C48   C49   S    
C42   C43   S    
C23   O5    A    
C3    H5    S    
C16   C21   A    
C19   C21   A    
C20   H13   S    
C40   H19   S    
C49   H39   S    
C7    C9    A    
C41   H16   S    
C18   N1    A    
C19   H14   S    
C15   C22   A    
C40   C41   S    
C45   H34   S    
O2    Zn2   S    
C32   C38   A    
C47   H30   S    
C48   H41   S    
C4    C35   A    
C42   H27   S    
C21   C22   A    
C43   H25   S    
C7    C14   A    
C46   H33   S    
C39   C40   S    
C26   I2    S    
C25   I1    S    
C7    H11   S    
C5    C12   A    
C6    C11   A    
C44   H23   S    
C43   C44   S    
C20   N1    A    
C4    H6    S    
C40   H18   S    
C31   C37   A    
O1    Zn1   S    
C32   C34   A    
O7    Zn2   S    
O8    Zn1   S    
C1    O3    A    
C50   H36   S    
C24   O6    A    
C45   H35   S    
C31   C33   A    
C33   C34   A    
C16   C18   A    
C23   C28   S    
C47   H31   S    
C15   H1    S    
C25   C35   A    
C48   H42   S    
C19   N2    A    
C26   C36   A    
C50   H37   S    
C16   H2    S    
C42   H28   S    
C13   C14   A    
C2    C5    S    
C39   H20   S    
C8    H12   S    
C10   H9    S    
C41   H17   S    
O3    Zn2   S    
O4    Zn1   S    
C15   C17   A    
C46   H32   S    
C24   O8    A    
C29   H3    S    
O5    Zn1   S    
C20   C22   A    
C12   H7    S    
C44   H24   S    
C2    O4    A    
C38   C42   S    
C25   C27   A    
C26   C28   A    
C18   C45   S    
O6    Zn2   S    
C28   C30   A    
C12   C14   A    
C5    C10   A    
C29   C31   A    
C2    O2    A    
C30   C32   A    
N1    Zn1   S    
N2    Zn2   S    
C3    C36   A    
C49   H40   S    
C37   C39   S    
C33   C35   A    
C34   C36   A    
C1    O1    A    
C41   H15   S    
C44   H22   S    
C43   H26   S    
C23   O7    A    
C50   H38   S    
C46   C47   S    
C3    C37   A    
C9    H10   S    
C8    C10   A    
C49   C50   S    
C1    C6    S    
C30   H4    S    
C11   H8    S    
C39   H21   S    
C47   H29   S    
C4    C38   A    
C17   C48   S    
C17   N2    A    
