data_mof_unit_66777.cif
_audit_creation_date              2012-12-11T14:22:42-0500
_audit_creation_method            fapswitch 2.2
_symmetry_space_group_name_H-M    P1
_symmetry_Int_Tables_number       1
_space_group_crystal_system       triclinic
_cell_length_a                    8.265294
_cell_length_b                    14.27001
_cell_length_c                    15.059148
_cell_angle_alpha                 92.885551
_cell_angle_beta                  99.249929
_cell_angle_gamma                 90.925775
_cell_volume                      1750.31487375

loop_
_atom_site_label
_atom_site_type_symbol
_atom_type_description
_atom_site_fract_x
_atom_site_fract_y
_atom_site_fract_z
_atom_type_partial_charge
Ba1   Ba    Ba6+2 0.142880 0.544780 0.454020 1.633507
Ba2   Ba    Ba6+2 0.667290 0.455210 0.545900 1.627244
C1    C     C_3   0.257904 0.767829 0.096482 -0.383720
C2    C     C_R   0.820580 0.803257 0.494807 0.047256
C3    C     C_R   0.666361 0.772414 0.449259 -0.278917
C4    C     C_3   0.800009 0.795475 0.220934 0.374114
C5    C     C_R   0.557200 0.833214 0.401980 -0.007336
C6    C     C_R   0.607694 0.926780 0.392565 -0.027189
C7    C     C_R   0.760835 0.962036 0.441375 0.005390
C8    C     C_R   0.868007 0.900308 0.492995 -0.037763
C9    C     C_R   0.952151 0.096508 0.492196 -0.030579
C10   C     C_R   0.062628 0.033893 0.538600 0.007427
C11   C     C_R   0.993849 0.194841 0.496806 0.028543
C12   C     C_3   0.306252 0.740895 0.193457 0.379918
C13   C     C_R   0.147418 0.225916 0.541515 -0.286002
C14   C     C_R   0.261560 0.163087 0.579488 0.022347
C15   C     C_R   0.217919 0.068013 0.581389 -0.162809
C16   C     C_3   0.692159 0.850922 0.150549 -0.202380
C17   C     C_R   0.804935 0.059006 0.442902 -0.061968
C18   C     C_R   0.246250 0.464647 0.770004 -0.267537
C19   C     C_R   0.154304 0.431523 0.832181 0.003757
C20   C     C_R   0.209528 0.448738 0.924842 -0.125192
C21   C     C_R   0.355467 0.503047 0.956472 0.018737
C22   C     C_R   0.437751 0.541641 0.890556 -0.135449
C23   C     C_3   0.524103 0.743269 0.652230 0.308237
C24   C     C_R   0.384810 0.521602 0.798843 0.033939
C25   C     C_R   0.582444 0.560061 0.084772 -0.145310
C26   C     C_R   0.649963 0.569621 0.175922 0.001780
C27   C     C_R   0.414640 0.488965 0.214441 0.064921
C28   C     C_3   0.769661 0.343793 0.277077 0.299511
C29   C     C_R   0.342654 0.482220 0.123341 -0.137095
C30   C     C_R   0.424991 0.517462 0.055826 0.008720
C31   C     C_R   0.563872 0.536663 0.240582 -0.281052
C32   C     C_3   0.817585 0.334294 0.183914 -0.411683
C33   C     C_3   0.041904 0.663075 0.723227 0.319998
C34   C     C_3   0.512460 0.849493 0.662119 -0.388022
C35   C     C_3   0.079540 0.689449 0.824743 -0.210364
C36   C     C_3   0.214340 0.258043 0.325716 0.331466
C37   C     C_3   0.139858 0.171703 0.269614 -0.399135
C38   C     C_3   0.925871 0.710811 0.867314 -0.172926
C39   C     C_3   0.883608 0.814428 0.866035 -0.402281
C40   C     C_3   0.989572 0.141148 0.736464 -0.154452
C41   C     C_3   0.855180 0.064580 0.732526 -0.348079
C42   C     C_3   0.162374 0.064342 0.910994 -0.239547
C43   C     C_3   0.226991 0.034666 0.005982 -0.434021
C44   C     C_3   0.579944 0.294455 0.966612 -0.238840
C45   C     C_3   0.025797 0.203274 0.824935 0.364868
C46   C     C_3   0.475469 0.270535 0.037582 -0.419385
C47   C     C_3   0.487392 0.991621 0.341570 -0.226607
C48   C     C_3   0.391954 0.041614 0.407483 -0.349617
C49   C     C_3   0.789254 0.917760 0.100770 -0.194996
C50   C     C_3   0.860267 0.003477 0.160174 -0.426901
C51   C     C_3   0.043403 0.146395 0.911352 -0.164018
C52   C     C_3   0.515835 0.248781 0.798729 0.348104
C53   C     C_3   0.570503 0.215422 0.893277 -0.197837
C54   C     C_R   0.018083 0.938154 0.541193 -0.038144
H1    H     H_    0.245594 0.672475 0.201095 0.096038
H2    H     H_    0.282051 0.238066 0.390969 -0.019495
H3    H     H_    0.122748 0.771907 0.079347 0.148329
H4    H     H_    0.068041 0.192600 0.205363 0.115333
H5    H     H_    0.057354 0.133148 0.307161 0.080593
H6    H     H_    0.237808 0.125044 0.252633 0.121307
H7    H     H_    0.441225 0.733265 0.206818 -0.087610
H8    H     H_    0.301187 0.714466 0.050017 0.072050
H9    H     H_    0.649401 0.725385 0.640685 0.006772
H10   H     H_    0.432936 0.718507 0.592791 0.070014
H11   H     H_    0.605026 0.878627 0.719232 0.112455
H12   H     H_    0.776236 0.264650 0.151611 0.119453
H13   H     H_    0.534802 0.881282 0.599079 0.055598
H14   H     H_    0.387721 0.868237 0.675275 0.118495
H15   H     H_    0.313977 0.837097 0.087270 0.101521
H16   H     H_    0.621277 0.800086 0.100167 0.081753
H17   H     H_    0.146544 0.239137 0.826574 -0.053003
H18   H     H_    0.923616 0.116676 0.921749 0.088934
H19   H     H_    0.085069 0.196143 0.970199 0.084349
H20   H     H_    0.388992 0.274387 0.792556 -0.067789
H21   H     H_    0.598645 0.307283 0.787296 0.120540
H22   H     H_    0.692162 0.184569 0.896733 0.126008
H23   H     H_    0.762610 0.390867 0.142086 0.077547
H24   H     H_    0.885725 0.843385 0.267023 0.067452
H25   H     H_    0.489823 0.157150 0.905858 0.101636
H26   H     H_    0.627209 0.700431 0.454291 0.067488
H27   H     H_    0.305716 0.020934 0.615420 0.070754
H28   H     H_    0.181637 0.299597 0.543179 0.071810
H29   H     H_    0.102231 0.894023 0.581480 0.096886
H30   H     H_    0.724116 0.106898 0.406495 0.109565
H31   H     H_    0.659125 0.583583 0.038575 0.069286
H32   H     H_    0.134913 0.420355 0.969901 0.061386
H33   H     H_    0.226411 0.445126 0.107007 0.084578
H34   H     H_    0.952088 0.340009 0.187968 0.134759
H35   H     H_    0.718327 0.763320 0.263428 -0.086073
H36   H     H_    0.540759 0.589852 0.907793 0.060286
H37   H     H_    0.618639 0.542073 0.310953 0.068980
H38   H     H_    0.202761 0.452278 0.698596 0.065857
H39   H     H_    0.602221 0.891292 0.183368 0.062148
H40   H     H_    0.635019 0.347921 0.269894 0.019941
H41   H     H_    0.827172 0.410015 0.310034 0.066307
H42   H     H_    0.983085 0.857128 0.908537 0.115911
H43   H     H_    0.866616 0.838214 0.796366 0.160342
H44   H     H_    0.768109 0.825297 0.893583 0.118593
H45   H     H_    0.155823 0.639388 0.700447 -0.013282
H46   H     H_    0.818984 0.667746 0.833041 0.147058
H47   H     H_    0.948503 0.691463 0.938808 0.108579
H48   H     H_    0.910118 0.996345 0.749997 0.077025
H49   H     H_    0.767624 0.081743 0.778953 0.166249
H50   H     H_    0.787186 0.053944 0.662700 0.156495
H51   H     H_    0.954784 0.187201 0.679442 0.116883
H52   H     H_    0.104950 0.106645 0.726690 0.050174
H53   H     H_    0.282372 0.095291 0.050114 0.137466
H54   H     H_    0.125550 0.003561 0.035979 0.138435
H55   H     H_    0.322161 0.981008 0.002564 0.125865
H56   H     H_    0.949729 0.604578 0.710724 0.065151
H57   H     H_    0.099334 0.002403 0.872658 0.122637
H58   H     H_    0.265178 0.082454 0.876237 0.116608
H59   H     H_    0.344279 0.267058 0.007105 0.129616
H60   H     H_    0.512035 0.202457 0.066175 0.134402
H61   H     H_    0.492659 0.324788 0.093411 0.129534
H62   H     H_    0.709698 0.305811 0.998742 0.133111
H63   H     H_    0.540063 0.361231 0.937336 0.127344
H64   H     H_    0.412322 0.009238 0.473668 0.137992
H65   H     H_    0.434274 0.115734 0.418360 0.135666
H66   H     H_    0.258501 0.036404 0.382149 0.116276
H67   H     H_    0.169931 0.749141 0.837940 0.119458
H68   H     H_    0.548564 0.041936 0.303157 0.086585
H69   H     H_    0.401723 0.953776 0.287617 0.135491
H70   H     H_    0.764603 0.037296 0.193983 0.135653
H71   H     H_    0.963711 0.983354 0.211750 0.146119
H72   H     H_    0.907081 0.055500 0.117739 0.120956
H73   H     H_    0.889456 0.880090 0.074143 0.142027
H74   H     H_    0.704567 0.942835 0.042197 0.103773
H75   H     H_    0.138599 0.629217 0.858805 0.041288
H76   H     H_    0.113662 0.302975 0.339747 0.049797
O1    O     O_2   0.113690 0.728200 0.532750 -0.463627
O2    O     O_2   0.823266 0.443783 0.823929 -0.491112
O3    O     O_3   0.899558 0.268853 0.827326 -0.613412
O4    O     O_3   0.871900 0.612110 0.540440 -0.490562
O5    O     O_3   0.421180 0.451020 0.394720 -0.473708
O6    O     O_2   0.662730 0.548230 0.717350 -0.463799
O7    O     O_3   0.491759 0.704221 0.731519 -0.647647
O8    O     O_2   0.598154 0.166508 0.576273 -0.486482
O9    O     O_3   0.524661 0.172913 0.737119 -0.625612
O10   O     O_3   0.325660 0.668890 0.372600 -0.480245
O11   O     O_2   0.223827 0.833822 0.421053 -0.478320
O12   O     O_3   0.323708 0.301931 0.278369 -0.638623
O13   O     O_3   0.986156 0.741806 0.676842 -0.652025
O14   O     O_3   0.255145 0.810339 0.251765 -0.595734
O15   O     O_2   0.147570 0.451710 0.282630 -0.486376
O16   O     O_3   0.905540 0.621350 0.329600 -0.469447
O17   O     O_2   0.986314 0.556218 0.173856 -0.494360
O18   O     O_3   0.891609 0.730242 0.177366 -0.597891
O19   O     O_2   0.696600 0.271740 0.467230 -0.443508
O20   O     O_3   0.938380 0.387880 0.459490 -0.498838
O21   O     O_3   0.484630 0.331100 0.627330 -0.477724
O22   O     O_3   0.817559 0.262825 0.322537 -0.648242
O23   O     O_3   0.389110 0.548970 0.605210 -0.478716
O24   O     O_3   0.904740 0.378630 0.670330 -0.469711
P1    P     P_3+3 0.947560 0.714050 0.560480 0.971140
P2    P     P_3+3 0.325150 0.423860 0.297970 0.972031
P3    P     P_3+3 0.858633 0.617376 0.212468 0.957168
P4    P     P_3+3 0.862730 0.285940 0.439440 0.967724
P5    P     P_3+3 0.949667 0.378866 0.788823 0.928097
P6    P     P_3+3 0.342477 0.788807 0.362614 0.949161
P7    P     P_3+3 0.481608 0.581638 0.715494 0.934685
P8    P     P_3+3 0.467057 0.208736 0.627819 0.945572

loop_
_geom_bond_atom_site_label_1
_geom_bond_atom_site_label_2
_ccdc_geom_bond_type
C27   P2    S    
O20   P4    S    
Ba2   O23   S    
C51   H18   S    
C48   H66   S    
C17   H30   S    
C49   H73   S    
C34   H11   S    
C5    C6    A    
C1    H8    S    
C14   P8    S    
O14   P6    S    
C28   H41   S    
C9    C17   A    
O5    P2    S    
C48   H64   S    
Ba1   P2    S    
C33   C35   S    
C22   C24   A    
C35   C38   S    
C33   O13   S    
C36   C37   S    
C43   H53   S    
O10   P6    S    
C37   H4    S    
C13   C14   A    
C27   C31   A    
C24   P7    S    
C44   H62   S    
Ba1   O20   S    
Ba1   Ba2   S    
C41   H49   S    
Ba1   O23   S    
C41   H48   S    
C28   H40   S    
Ba1   O10   S    
C36   H2    S    
C42   C51   S    
C7    C17   A    
C29   C30   A    
C14   C15   A    
C29   H33   S    
C44   C53   S    
C13   H28   S    
C21   C22   A    
C39   H43   S    
O6    P7    D    
C20   H32   S    
C53   H25   S    
Ba1   O4    S    
C8    C54   A    
C40   H51   S    
O11   P6    D    
C46   H60   S    
C52   H21   S    
C45   O3    S    
C42   H58   S    
C35   H67   S    
C19   C20   A    
C16   H16   S    
C16   H39   S    
O3    P5    S    
C51   H19   S    
C48   H65   S    
Ba1   O1    S    
C22   H36   S    
C49   H74   S    
C34   H14   S    
C16   C49   S    
C50   H72   S    
Ba2   O20   S    
C4    C16   S    
C5    P6    S    
C44   C46   S    
C19   P5    S    
O18   P3    S    
C28   C32   S    
O21   P8    S    
C49   C50   S    
Ba2   O6    S    
C23   H9    S    
C45   H17   S    
C32   H12   S    
C3    C5    A    
C53   H22   S    
C50   H70   S    
C43   H54   S    
C6    C7    A    
O23   P7    S    
C47   H68   S    
C26   P3    S    
Ba2   O4    S    
C35   H75   S    
C15   H27   S    
O16   P3    S    
C36   H76   S    
C10   C15   A    
C1    H15   S    
C32   H34   S    
O22   P4    S    
C32   H23   S    
O13   P1    S    
C4    H24   S    
C2    P1    S    
O24   P5    S    
C39   H44   S    
C25   H31   S    
O17   P3    D    
C10   C54   A    
C1    C12   S    
C46   H59   S    
C52   H20   S    
O4    P1    S    
C38   C39   S    
C42   H57   S    
Ba2   O21   S    
C11   C13   A    
Ba1   O15   S    
C50   H71   S    
C40   C41   S    
O12   P2    S    
C37   H5    S    
Ba1   O5    S    
C42   C43   S    
C7    C8    A    
Ba2   O19   S    
C12   H1    S    
C18   H38   S    
C52   C53   S    
Ba2   O24   S    
C11   P4    S    
C23   O7    S    
C25   C30   A    
C39   H42   S    
Ba2   O5    S    
C36   O12   S    
C23   H10   S    
C2    C3    A    
C33   H45   S    
C31   H37   S    
C26   C31   A    
C9    C10   A    
C43   H55   S    
C46   H61   S    
O8    P8    D    
C47   H69   S    
C12   O14   S    
O2    P5    D    
C45   C51   S    
O19   P4    D    
O7    P7    S    
C27   C29   A    
C21   C30   S    
C38   H47   S    
C3    H26   S    
C9    C11   A    
C54   H29   S    
C18   C24   A    
C12   H7    S    
Ba1   P1    S    
C44   H63   S    
O1    P1    D    
C40   C45   S    
C34   H13   S    
C40   H52   S    
C23   C34   S    
C38   H46   S    
C4    O18   S    
C28   O22   S    
C52   O9    S    
C18   C19   A    
O9    P8    S    
Ba2   P4    S    
C47   C48   S    
C25   C26   A    
C37   H6    S    
C20   C21   A    
Ba1   O16   S    
O15   P2    D    
C2    C8    A    
C6    C47   S    
C41   H50   S    
C33   H56   S    
C4    H35   S    
C1    H3    S    
