data_mof_unit_59515.cif
_audit_creation_date              2013-03-05T15:43:09-0500
_audit_creation_method            fapswitch 2.2
_symmetry_space_group_name_H-M    P1
_symmetry_Int_Tables_number       1
_space_group_crystal_system       triclinic
_cell_length_a                    6.967254
_cell_length_b                    13.821696
_cell_length_c                    18.313241
_cell_angle_alpha                 112.768857
_cell_angle_beta                  94.759029
_cell_angle_gamma                 90.397205
_cell_volume                      1619.05506414

loop_
_atom_site_label
_atom_site_type_symbol
_atom_site_description
_atom_site_fract_x
_atom_site_fract_y
_atom_site_fract_z
_atom_type_partial_charge
O1    O     O_R   0.484560 0.544530 0.414330 -0.568677
O2    O     O_R   0.197040 0.638810 0.585080 -0.560292
O3    O     O_R   0.026800 0.455470 0.585670 -0.569766
C1    C     C_R   0.370630 0.683489 0.589740 0.792956
O4    O     O_R   0.155000 0.556150 0.414940 -0.570280
O5    O     O_R   0.984450 0.372220 0.414320 -0.562273
C2    C     C_R   0.318674 0.564612 0.386647 0.813804
O6    O     O_R   0.526900 0.627780 0.585680 -0.553431
O7    O     O_3   0.339170 0.439750 0.499990 -0.287320
V1    V     V_3+5 0.064350 0.511180 0.500000 1.096281
O8    O     O_R   0.654880 0.361190 0.414920 -0.563583
C3    C     C_R   0.816681 0.327277 0.385453 0.849417
O9    O     O_R   0.696930 0.443850 0.585060 -0.567786
C4    C     C_R   0.871979 0.427535 0.608004 0.819210
V2    V     V_3+5 0.564340 0.488820 0.500000 1.100722
O10   O     O_3   0.839390 0.560250 0.500010 -0.291665
C5    C     C_R   0.043865 0.855683 0.822434 -0.098700
C6    C     C_R   0.903339 0.382458 0.669068 -0.093873
C7    C     C_R   0.932335 0.806517 0.683953 -0.058250
C8    C     C_R   0.979161 0.778982 0.748362 -0.074989
C9    C     C_R   0.051602 0.961889 0.832594 -0.138085
C10   C     C_R   0.998953 0.992417 0.767780 0.047005
C11   C     C_R   0.946463 0.911516 0.692596 0.052039
C12   C     C_R   0.995451 0.099658 0.774672 0.040677
C13   C     C_R   0.951787 0.124344 0.705505 0.037073
C14   C     C_R   0.927737 0.038041 0.631726 -0.114109
C15   C     C_R   0.914604 0.935173 0.625703 -0.109706
C16   C     C_R   0.033255 0.182514 0.848905 -0.104593
C17   C     C_R   0.043425 0.285193 0.855913 -0.122212
C18   C     C_R   0.004483 0.311653 0.790564 0.049100
C19   C     C_R   0.945998 0.233629 0.713468 0.052664
C20   C     C_R   0.020184 0.418166 0.804436 -0.071934
C21   C     C_R   0.973242 0.452594 0.744421 -0.095034
C22   C     C_R   0.885169 0.272115 0.651536 -0.004230
H1    H     H_    0.887639 0.872789 0.567179 0.064695
H2    H     H_    0.990513 0.535643 0.757255 0.062166
H3    H     H_    0.079578 0.345884 0.914589 0.057735
H4    H     H_    0.884953 0.745385 0.626883 0.121418
H5    H     H_    0.964985 0.697400 0.740300 0.064922
H6    H     H_    0.098318 0.017812 0.891474 0.083076
H7    H     H_    0.928786 0.045010 0.576202 0.086435
H8    H     H_    0.056223 0.170890 0.903685 0.062615
H9    H     H_    0.069338 0.476108 0.862881 0.098608
H10   H     H_    0.109879 0.224251 0.305463 0.121039
C23   C     C_2   0.126678 0.037183 0.183403 -0.280765
C24   C     C_2   0.962451 0.078545 0.217103 -0.025114
H11   H     H_    0.668885 0.187987 0.295674 0.078715
C25   C     C_2   0.810046 0.226980 0.317184 -0.216929
C26   C     C_2   0.970168 0.183317 0.283253 -0.160306
H12   H     H_    0.262823 0.081916 0.205758 0.100050
C27   C     C_R   0.403617 0.794532 0.649883 -0.103070
C28   C     C_R   0.540327 0.483184 0.817774 -0.115042
C29   C     C_R   0.512119 0.895447 0.787390 -0.053344
C30   C     C_R   0.456646 0.800859 0.725425 -0.094710
C31   C     C_R   0.396850 0.890421 0.636715 -0.124096
C32   C     C_R   0.449110 0.991233 0.701435 0.064977
C33   C     C_R   0.518713 0.989425 0.775467 -0.003604
C34   C     C_R   0.437551 0.093745 0.697352 0.027230
C35   C     C_R   0.487403 0.189165 0.767741 0.019474
C36   C     C_R   0.539295 0.179171 0.840957 0.029012
C37   C     C_R   0.587206 0.081805 0.838661 -0.087079
C38   C     C_R   0.370087 0.104732 0.626684 -0.107576
C39   C     C_R   0.353976 0.203553 0.623588 -0.124675
C40   C     C_R   0.411465 0.295199 0.689322 0.045823
C41   C     C_R   0.485665 0.289865 0.761646 0.063823
C42   C     C_R   0.400063 0.392515 0.682211 -0.058198
C43   C     C_R   0.456734 0.485664 0.746588 -0.074513
C44   C     C_R   0.563658 0.385309 0.823199 -0.138791
H13   H     H_    0.666342 0.079504 0.890904 0.111259
H14   H     H_    0.645513 0.386295 0.875556 0.067308
H15   H     H_    0.435730 0.559844 0.740685 0.075440
H16   H     H_    0.308544 0.208643 0.567383 0.063034
H17   H     H_    0.452111 0.729103 0.736219 0.097448
H18   H     H_    0.351946 0.884765 0.577352 0.042189
H19   H     H_    0.328926 0.037615 0.572548 0.070531
H20   H     H_    0.343488 0.396522 0.626850 0.132530
H21   H     H_    0.333229 0.665919 0.195659 0.111277
H22   H     H_    0.615826 0.591315 0.306420 0.112587
C45   C     C_2   0.316529 0.601380 0.319496 -0.225793
C46   C     C_2   0.477336 0.610740 0.284918 -0.090660
H23   H     H_    0.770807 0.637762 0.205171 0.068099
C47   C     C_2   0.632692 0.656725 0.183005 -0.214366
C48   C     C_2   0.471842 0.646915 0.217374 -0.095824
H24   H     H_    0.178533 0.620604 0.297416 0.069446
O11   O     O_R   0.421600 0.630430 0.917010 -0.557476
O12   O     O_R   0.793840 0.702190 0.087630 -0.556005
O13   O     O_R   0.964010 0.886170 0.088190 -0.552427
C49   C     C_R   0.630182 0.693160 0.115690 0.846302
O14   O     O_R   0.751460 0.619510 0.917500 -0.560676
O15   O     O_R   0.921330 0.802900 0.916840 -0.527831
C50   C     C_R   0.575177 0.583196 0.888752 0.848873
O16   O     O_R   0.464290 0.713700 0.088350 -0.576362
O17   O     O_3   0.609200 0.818520 0.002630 -0.234135
V3    V     V_3+5 0.884140 0.747190 0.002530 1.158986
O18   O     O_R   0.251150 0.814630 0.917340 -0.538348
C51   C     C_R   0.075646 0.824501 0.890673 0.829743
O19   O     O_R   0.293530 0.897310 0.087470 -0.545218
C52   C     C_R   0.129825 0.933553 0.116001 0.849267
V4    V     V_3+5 0.384070 0.769710 0.002370 1.165530
O20   O     O_3   0.109180 0.698190 0.002460 -0.299029
C53   C     C_2   0.771790 0.021253 0.192088 0.920512
O21   O     O_2   0.655940 0.041632 0.146724 -0.622806
O22   O     O_R   0.724147 0.946939 0.222685 -0.775307
H25   H     H_    0.587340 0.916967 0.204471 0.304332
C54   C     C_2   0.543482 0.892302 0.865824 0.861657
O23   O     O_2   0.589944 0.809621 0.869179 -0.559354
O24   O     O_R   0.494865 0.976637 0.933624 -0.782041
H26   H     H_    0.535014 0.970835 0.985812 0.355577
C55   C     C_3   0.774101 0.205417 0.572257 -0.224881
C56   C     C_3   0.896962 0.169513 0.501292 -0.234393
C57   C     C_3   0.784295 0.088286 0.427867 -0.406241
H27   H     H_    0.741942 0.018385 0.439625 0.135381
H28   H     H_    0.652420 0.122385 0.410975 0.136275
H29   H     H_    0.876356 0.062278 0.377690 0.161779
H30   H     H_    0.941981 0.237694 0.488339 0.121236
H31   H     H_    0.029530 0.133377 0.513642 0.119526
H32   H     H_    0.695052 0.138800 0.576314 0.118015
H33   H     H_    0.656361 0.251040 0.558562 0.116378
C58   C     C_3   0.493862 0.257241 0.922743 -0.189365
C59   C     C_3   0.669545 0.295999 0.984935 -0.212512
C60   C     C_3   0.613518 0.379801 0.062308 -0.411148
H34   H     H_    0.554940 0.447977 0.051256 0.118596
H35   H     H_    0.503199 0.347122 0.087966 0.145606
H36   H     H_    0.742562 0.407366 0.106006 0.126986
H37   H     H_    0.730034 0.229991 0.998365 0.134234
H38   H     H_    0.784363 0.330056 0.963069 0.117977
H39   H     H_    0.413841 0.324257 0.919374 0.097563
H40   H     H_    0.391506 0.216779 0.946161 0.126557

loop_
_geom_bond_atom_site_label_1
_geom_bond_atom_site_label_2
_geom_bond_distance
_ccdc_geom_bond_type
H10   C26   1.087012 S    
C34   C38   1.403933 A    
C31   C32   1.456696 A    
C13   C19   1.461464 A    
C53   O21   1.222303 D    
C4    C6    1.478887 S    
O2    C1    1.335333 A    
O18   C51   1.306566 A    
C1    O6    1.328376 A    
C21   H2    1.082554 S    
H23   C47   1.086511 S    
O11   C50   1.295762 A    
C55   H32   1.099705 S    
C23   C24   1.367501 D    
C54   O24   1.403620 S    
C24   C26   1.482486 S    
C14   C15   1.384629 A    
O17   V3    2.160280 S    
C16   C17   1.375398 A    
C23   C52   1.487332 S    
O5    C3    1.290292 A    
C45   H24   1.086585 S    
C59   H38   1.102591 S    
H21   C48   1.086484 S    
O18   V4    2.045711 S    
V2    O10   2.149574 S    
O13   V3    1.992085 S    
O19   C52   1.314940 A    
C5    C8    1.394982 A    
O12   C49   1.313279 A    
C32   C33   1.411095 A    
C36   C58   1.529806 S    
O14   V3    2.001291 S    
C56   C57   1.526056 S    
C60   H36   1.110759 S    
O12   V3    2.029536 S    
C31   H18   1.078553 S    
O8    V2    1.997132 S    
V4    O20   2.149612 S    
O24   H26   1.006656 S    
O1    V2    2.039512 S    
C11   C15   1.386664 A    
O14   C50   1.310427 A    
O7    V1    2.160345 S    
O17   V4    1.702078 S    
C27   C31   1.436410 A    
C28   C44   1.403835 A    
C3    C25   1.461155 S    
O13   C52   1.287117 A    
C58   H40   1.111797 S    
C42   C43   1.394366 A    
C35   C36   1.418189 A    
C53   O22   1.396701 S    
O9    C4    1.306511 A    
C46   C48   1.500878 S    
O19   V4    1.997061 S    
C55   H33   1.108569 S    
O15   V3    2.030424 S    
C24   C53   1.484979 S    
C19   C22   1.462616 A    
C1    C27   1.505398 S    
C49   O16   1.298362 A    
C12   C13   1.444119 A    
O4    C2    1.313643 A    
C8    H5    1.081756 S    
C29   C33   1.399081 A    
C59   H37   1.110082 S    
C15   H1    1.084655 S    
C34   C35   1.457786 A    
C29   C30   1.384989 A    
C5    C9    1.406499 A    
C45   C46   1.360918 D    
C36   C37   1.374414 A    
C40   C42   1.402793 A    
C7    C11   1.399479 A    
C17   C18   1.387754 A    
O11   V4    1.990847 S    
C7    H4    1.081933 S    
C30   H17   1.084467 S    
H11   C25   1.084874 S    
V3    O20   1.712138 S    
C58   C59   1.539386 S    
C41   C44   1.429556 A    
C42   H20   1.078771 S    
C38   C39   1.393720 A    
H22   C46   1.086522 S    
C57   H28   1.110721 S    
C5    C51   1.472675 S    
C33   C37   1.397686 A    
C6    C22   1.434116 A    
C60   H34   1.111177 S    
O3    C4    1.292119 A    
C25   C26   1.352414 D    
O6    V2    1.990273 S    
O9    V2    2.045690 S    
C10   C12   1.438668 A    
C38   H19   1.078401 S    
O2    V1    2.001285 S    
C56   H31   1.101311 S    
C59   C60   1.526250 S    
C2    C45   1.500530 S    
C37   H13   1.075470 S    
C57   H27   1.111083 S    
O1    C2    1.298465 A    
C12   C16   1.400114 A    
C28   C43   1.395966 A    
O5    V1    1.992090 S    
O8    C3    1.301627 A    
O15   C51   1.290940 A    
C54   O23   1.212730 D    
C27   C30   1.370806 A    
C20   C21   1.374286 A    
C7    C8    1.388494 A    
C13   C14   1.410209 A    
O4    V1    2.029525 S    
O3    V1    2.030559 S    
V1    O10   1.712099 S    
C55   C56   1.535994 S    
C40   C41   1.410491 A    
C18   C20   1.395532 A    
C18   C19   1.429104 A    
C9    H6    1.076676 S    
C23   H12   1.086807 S    
C47   C49   1.500216 S    
C16   H8    1.075332 S    
C20   H9    1.084497 S    
C32   C34   1.449899 A    
C57   H29   1.109202 S    
C43   H15   1.081483 S    
O7    V2    1.704783 S    
C6    C21   1.388427 A    
C60   H35   1.111302 S    
C39   C40   1.395266 A    
C29   C54   1.452307 S    
C39   H16   1.080227 S    
C14   H7    1.058438 S    
C44   H14   1.069498 S    
C47   C48   1.360685 D    
C17   H3    1.084537 S    
O22   H25   1.013030 S    
C22   C55   1.524549 S    
C10   C11   1.413833 A    
C28   C50   1.487136 S    
C9    C10   1.427944 A    
C56   H30   1.106345 S    
C35   C41   1.438769 A    
O16   V4    2.048039 S    
C58   H39   1.103785 S    
