data_mof_unit_36355.cif
_audit_creation_date              2013-03-05T15:50:49-0500
_audit_creation_method            fapswitch 2.2
_symmetry_space_group_name_H-M    P1
_symmetry_Int_Tables_number       1
_space_group_crystal_system       triclinic
_cell_length_a                    9.596289
_cell_length_b                    10.8806
_cell_length_c                    15.607641
_cell_angle_alpha                 86.290526
_cell_angle_beta                  72.565225
_cell_angle_gamma                 91.054395
_cell_volume                      1550.2985938

loop_
_atom_site_label
_atom_site_type_symbol
_atom_site_description
_atom_site_fract_x
_atom_site_fract_y
_atom_site_fract_z
_atom_type_partial_charge
O1    O     O_R   0.118810 0.319640 0.500010 -0.572239
O2    O     O_R   0.881240 0.319660 0.500000 -0.520245
C1    C     C_R   0.002430 0.263433 0.492978 0.852444
O3    O     O_R   0.055570 0.499980 0.629840 -0.488755
O4    O     O_R   0.818000 0.500010 0.629830 -0.588601
C2    C     C_R   0.916080 0.498507 0.672357 0.883464
Cu1   Cu    Cu3+1 0.140660 0.499990 0.500010 1.027987
Cu2   Cu    Cu3+1 0.859340 0.500010 0.499990 0.983820
O5    O     O_R   0.118760 0.680340 0.500000 -0.629143
O6    O     O_R   0.881190 0.680360 0.499990 -0.603507
O7    O     O_R   0.182000 0.499990 0.370170 -0.562150
O8    O     O_R   0.944430 0.500020 0.370160 -0.604611
C3    C     C_R   0.000351 0.737682 0.503764 0.807173
C4    C     C_R   0.084482 0.491493 0.328041 0.769759
C5    C     C_R   0.867760 0.486062 0.771596 -0.211231
C6    C     C_R   0.135535 0.451788 0.234193 -0.142602
C7    C     C_R   0.922692 0.487356 0.913183 -0.192912
C8    C     C_R   0.966048 0.509647 0.820175 0.695429
C9    C     C_R   0.723642 0.444268 0.818149 -0.237794
C10   C     C_R   0.678632 0.417995 0.912223 0.143559
C11   C     C_R   0.780961 0.442069 0.959265 0.053153
C12   C     C_R   0.532231 0.377896 0.962489 -0.064760
C13   C     C_R   0.487725 0.390354 0.056169 0.029609
C14   C     C_R   0.596099 0.390349 0.099803 -0.062900
C15   C     C_R   0.740316 0.420329 0.052370 -0.154746
C16   C     C_R   0.430757 0.321009 0.925636 0.214586
C17   C     C_R   0.282725 0.301738 0.978695 0.249311
C18   C     C_R   0.234086 0.346747 0.065371 -0.047419
C19   C     C_R   0.337027 0.395549 0.103740 -0.059217
C20   C     C_R   0.084709 0.343519 0.114537 -0.135865
C21   C     C_R   0.036426 0.394215 0.197915 -0.252913
C22   C     C_R   0.286567 0.455354 0.185328 0.329786
H1    H     H_    0.818404 0.431037 0.089134 0.137950
H2    H     H_    0.920885 0.387143 0.234531 0.181720
H3    H     H_    0.000172 0.506189 0.949420 0.172382
H4    H     H_    0.646797 0.435868 0.780426 0.214858
H5    H     H_    0.570907 0.362836 0.170280 0.178811
H6    H     H_    0.004138 0.301392 0.088720 0.183029
C23   C     C_R   0.277334 0.131185 0.421951 -0.097500
H7    H     H_    0.285913 0.221181 0.386578 0.152074
C24   C     C_R   0.406492 0.077019 0.424586 -0.069798
H8    H     H_    0.510541 0.126381 0.394636 0.156964
C25   C     C_R   0.400196 0.962686 0.470907 -0.081160
H9    H     H_    0.499012 0.924280 0.479263 0.161731
C26   C     C_R   0.267254 0.895653 0.503894 -0.130289
H10   H     H_    0.268434 0.809372 0.541609 0.183029
C27   C     C_R   0.137465 0.943418 0.491747 0.091394
C28   C     C_R   0.140270 0.069681 0.464700 0.036103
C29   C     C_R   0.006206 0.130295 0.483276 -0.243377
C30   C     C_R   0.874214 0.060326 0.504621 0.617963
H11   H     H_    0.772356 0.881880 0.523566 0.192912
C31   C     C_R   0.875182 0.933082 0.511496 -0.260725
C32   C     C_R   0.004885 0.872564 0.505929 -0.189333
H12   H     H_    0.582265 0.349461 0.594964 0.221363
C33   C     C_R   0.704860 0.670744 0.382451 -0.121491
H13   H     H_    0.819157 0.673486 0.373235 0.199803
C34   C     C_R   0.661475 0.757026 0.327091 -0.213467
H14   H     H_    0.741203 0.821278 0.281314 0.169292
C35   C     C_R   0.517020 0.759343 0.328986 -0.120092
H15   H     H_    0.483839 0.825124 0.284481 0.175565
C36   C     C_R   0.415027 0.675446 0.386333 -0.035322
H16   H     H_    0.309292 0.678452 0.377831 0.200525
C37   C     C_R   0.453985 0.586938 0.444702 0.145230
C38   C     C_R   0.604027 0.585495 0.443513 0.186624
N1    N     N_R   0.648320 0.501210 0.499140 -0.238763
C39   C     C_R   0.547882 0.417007 0.552229 -0.042017
C40   C     C_R   0.400122 0.415793 0.552298 0.402625
N2    N     N_R   0.352470 0.501290 0.499110 -0.264985
F1    F     F_    0.743317 0.114063 0.519005 -0.641992
N3    N     N_R   0.385197 0.534812 0.211209 0.099965
O9    O     O_R   0.448110 0.493926 0.269880 -0.414992
O10   O     O_R   0.430499 0.639570 0.165257 -0.355489
N4    N     N_R   0.302516 0.321999 0.608309 0.157262
O11   O     O_R   0.217533 0.348856 0.686047 -0.223787
O12   O     O_R   0.333674 0.207271 0.596972 -0.311150
N5    N     N_R   0.184024 0.231061 0.946227 0.149980
O13   O     O_R   0.129177 0.125427 0.987537 -0.321683
O14   O     O_R   0.138935 0.276599 0.880623 -0.260555
F2    F     F_    0.103461 0.556632 0.778273 -0.611363
N6    N     N_R   0.481829 0.260254 0.843605 0.135478
O15   O     O_R   0.424505 0.281602 0.778754 -0.260640
O16   O     O_R   0.588634 0.185026 0.832783 -0.303132

loop_
_geom_bond_atom_site_label_1
_geom_bond_atom_site_label_2
_geom_bond_distance
_ccdc_geom_bond_type
C5    C8    1.405406 A    
C33   H13   1.062217 S    
N4    O12   1.299848 A    
N4    O11   1.297816 A    
C9    C10   1.408977 A    
C1    C29   1.466215 S    
Cu1   Cu2   2.699725 S    
C23   C24   1.392671 A    
C26   H10   1.077419 S    
C6    C21   1.401501 A    
Cu1   O7    1.944818 S    
C16   C17   1.417516 A    
C13   C19   1.418028 A    
C18   C19   1.411658 A    
C30   F1    1.358365 S    
N5    O14   1.299566 A    
C19   C22   1.424352 A    
C9    H4    1.078640 S    
C20   C21   1.397638 A    
O7    C4    1.300021 A    
C34   C35   1.378398 A    
C20   H6    1.080657 S    
C24   H8    1.082602 S    
C36   C37   1.414533 A    
O5    C3    1.294102 A    
Cu1   N2    2.028208 S    
C8    F2    1.357594 S    
C30   C31   1.382125 A    
C13   C14   1.403486 A    
N3    O9    1.299774 A    
C40   N4    1.428897 S    
C27   C32   1.426567 A    
C39   C40   1.417446 A    
C2    C5    1.473964 S    
Cu2   N1    2.029300 S    
C24   C25   1.388729 A    
O3    Cu1   1.944548 S    
C14   H5    1.073966 S    
C3    C32   1.470319 S    
C26   C27   1.417700 A    
C35   C36   1.388814 A    
C40   N2    1.380874 A    
N5    O13   1.300869 A    
O3    C2    1.303062 A    
C23   H7    1.081799 S    
C22   N3    1.431988 S    
C16   N6    1.435903 S    
H11   C31   1.083663 S    
O1    C1    1.300124 A    
C5    C9    1.406895 A    
C25   H9    1.082816 S    
C27   C28   1.408217 A    
Cu2   O8    1.944548 S    
C33   C38   1.415951 A    
C7    C8    1.388508 A    
C21   H2    1.083210 S    
C14   C15   1.381295 A    
C25   C26   1.395759 A    
N6    O16   1.301550 A    
C28   C29   1.416546 A    
O8    C4    1.315331 A    
N1    C39   1.358539 A    
C33   C34   1.387893 A    
C4    C6    1.493918 S    
C17   N5    1.434064 S    
C31   C32   1.401104 A    
Cu1   O5    1.977374 S    
C11   C15   1.390029 A    
C37   N2    1.380957 A    
O1    Cu1   1.969646 S    
O2    Cu2   1.977374 S    
C10   C12   1.432584 A    
N6    O15   1.299599 A    
O6    C3    1.311081 A    
O4    Cu2   1.944818 S    
H12   C39   1.082249 S    
C6    C22   1.419677 A    
C38   N1    1.381274 A    
C18   C20   1.407271 A    
O2    C1    1.302797 A    
C34   H14   1.082906 S    
O4    C2    1.303916 A    
C36   H16   1.062819 S    
C7    C11   1.397584 A    
C37   C38   1.434781 A    
C35   H15   1.082943 S    
C10   C11   1.421063 A    
Cu2   O6    1.969646 S    
C29   C30   1.404903 A    
C12   C16   1.421864 A    
C17   C18   1.415461 A    
C12   C13   1.411443 A    
N3    O10   1.300669 A    
C7    H3    1.084477 S    
C15   H1    1.080490 S    
C23   C28   1.416677 A    
