data_mof_unit_61784.cif
_audit_creation_date              2012-12-10T20:11:15-0500
_audit_creation_method            fapswitch 2.2
_symmetry_space_group_name_H-M    P1
_symmetry_Int_Tables_number       1
_space_group_crystal_system       triclinic
_cell_length_a                    41.058709
_cell_length_b                    35.541238
_cell_length_c                    21.731584
_cell_angle_alpha                 90.000097
_cell_angle_beta                  120.274626
_cell_angle_gamma                 89.999945
_cell_volume                      27387.4351847

loop_
_atom_site_label
_atom_site_type_symbol
_atom_type_description
_atom_site_fract_x
_atom_site_fract_y
_atom_site_fract_z
_atom_type_partial_charge
C1    C     C_R   0.426760 0.499995 0.927466 0.906672
C2    C     C_R   0.825903 0.480724 0.285860 -0.204378
C3    C     C_R   0.029640 0.673443 0.557033 0.210578
C4    C     C_R   0.470378 0.173442 0.442930 0.210600
C5    C     C_R   0.529622 0.173441 0.557073 0.210602
C6    C     C_R   0.970308 0.634022 0.442782 -0.005950
C7    C     C_R   0.029691 0.634023 0.557216 -0.005951
C8    C     C_R   0.470328 0.134021 0.442748 -0.006026
C9    C     C_R   0.529673 0.134021 0.557254 -0.006026
C10   C     C_R   1.000000 0.614319 0.500000 -0.167420
C11   C     C_R   0.500000 0.114318 0.500001 -0.167411
C12   C     C_R   0.999999 0.692836 0.499998 -0.036084
C13   C     C_R   0.674097 0.980710 0.714120 -0.204371
C14   C     C_R   0.500000 0.192833 0.500002 -0.036035
C15   C     C_1   0.999999 0.732983 0.499997 0.049146
C16   C     C_1   0.500000 0.232978 0.500003 0.049048
C17   C     C_R   0.999999 0.385395 0.499999 -0.147764
C18   C     C_R   0.500000 0.885395 0.500000 -0.147772
C19   C     C_1   0.500000 0.266573 0.500003 0.058883
C20   C     C_1   0.999999 0.766580 0.499997 0.058926
C21   C     C_R   0.527173 0.326085 0.491060 0.162986
C22   C     C_R   0.472828 0.326086 0.508944 0.162985
C23   C     C_R   0.027061 0.826097 0.490721 0.163060
C24   C     C_R   0.325903 0.980711 0.285880 -0.204371
C25   C     C_R   0.972938 0.826097 0.509274 0.163058
C26   C     C_R   0.527496 0.365686 0.492056 -0.016405
C27   C     C_R   0.472505 0.365687 0.507946 -0.016404
C28   C     C_R   0.027390 0.865698 0.491733 -0.016485
C29   C     C_R   0.972609 0.865698 0.508264 -0.016481
C30   C     C_R   0.500000 0.385342 0.500000 -0.114668
C31   C     C_R   1.000000 0.885349 0.499999 -0.114433
C32   C     C_R   0.500000 0.306743 0.500003 0.007195
C33   C     C_R   0.999999 0.806752 0.499997 0.007171
C34   C     C_R   0.991780 0.326261 0.547292 0.232737
C35   C     C_R   0.134690 0.479613 0.676092 0.072780
C36   C     C_R   0.008217 0.326261 0.452705 0.232754
C37   C     C_R   0.491783 0.826261 0.547296 0.232746
C38   C     C_R   0.508218 0.826261 0.452705 0.232747
C39   C     C_R   0.992422 0.365739 0.547185 -0.229017
C40   C     C_R   0.007576 0.365739 0.452813 -0.229018
C41   C     C_R   0.492425 0.865739 0.547189 -0.229010
C42   C     C_R   0.507576 0.865739 0.452812 -0.229011
C43   C     C_1   0.500000 0.733008 0.500001 -0.027270
C44   C     C_1   0.999999 0.233008 0.499998 -0.027268
C45   C     C_R   0.500000 0.614168 0.500000 -0.253796
C46   C     C_R   0.865309 0.479613 0.323907 0.072782
C47   C     C_R   1.000000 0.114168 0.500000 -0.253792
C48   C     C_2   0.525039 0.522572 0.740599 -0.213336
C49   C     C_2   0.474961 0.522572 0.259401 -0.213337
C50   C     C_2   0.025038 0.022572 0.740599 -0.213341
C51   C     C_2   0.974962 0.022572 0.259401 -0.213341
C52   C     C_2   0.495977 0.507861 0.681118 0.059281
C53   C     C_2   0.504023 0.507861 0.318882 0.059282
C54   C     C_2   0.995977 0.007860 0.681118 0.059278
C55   C     C_2   0.004023 0.007860 0.318882 0.059278
C56   C     C_2   0.522907 0.526410 0.805450 -0.171248
C57   C     C_R   0.634690 0.979600 0.676073 0.072772
C58   C     C_2   0.477093 0.526410 0.194550 -0.171247
C59   C     C_2   0.022907 0.026410 0.805449 -0.171244
C60   C     C_2   0.977093 0.026410 0.194551 -0.171245
C61   C     C_3   0.441146 0.698194 0.562531 -0.763973
C62   C     C_3   0.558851 0.698191 0.437461 -0.763987
C63   C     C_3   0.941143 0.198192 0.562526 -0.763974
C64   C     C_3   0.058856 0.198193 0.437474 -0.763974
C65   C     C_3   0.297913 0.432038 0.897740 -0.762959
C66   C     C_3   0.702086 0.432040 0.102254 -0.762952
C67   C     C_3   0.797912 0.932038 0.897737 -0.762961
C68   C     C_R   0.365310 0.979600 0.323927 0.072772
C69   C     C_3   0.202090 0.932040 0.102264 -0.762953
C70   C     C_3   0.387502 0.498935 0.039554 -0.764570
C71   C     C_3   0.612498 0.498938 0.960446 -0.764571
C72   C     C_3   0.887502 0.998933 0.039553 -0.764568
C73   C     C_3   0.112498 0.998934 0.960447 -0.764565
C74   C     C_3   0.513602 0.611506 0.665442 -0.760591
C75   C     C_3   0.486396 0.611506 0.334557 -0.760590
C76   C     C_3   0.013599 0.111506 0.665439 -0.760597
C77   C     C_3   0.986401 0.111506 0.334561 -0.760596
C78   C     C_3   0.947438 0.703735 0.329259 -0.775524
C79   C     C_R   0.114793 0.500376 0.612067 -0.077984
C80   C     C_3   0.052560 0.703737 0.670737 -0.775523
C81   C     C_3   0.447536 0.203783 0.329285 -0.775458
C82   C     C_3   0.552464 0.203782 0.670719 -0.775458
C83   C     C_3   0.540913 0.293300 0.409218 -0.794924
C84   C     C_3   0.459090 0.293303 0.590790 -0.794942
C85   C     C_3   0.040473 0.793338 0.408424 -0.795027
C86   C     C_3   0.959522 0.793337 0.591564 -0.795029
C87   C     C_3   0.975746 0.324939 0.644157 -0.810111
C88   C     C_3   0.024247 0.324938 0.355839 -0.810184
C89   C     C_3   0.475743 0.824940 0.644153 -0.810132
C90   C     C_R   0.885207 0.500376 0.387933 -0.077984
C91   C     C_3   0.524257 0.824939 0.355848 -0.810131
C92   C     C_3   0.437207 0.534684 0.661795 -0.741541
C93   C     C_3   0.562793 0.534685 0.338206 -0.741539
C94   C     C_3   0.937205 0.034681 0.661794 -0.741552
C95   C     C_3   0.062795 0.034680 0.338206 -0.741552
C96   C     C_R   0.614792 0.000377 0.612066 -0.077967
C97   C     C_R   0.573240 0.499995 0.072533 0.906671
C98   C     C_R   0.385208 0.000378 0.387934 -0.077967
C99   C     C_R   0.134713 0.521524 0.586413 0.067587
C100  C     C_R   0.865287 0.521524 0.413587 0.067587
C101  C     C_R   0.634711 0.021543 0.586432 0.067580
C102  C     C_R   0.365289 0.021543 0.413568 0.067580
C103  C     C_R   0.174163 0.521871 0.625322 -0.199645
C104  C     C_R   0.825836 0.521870 0.374678 -0.199645
C105  C     C_R   0.674161 0.021890 0.625340 -0.199638
C106  C     C_R   0.325839 0.021890 0.374660 -0.199639
C107  C     C_R   0.193481 0.501752 0.688761 0.102879
C108  C     C_R   0.926760 0.999995 0.927466 0.906671
C109  C     C_R   0.806519 0.501752 0.311239 0.102879
C110  C     C_R   0.693480 0.001755 0.688760 0.102875
C111  C     C_R   0.306520 0.001755 0.311240 0.102875
C112  C     C_1   0.233532 0.502696 0.728649 -0.049102
C113  C     C_1   0.766468 0.502696 0.271351 -0.049101
C114  C     C_1   0.733531 0.002699 0.728648 -0.049101
C115  C     C_1   0.266469 0.002699 0.271352 -0.049102
C116  C     C_1   0.267174 0.502977 0.763484 -0.039201
C117  C     C_1   0.732825 0.502977 0.236516 -0.039202
C118  C     C_1   0.767174 0.002980 0.763483 -0.039201
C119  C     C_R   0.073240 0.999995 0.072534 0.906670
C120  C     C_1   0.232826 0.002980 0.236517 -0.039201
C121  C     C_R   0.324979 0.486836 0.875214 0.224428
C122  C     C_R   0.675021 0.486837 0.124785 0.224427
C123  C     C_R   0.824978 0.986837 0.875212 0.224426
C124  C     C_R   0.175022 0.986838 0.124787 0.224425
C125  C     C_R   0.502442 0.499784 0.883468 0.922105
C126  C     C_R   0.497558 0.499784 0.116532 0.922106
C127  C     C_R   0.002442 0.999784 0.883468 0.922107
C128  C     C_R   0.997558 0.999784 0.116532 0.922107
C129  C     C_R   0.364499 0.485736 0.915474 0.128063
C130  C     C_2   0.508469 0.497966 0.823982 -0.279988
C131  C     C_R   0.635501 0.485737 0.084525 0.128064
C132  C     C_R   0.864498 0.985736 0.915473 0.128064
C133  C     C_R   0.135502 0.985736 0.084527 0.128063
C134  C     C_R   0.385759 0.500099 0.885960 -0.156221
C135  C     C_R   0.614241 0.500099 0.114040 -0.156221
C136  C     C_R   0.885759 0.000099 0.885959 -0.156223
C137  C     C_R   0.114241 0.000100 0.114041 -0.156225
C138  C     C_R   0.367710 0.515914 0.817164 0.078603
C139  C     C_R   0.632290 0.515913 0.182837 0.078604
C140  C     C_R   0.867710 0.015915 0.817164 0.078604
C141  C     C_2   0.491531 0.497966 0.176018 -0.279988
C142  C     C_R   0.132290 0.015915 0.182836 0.078605
C143  C     C_R   0.328360 0.517000 0.777836 -0.235112
C144  C     C_R   0.671640 0.516999 0.222165 -0.235112
C145  C     C_R   0.828360 0.017002 0.777836 -0.235112
C146  C     C_R   0.171640 0.017002 0.222165 -0.235113
C147  C     C_R   0.307241 0.502568 0.806410 0.003389
C148  C     C_R   0.692759 0.502568 0.193591 0.003388
C149  C     C_R   0.807240 0.002570 0.806409 0.003388
C150  C     C_R   0.192760 0.002570 0.193591 0.003388
C151  C     C_R   0.500000 0.692805 0.500000 -0.097297
C152  C     C_2   0.008469 0.997965 0.823982 -0.279992
C153  C     C_R   0.999999 0.192805 0.499999 -0.097298
C154  C     C_R   0.490841 0.633832 0.545694 0.142565
C155  C     C_R   0.509159 0.633832 0.454305 0.142568
C156  C     C_R   0.990839 0.133832 0.545692 0.142568
C157  C     C_R   0.009160 0.133832 0.454308 0.142566
C158  C     C_1   0.999999 0.266634 0.499998 -0.070716
C159  C     C_1   0.500000 0.766634 0.500001 -0.070736
C160  C     C_R   0.999998 0.306863 0.499998 -0.011354
C161  C     C_R   0.500000 0.806863 0.500001 -0.011360
C162  C     C_R   0.500000 0.426608 0.500000 0.965127
C163  C     C_2   0.991531 0.997965 0.176018 -0.279991
C164  C     C_R   0.000000 0.926611 0.500000 0.965381
C165  C     C_R   0.490630 0.673276 0.545307 0.196555
C166  C     C_R   0.509370 0.673276 0.454693 0.196559
C167  C     C_R   0.990627 0.173276 0.545304 0.196555
C168  C     C_R   0.009371 0.173276 0.454695 0.196555
C169  C     C_R   0.499220 0.501661 0.618488 0.856479
C170  C     C_R   0.500780 0.501661 0.381512 0.856479
C171  C     C_R   0.999220 0.001661 0.618488 0.856530
C172  C     C_R   0.000780 0.001661 0.381512 0.856533
C173  C     C_R   0.500000 0.573195 0.500000 0.900138
C174  C     C_R   0.174097 0.480724 0.714140 -0.204377
C175  C     C_R   0.000000 0.073195 0.500000 0.900131
C176  C     C_R   1.000000 0.426641 0.500000 0.891843
C177  C     C_R   0.500000 0.926641 0.500000 0.891844
C178  C     C_R   0.073437 0.500156 0.572588 0.880190
C179  C     C_R   0.926563 0.500156 0.427412 0.880190
C180  C     C_R   0.573436 0.000156 0.572588 0.880205
C181  C     C_R   0.426564 0.000156 0.427412 0.880207
C182  C     C_R   1.000000 0.573318 0.500000 0.882257
C183  C     C_R   0.500000 0.073318 0.500000 0.882286
C184  C     C_R   0.970358 0.673443 0.442964 0.210578
H1    H     H_    0.314105 0.528822 0.724571 0.149817
H2    H     H_    0.013718 0.381547 0.417379 0.176769
H3    H     H_    0.964102 0.093118 0.332976 0.227732
H4    H     H_    0.914128 0.681970 0.367227 0.245760
H5    H     H_    0.949101 0.677950 0.302027 0.244502
H6    H     H_    0.974182 0.719767 0.350504 0.238639
H7    H     H_    0.924084 0.721670 0.289770 0.236673
H8    H     H_    0.085871 0.681971 0.632771 0.245761
H9    H     H_    0.050896 0.677953 0.697969 0.244501
H10   H     H_    0.025817 0.719770 0.649491 0.238637
H11   H     H_    0.075915 0.721672 0.710226 0.236673
H12   H     H_    0.414164 0.181955 0.367066 0.245775
H13   H     H_    0.486285 0.881548 0.582625 0.176770
H14   H     H_    0.449267 0.178017 0.302083 0.244452
H15   H     H_    0.474262 0.219855 0.350620 0.238611
H16   H     H_    0.424177 0.221697 0.289747 0.236666
H17   H     H_    0.585837 0.181954 0.632940 0.245775
H18   H     H_    0.550733 0.178017 0.697922 0.244450
H19   H     H_    0.525737 0.219854 0.649382 0.238610
H20   H     H_    0.575822 0.221697 0.710256 0.236666
H21   H     H_    0.950418 0.599070 0.357469 0.216217
H22   H     H_    0.927614 0.595959 0.404365 0.169806
H23   H     H_    0.049581 0.599071 0.642530 0.216217
H24   H     H_    0.513715 0.881547 0.417375 0.176769
H25   H     H_    0.072386 0.595960 0.595635 0.169807
H26   H     H_    0.450478 0.099077 0.357429 0.216257
H27   H     H_    0.427633 0.095955 0.404252 0.169840
H28   H     H_    0.549522 0.099076 0.642572 0.216258
H29   H     H_    0.572368 0.095954 0.595749 0.169840
H30   H     H_    0.580732 0.317110 0.505247 0.222692
H31   H     H_    0.562594 0.275179 0.407955 0.239819
H32   H     H_    0.535629 0.317975 0.374040 0.230490
H33   H     H_    0.514528 0.276734 0.388500 0.245811
H34   H     H_    0.419268 0.317111 0.494759 0.222693
H35   H     H_    0.533278 0.551782 0.837451 0.162056
H36   H     H_    0.437409 0.275185 0.592059 0.239823
H37   H     H_    0.464377 0.317978 0.625968 0.230494
H38   H     H_    0.485473 0.276735 0.611505 0.245814
H39   H     H_    0.080493 0.817120 0.504305 0.222709
H40   H     H_    0.062070 0.775210 0.406876 0.239823
H41   H     H_    0.035105 0.818025 0.373231 0.230527
H42   H     H_    0.014093 0.776789 0.387932 0.245862
H43   H     H_    0.919504 0.817120 0.495683 0.222711
H44   H     H_    0.937924 0.775208 0.593107 0.239825
H45   H     H_    0.964888 0.818023 0.626757 0.230526
H46   H     H_    0.466722 0.551782 0.162549 0.162055
H47   H     H_    0.985902 0.776789 0.612059 0.245862
H48   H     H_    0.581631 0.380183 0.524419 0.184196
H49   H     H_    0.552704 0.377960 0.434432 0.184927
H50   H     H_    0.418369 0.380184 0.475587 0.184196
H51   H     H_    0.447299 0.377963 0.565574 0.184928
H52   H     H_    0.081466 0.880192 0.523600 0.184226
H53   H     H_    0.052343 0.877994 0.433670 0.184922
H54   H     H_    0.918533 0.880192 0.476398 0.184225
H55   H     H_    0.947656 0.877993 0.566328 0.184921
H56   H     H_    0.966862 0.281780 0.572066 0.232168
H57   H     H_    0.033277 0.051783 0.837449 0.162056
H58   H     H_    0.971687 0.304039 0.677700 0.242007
H59   H     H_    0.949654 0.342066 0.615256 0.238944
H60   H     H_    0.000120 0.342972 0.680055 0.250079
H61   H     H_    0.033132 0.281780 0.427923 0.232182
H62   H     H_    0.028305 0.304037 0.322295 0.242022
H63   H     H_    0.050338 0.342064 0.384737 0.238961
H64   H     H_    0.999876 0.342971 0.319946 0.250096
H65   H     H_    0.466874 0.781777 0.572084 0.232177
H66   H     H_    0.471683 0.804040 0.677696 0.242010
H67   H     H_    0.449649 0.842063 0.615242 0.238953
H68   H     H_    0.966723 0.051783 0.162551 0.162056
H69   H     H_    0.500112 0.842976 0.680052 0.250084
H70   H     H_    0.533127 0.781776 0.427919 0.232177
H71   H     H_    0.528317 0.804039 0.322305 0.242010
H72   H     H_    0.550351 0.842062 0.384759 0.238952
H73   H     H_    0.499888 0.842975 0.319949 0.250084
H74   H     H_    0.445142 0.479327 0.642309 0.226937
H75   H     H_    0.411011 0.527157 0.661974 0.222101
H76   H     H_    0.429395 0.546710 0.608920 0.233672
H77   H     H_    0.452514 0.556187 0.703760 0.257589
H78   H     H_    0.554858 0.479327 0.357690 0.226936
H79   H     H_    0.502274 0.471251 0.795800 0.166207
H80   H     H_    0.588989 0.527157 0.338026 0.222100
H81   H     H_    0.570605 0.546711 0.391081 0.233671
H82   H     H_    0.547486 0.556188 0.296241 0.257588
H83   H     H_    0.945144 0.979324 0.642311 0.226953
H84   H     H_    0.911010 0.027151 0.661973 0.222101
H85   H     H_    0.929394 0.046707 0.608919 0.233674
H86   H     H_    0.952512 0.056184 0.703759 0.257589
H87   H     H_    0.054856 0.979324 0.357689 0.226953
H88   H     H_    0.088990 0.027151 0.338027 0.222102
H89   H     H_    0.070606 0.046706 0.391081 0.233674
H90   H     H_    0.497726 0.471251 0.204200 0.166207
H91   H     H_    0.047488 0.056184 0.296242 0.257589
H92   H     H_    0.102466 0.434556 0.665732 0.177665
H93   H     H_    0.133565 0.445062 0.750871 0.176608
H94   H     H_    0.897534 0.434556 0.334267 0.177665
H95   H     H_    0.866435 0.445063 0.249127 0.176608
H96   H     H_    0.602464 0.934537 0.665671 0.177652
H97   H     H_    0.633565 0.945022 0.750820 0.176615
H98   H     H_    0.397536 0.934537 0.334329 0.177653
H99   H     H_    0.366435 0.945022 0.249180 0.176615
H100  H     H_    0.133663 0.555090 0.508414 0.177309
H101  H     H_    0.002275 0.971251 0.795802 0.166205
H102  H     H_    0.101634 0.565501 0.531997 0.170443
H103  H     H_    0.866337 0.555090 0.491587 0.177308
H104  H     H_    0.898366 0.565501 0.468004 0.170443
H105  H     H_    0.633658 0.055144 0.508470 0.177312
H106  H     H_    0.601626 0.065526 0.532060 0.170431
H107  H     H_    0.366342 0.055144 0.491530 0.177312
H108  H     H_    0.398374 0.065527 0.467940 0.170431
H109  H     H_    0.685895 0.528820 0.275431 0.149817
H110  H     H_    0.997725 0.971251 0.204198 0.166205
H111  H     H_    0.189734 0.465028 0.763392 0.135326
H112  H     H_    0.810265 0.465029 0.236607 0.135326
H113  H     H_    0.689735 0.965003 0.763358 0.135329
H114  H     H_    0.310265 0.965003 0.236642 0.135329
H115  H     H_    0.189831 0.538124 0.606647 0.134504
H116  H     H_    0.810169 0.538123 0.393353 0.134504
H117  H     H_    0.689828 0.038156 0.606680 0.134505
H118  H     H_    0.310172 0.038157 0.393320 0.134505
H119  H     H_    0.496534 0.717134 0.613661 0.228745
H120  H     H_    0.814105 0.028825 0.724571 0.149818
H121  H     H_    0.429287 0.716335 0.514338 0.226920
H122  H     H_    0.436257 0.712002 0.603005 0.233841
H123  H     H_    0.426357 0.670636 0.548517 0.258148
H124  H     H_    0.503465 0.717135 0.386341 0.228749
H125  H     H_    0.570715 0.716328 0.485660 0.226925
H126  H     H_    0.563739 0.712004 0.396988 0.233838
H127  H     H_    0.573638 0.670632 0.451460 0.258156
H128  H     H_    0.996529 0.217135 0.613654 0.228753
H129  H     H_    0.929283 0.216332 0.514332 0.226918
H130  H     H_    0.936252 0.212001 0.602999 0.233839
H131  H     H_    0.185895 0.028824 0.275430 0.149818
H132  H     H_    0.926355 0.170633 0.548515 0.258149
H133  H     H_    0.003468 0.217134 0.386343 0.228751
H134  H     H_    0.070715 0.216335 0.485666 0.226919
H135  H     H_    0.063746 0.212001 0.397000 0.233840
H136  H     H_    0.073645 0.170635 0.451488 0.258147
H137  H     H_    0.278913 0.486807 0.890608 0.221357
H138  H     H_    0.280786 0.424184 0.840555 0.229113
H139  H     H_    0.282786 0.422888 0.925487 0.233607
H140  H     H_    0.325463 0.417190 0.922239 0.256653
H141  H     H_    0.721087 0.486810 0.109392 0.221356
H142  H     H_    0.550523 0.531904 0.741723 0.150168
H143  H     H_    0.719212 0.424185 0.159439 0.229113
H144  H     H_    0.717215 0.422891 0.074509 0.233604
H145  H     H_    0.674536 0.417192 0.077751 0.256654
H146  H     H_    0.778912 0.986808 0.890606 0.221361
H147  H     H_    0.780785 0.924185 0.840551 0.229112
H148  H     H_    0.782784 0.922887 0.925482 0.233609
H149  H     H_    0.825461 0.917190 0.922235 0.256655
H150  H     H_    0.221087 0.986811 0.109392 0.221359
H151  H     H_    0.219218 0.924188 0.159450 0.229110
H152  H     H_    0.217217 0.922890 0.074517 0.233610
H153  H     H_    0.449477 0.531903 0.258277 0.150169
H154  H     H_    0.174541 0.917190 0.077767 0.256651
H155  H     H_    0.406131 0.455468 0.001323 0.234998
H156  H     H_    0.399786 0.485093 0.092444 0.241479
H157  H     H_    0.360008 0.511550 0.026601 0.256611
H158  H     H_    0.406979 0.521493 0.042479 0.222485
H159  H     H_    0.593869 0.455471 0.998674 0.234995
H160  H     H_    0.600214 0.485097 0.907555 0.241479
H161  H     H_    0.639992 0.511553 0.973400 0.256612
H162  H     H_    0.593021 0.521496 0.957522 0.222486
H163  H     H_    0.906130 0.955467 0.001319 0.234998
H164  H     H_    0.050522 0.031905 0.741722 0.150168
H165  H     H_    0.899786 0.985090 0.092443 0.241480
H166  H     H_    0.860008 0.011549 0.026601 0.256613
H167  H     H_    0.906979 0.021491 0.042479 0.222485
H168  H     H_    0.093870 0.955468 0.998680 0.234997
H169  H     H_    0.100214 0.985091 0.907557 0.241479
H170  H     H_    0.139992 0.011550 0.973399 0.256611
H171  H     H_    0.093020 0.021492 0.957521 0.222484
H172  H     H_    0.372011 0.542677 0.737724 0.175722
H173  H     H_    0.402994 0.507800 0.779125 0.177473
H174  H     H_    0.627989 0.542674 0.262279 0.175721
H175  H     H_    0.949478 0.031905 0.258278 0.150168
H176  H     H_    0.597005 0.507797 0.220875 0.177474
H177  H     H_    0.872011 0.042679 0.737725 0.175722
H178  H     H_    0.902994 0.007801 0.779125 0.177473
H179  H     H_    0.127989 0.042677 0.262276 0.175722
H180  H     H_    0.097006 0.007800 0.220876 0.177473
H181  H     H_    0.468040 0.589346 0.574422 0.226487
H182  H     H_    0.503620 0.599264 0.699977 0.239536
H183  H     H_    0.525652 0.639700 0.686876 0.256364
H184  H     H_    0.535901 0.593118 0.667026 0.227733
H185  H     H_    0.531959 0.589346 0.425576 0.226485
H186  H     H_    0.986281 0.381548 0.582619 0.176770
H187  H     H_    0.496378 0.599264 0.300021 0.239536
H188  H     H_    0.474346 0.639700 0.313123 0.256365
H189  H     H_    0.464098 0.593118 0.332974 0.227734
H190  H     H_    0.968038 0.089347 0.574418 0.226487
H191  H     H_    0.003616 0.099264 0.699973 0.239536
H192  H     H_    0.025649 0.139700 0.686874 0.256365
H193  H     H_    0.035898 0.093119 0.667023 0.227733
H194  H     H_    0.031962 0.089347 0.425583 0.226487
H195  H     H_    0.996384 0.099263 0.300028 0.239537
H196  H     H_    0.974351 0.139699 0.313126 0.256365
N1    N     N_2   0.481175 0.692953 0.591372 -0.284307
N2    N     N_2   0.617660 0.471401 0.013606 -0.294935
N3    N     N_2   0.882339 0.971397 0.986390 -0.294935
N4    N     N_2   0.117661 0.971398 0.013610 -0.294933
N5    N     N_3   0.389584 0.530548 0.787625 -0.431234
N6    N     N_3   0.610416 0.530546 0.212377 -0.431236
N7    N     N_3   0.889584 0.030549 0.787625 -0.431235
N8    N     N_3   0.110416 0.030548 0.212376 -0.431235
N9    N     N_2   0.482299 0.614393 0.593262 -0.287440
N10   N     N_2   0.517700 0.614393 0.406737 -0.287444
N11   N     N_2   0.982297 0.114394 0.593258 -0.287442
N12   N     N_2   0.518823 0.692953 0.408626 -0.284310
N13   N     N_2   0.017703 0.114394 0.406742 -0.287440
N14   N     N_2   0.940411 0.693812 0.386069 -0.293174
N15   N     N_2   0.059588 0.693813 0.613928 -0.293175
N16   N     N_2   0.440448 0.193812 0.386001 -0.293131
N17   N     N_2   0.559552 0.193811 0.614003 -0.293130
N18   N     N_3   0.939748 0.614517 0.384311 -0.463535
N19   N     N_3   0.060250 0.614518 0.615688 -0.463535
N20   N     N_3   0.439786 0.114518 0.384240 -0.463552
N21   N     N_3   0.560214 0.114517 0.615761 -0.463552
N22   N     N_2   0.554156 0.305446 0.481604 -0.299256
N23   N     N_2   0.981172 0.192953 0.591367 -0.284308
N24   N     N_2   0.445845 0.305447 0.518404 -0.299254
N25   N     N_2   0.053921 0.805460 0.480895 -0.299294
N26   N     N_2   0.946076 0.805460 0.519095 -0.299295
N27   N     N_3   0.554628 0.386305 0.482252 -0.443912
N28   N     N_3   0.445373 0.386306 0.517751 -0.443911
N29   N     N_3   0.054413 0.886324 0.481618 -0.444158
N30   N     N_3   0.945586 0.886324 0.518380 -0.444155
N31   N     N_2   0.983186 0.305459 0.594012 -0.302922
N32   N     N_2   0.016809 0.305459 0.405983 -0.302935
N33   N     N_2   0.483191 0.805460 0.594021 -0.302925
N34   N     N_2   0.018826 0.192953 0.408631 -0.284307
N35   N     N_2   0.516809 0.805459 0.405981 -0.302925
N36   N     N_2   0.460134 0.501360 0.675482 -0.298523
N37   N     N_2   0.539866 0.501360 0.324518 -0.298523
N38   N     N_2   0.960135 0.001357 0.675482 -0.298523
N39   N     N_2   0.039865 0.001357 0.324518 -0.298524
N40   N     N_3   0.114808 0.456939 0.701358 -0.428887
N41   N     N_3   0.885191 0.456940 0.298641 -0.428885
N42   N     N_3   0.614808 0.956911 0.701319 -0.428895
N43   N     N_3   0.385192 0.956911 0.298681 -0.428895
N44   N     N_3   0.114817 0.543144 0.521896 -0.428675
N45   N     N_2   0.303480 0.472324 0.904850 -0.290106
N46   N     N_3   0.885183 0.543144 0.478105 -0.428676
N47   N     N_3   0.614812 0.043181 0.521937 -0.428685
N48   N     N_3   0.385188 0.043181 0.478063 -0.428686
N49   N     N_2   0.696520 0.472326 0.095148 -0.290106
N50   N     N_2   0.803479 0.972324 0.904848 -0.290105
N51   N     N_2   0.196521 0.972326 0.095151 -0.290104
N52   N     N_2   0.382340 0.471398 0.986392 -0.294934
O1    O     O_R   0.444560 0.531280 0.944560 -0.598480
O2    O     O_R   0.944570 0.500110 0.393510 -0.602224
O3    O     O_R   0.555430 0.000110 0.606490 -0.602230
O4    O     O_R   0.444570 0.000110 0.393510 -0.602230
O5    O     O_R   0.000010 0.555520 0.448910 -0.624456
O6    O     O_R   0.999990 0.555520 0.551090 -0.624457
O7    O     O_R   0.500010 0.055520 0.448910 -0.624474
O8    O     O_R   0.499990 0.055520 0.551090 -0.624473
O9    O     O_R   0.444540 0.468700 0.944530 -0.638236
O10   O     O_R   0.555460 0.468700 0.055470 -0.638236
O11   O     O_R   0.944540 0.968700 0.944530 -0.638236
O12   O     O_R   0.555440 0.531280 0.055440 -0.598480
O13   O     O_R   0.055460 0.968700 0.055470 -0.638235
O14   O     O_R   0.500010 0.531280 0.909540 -0.612628
O15   O     O_R   0.499990 0.531280 0.090460 -0.612628
O16   O     O_R   0.000010 0.031280 0.909540 -0.612629
O17   O     O_R   0.999990 0.031280 0.090460 -0.612628
O18   O     O_R   0.499990 0.468700 0.909520 -0.630276
O19   O     O_R   0.500010 0.468700 0.090480 -0.630277
O20   O     O_R   0.999990 0.968700 0.909520 -0.630278
O21   O     O_R   0.000010 0.968700 0.090480 -0.630278
O22   O     O_R   0.531280 0.444560 0.531260 -0.603578
O23   O     O_R   0.944560 0.031280 0.944560 -0.598479
O24   O     O_R   0.468720 0.444560 0.468740 -0.603578
O25   O     O_R   0.031280 0.944560 0.531260 -0.603674
O26   O     O_R   0.968720 0.944560 0.468740 -0.603675
O27   O     O_R   0.531280 0.499990 0.621740 -0.629473
O28   O     O_R   0.468720 0.499990 0.378260 -0.629474
O29   O     O_R   0.031280 0.999990 0.621740 -0.629480
O30   O     O_R   0.968720 0.999990 0.378260 -0.629480
O31   O     O_R   0.468680 0.499990 0.559140 -0.621646
O32   O     O_R   0.531320 0.499990 0.440860 -0.621647
O33   O     O_R   0.968680 0.999990 0.559140 -0.621633
O34   O     O_R   0.055440 0.031280 0.055440 -0.598478
O35   O     O_R   0.031320 0.999990 0.440860 -0.621633
O36   O     O_R   0.531300 0.555420 0.531300 -0.626628
O37   O     O_R   0.468700 0.555420 0.468700 -0.626629
O38   O     O_R   0.031300 0.055420 0.531300 -0.626634
O39   O     O_R   0.968700 0.055420 0.468700 -0.626634
O40   O     O_R   0.999980 0.444660 0.448930 -0.623790
O41   O     O_R   0.000020 0.444660 0.551070 -0.623790
O42   O     O_R   0.499980 0.944660 0.448930 -0.623787
O43   O     O_R   0.500020 0.944660 0.551070 -0.623786
O44   O     O_R   0.055440 0.500090 0.504360 -0.599517
O45   O     O_R   0.944560 0.500090 0.495640 -0.599516
O46   O     O_R   0.555440 0.000090 0.504360 -0.599520
O47   O     O_R   0.444560 0.000090 0.495640 -0.599519
O48   O     O_R   0.055430 0.500110 0.606490 -0.602223
Zn1   Zn    Zn3+2 0.500000 0.541780 0.000000 0.968803
Zn2   Zn    Zn3+2 0.000000 0.500080 0.568210 0.962724
Zn3   Zn    Zn3+2 0.500000 0.000080 0.431790 0.962718
Zn4   Zn    Zn3+2 0.500000 0.000080 0.568210 0.962719
Zn5   Zn    Zn3+2 0.000000 0.041780 0.000000 0.968802
Zn6   Zn    Zn3+2 0.500000 0.458200 0.000000 0.934659
Zn7   Zn    Zn3+2 0.000000 0.958200 0.000000 0.934652
Zn8   Zn    Zn3+2 0.541790 0.499990 0.541780 0.946024
Zn9   Zn    Zn3+2 0.458210 0.499990 0.458220 0.946024
Zn10  Zn    Zn3+2 0.041790 0.999990 0.541780 0.946028
Zn11  Zn    Zn3+2 0.958210 0.999990 0.458220 0.946028
Zn12  Zn    Zn3+2 0.000000 0.500080 0.431790 0.962724

loop_
_geom_bond_atom_site_label_1
_geom_bond_atom_site_label_2
_ccdc_geom_bond_type
C99   C103  A    
C21   C26   A    
C182  O6    A    
C133  C137  A    
C77   H195  S    
H53   N29   S    
C107  C112  S    
C142  C146  A    
C136  C140  A    
H65   N33   S    
C62   H125  S    
C135  C139  A    
C124  C133  A    
C50   C59   S    
H30   N22   S    
C133  N4    S    
C79   C99   A    
O29   Zn10  S    
C138  C143  A    
C4    N16   S    
O14   Zn1   S    
C100  C104  A    
C60   C163  D    
C36   N32   S    
H26   N20   S    
C17   C39   A    
C146  C150  A    
H94   N41   S    
C18   C177  S    
C121  C147  A    
C122  C148  A    
C35   N40   S    
C145  H120  S    
C108  O23   A    
C172  O30   A    
C127  O20   A    
C101  C105  A    
C143  H1    S    
O38   Zn10  S    
C71   H162  S    
C125  O18   A    
C19   C32   S    
C157  C168  A    
C9    N21   S    
C101  N47   S    
O21   Zn7   S    
C25   C29   A    
C126  O15   A    
H108  N48   S    
C89   H66   S    
C139  N6    S    
C64   H135  S    
C64   N34   S    
C81   H14   S    
C82   H18   S    
H172  N5    S    
O6    Zn2   S    
C93   H82   S    
C98   C102  A    
C94   H85   S    
C6    C184  A    
C29   N30   S    
C118  C149  S    
H96   N42   S    
C68   N43   S    
C6    C10   A    
C80   H9    S    
C45   C173  S    
O20   Zn7   S    
C13   H113  S    
C105  H117  S    
C96   C180  S    
C53   C170  S    
C46   C90   A    
C76   H193  S    
C88   N32   S    
C178  O44   A    
C22   C27   A    
C153  C168  A    
C10   C182  S    
C171  O29   A    
C86   H47   S    
H105  N47   S    
C55   C172  S    
H25   N19   S    
C163  H110  S    
C49   H153  S    
H104  N46   S    
C86   H45   S    
C1    O1    A    
O44   Zn12  S    
C78   H7    S    
C65   H139  S    
C140  C145  A    
C116  C147  S    
C61   H121  S    
C6    N18   S    
C94   N38   S    
C126  C141  S    
C91   N35   S    
O35   Zn10  S    
C84   H37   S    
C98   C181  S    
H17   N17   S    
C58   C141  D    
C82   H19   S    
C91   H71   S    
C49   C53   D    
C78   N14   S    
C168  N34   S    
C51   C55   D    
C4    C14   A    
C97   O10   A    
C85   H40   S    
C68   C98   A    
C76   H191  S    
C23   N25   S    
C88   H62   S    
C48   C52   D    
C93   H81   S    
C74   H183  S    
H21   N18   S    
C103  C107  A    
C45   C154  A    
H133  N34   S    
H190  N11   S    
C65   N45   S    
C25   N26   S    
H56   N31   S    
C175  O39   A    
C137  C142  A    
C2    C109  A    
H39   N25   S    
C166  N12   S    
C123  C132  A    
C83   N22   S    
O18   Zn6   S    
C121  N45   S    
C66   H143  S    
C81   H16   S    
C83   H32   S    
C95   H88   S    
C8    N20   S    
C120  C150  S    
C13   C110  A    
C22   C32   A    
C117  C148  S    
C72   H165  S    
H87   N39   S    
O13   Zn7   S    
C43   C159  T    
C18   C42   A    
H49   N27   S    
H43   N26   S    
O22   Zn8   S    
C13   C57   A    
C70   H158  S    
C24   H114  S    
C99   N44   S    
O3    Zn4   S    
C84   H36   S    
C119  O13   A    
C154  C165  A    
H54   N30   S    
C110  C114  S    
C127  O16   A    
C104  H116  S    
O11   Zn7   S    
H61   N32   S    
C131  N2    S    
C53   N37   S    
C78   H5    S    
C61   H123  S    
C106  C111  A    
O16   Zn5   S    
C85   N25   S    
C180  O3    A    
C31   C164  S    
C34   C39   A    
C181  O4    A    
O39   Zn11  S    
C41   H13   S    
O12   Zn1   S    
H100  N44   S    
O47   Zn4   S    
C69   H152  S    
C61   N1    S    
C67   H148  S    
C34   N31   S    
O30   Zn11  S    
C63   H129  S    
C97   O12   A    
C64   H134  S    
C5    C9    A    
C58   H46   S    
C88   H64   S    
C108  O11   A    
C75   H189  S    
C177  O42   A    
C132  C136  A    
C159  C161  S    
C154  N9    S    
C23   C28   A    
C73   H169  S    
C113  C117  T    
C26   N27   S    
C26   C30   A    
H55   N30   S    
C85   H41   S    
C97   C135  S    
C74   N9    S    
C122  C131  A    
C112  C116  T    
C92   H75   S    
C47   C157  A    
C62   N12   S    
C128  O21   A    
C72   H167  S    
C126  O19   A    
C130  H79   S    
H194  N13   S    
C77   N13   S    
H8    N15   S    
O48   Zn2   S    
C176  O40   A    
C66   N49   S    
C180  O46   A    
O10   Zn6   S    
C107  C174  A    
C62   H126  S    
C70   H156  S    
C106  H118  S    
C84   H38   S    
H28   N21   S    
O2    Zn12  S    
C178  O48   A    
C87   H60   S    
C77   H3    S    
C35   C79   A    
O34   Zn5   S    
C56   H35   S    
C102  N48   S    
H27   N20   S    
H106  N47   S    
C100  N46   S    
O8    Zn4   S    
H34   N24   S    
C51   C60   S    
H155  N52   S    
C66   H145  S    
H23   N19   S    
H99   N43   S    
C7    C10   A    
C173  O37   A    
C183  O8    A    
C95   N39   S    
C169  O27   A    
C179  O2    A    
C44   C158  T    
C5    N17   S    
C71   H161  S    
C93   N37   S    
C39   H186  S    
C59   C152  D    
C54   N38   S    
C103  H115  S    
O9    Zn6   S    
C50   C54   D    
C64   H136  S    
C105  C110  A    
H146  N50   S    
C3    C7    A    
O27   Zn8   S    
C83   H33   S    
C87   N31   S    
C173  O36   A    
C75   H187  S    
C47   C156  A    
C94   H86   S    
C146  H131  S    
C95   H91   S    
C73   H171  S    
C119  O34   A    
H95   N41   S    
C38   C161  A    
C20   C33   S    
C57   C96   A    
C50   H164  S    
C42   H24   S    
C1    O9    A    
O43   Zn4   S    
C122  N49   S    
C184  N14   S    
C92   H77   S    
C4    C8    A    
O41   Zn2   S    
C92   N36   S    
C93   H80   S    
C182  O5    A    
O15   Zn1   S    
C77   H196  S    
C96   C101  A    
C153  C167  A    
C158  C160  S    
H107  N48   S    
C15   C20   T    
H141  N49   S    
O37   Zn9   S    
H51   N28   S    
H12   N16   S    
H181  N9    S    
C2    H112  S    
H177  N7    S    
C65   H138  S    
C174  H111  S    
O7    Zn3   S    
C152  H101  S    
C87   H58   S    
C69   N51   S    
C155  N10   S    
C70   N52   S    
H83   N38   S    
C17   C40   A    
C52   N36   S    
O33   Zn11  S    
C27   N28   S    
C91   H73   S    
C181  O47   A    
C67   H149  S    
C12   C15   S    
C144  H109  S    
C75   N10   S    
C129  N52   S    
C124  N51   S    
C5    C14   A    
C76   H192  S    
H163  N3    S    
C179  O45   A    
H103  N46   S    
C38   N35   S    
C165  N1    S    
C86   N26   S    
C74   H184  S    
C171  O33   A    
C67   N50   S    
C162  O24   A    
C40   H2    S    
C43   C151  S    
C37   C161  A    
C167  N23   S    
C80   H11   S    
C124  C150  A    
C69   H154  S    
C89   H67   S    
C28   C31   A    
C66   H144  S    
H174  N6    S    
C121  C129  A    
H179  N8    S    
C52   C169  S    
C81   H15   S    
C83   H31   S    
C108  C136  S    
C75   H188  S    
H97   N42   S    
C156  N11   S    
C94   H84   S    
O4    Zn3   S    
C170  O28   A    
C95   H89   S    
C72   H166  S    
H128  N23   S    
O23   Zn5   S    
C142  N8    S    
H70   N35   S    
C12   C184  A    
O46   Zn3   S    
C82   N17   S    
O36   Zn8   S    
C76   N11   S    
H29   N21   S    
H180  N8    S    
C24   C68   A    
O1    Zn1   S    
C129  C134  A    
H50   N28   S    
C128  O17   A    
C57   N42   S    
H159  N2    S    
C145  C149  A    
H52   N29   S    
C34   C160  A    
C123  C149  A    
C86   H44   S    
C78   H6    S    
O17   Zn5   S    
C144  C148  A    
C65   H140  S    
O25   Zn10  S    
C61   H122  S    
C2    C46   A    
C143  C147  A    
C44   C153  S    
C22   N24   S    
C38   C42   A    
C131  C135  A    
C176  O41   A    
C28   N29   S    
C69   H151  S    
C3    N15   S    
C91   H72   S    
C155  C166  A    
H92   N40   S    
C56   C130  D    
C123  N50   S    
H168  N4    S    
C63   H132  S    
H4    N14   S    
C3    C12   A    
O26   Zn11  S    
C125  C130  S    
C48   H142  S    
C23   C33   A    
C169  O31   A    
H78   N37   S    
C89   N33   S    
C45   C155  A    
C80   N15   S    
C162  O22   A    
C17   C176  S    
C109  C113  S    
C21   N22   S    
H22   N18   S    
C55   N39   S    
H93   N40   S    
H176  N6    S    
C27   C30   A    
C37   C41   A    
C24   C111  A    
C141  H90   S    
C90   C100  A    
C92   H76   S    
H119  N1    S    
C16   C19   T    
H178  N7    S    
C21   C32   A    
H98   N43   S    
C138  N5    S    
C164  O25   A    
C71   H160  S    
C119  C137  S    
C36   C40   A    
C11   C183  S    
O24   Zn9   S    
C18   C41   A    
C156  C167  A    
C62   H127  S    
C70   H157  S    
O45   Zn2   S    
C128  C163  S    
C49   C58   S    
O19   Zn6   S    
H137  N45   S    
C81   N16   S    
C74   H182  S    
O28   Zn9   S    
C46   N41   S    
C127  C152  S    
C157  N13   S    
C139  C144  A    
C87   H59   S    
C170  O32   A    
C172  O35   A    
C7    N19   S    
C79   C178  S    
C9    C11   A    
C114  C118  T    
C67   H147  S    
O32   Zn8   S    
H185  N10   S    
H150  N51   S    
H124  N12   S    
C14   C16   S    
C164  O26   A    
C51   H175  S    
C1    C134  S    
C73   N4    S    
O42   Zn3   S    
O31   Zn9   S    
C37   N33   S    
C48   C56   S    
C183  O7    A    
C90   C179  S    
C35   C174  A    
C54   C171  S    
C134  C138  A    
C111  C115  S    
C71   N2    S    
C125  O14   A    
C140  N7    S    
C151  C166  A    
C80   H10   S    
C59   H57   S    
C63   H130  S    
H102  N44   S    
C29   C31   A    
C88   H63   S    
C82   H20   S    
O5    Zn12  S    
C177  O43   A    
C8    C11   A    
O40   Zn12  S    
H48   N27   S    
C63   N23   S    
C102  C106  A    
C84   N24   S    
C73   H170  S    
C47   C175  S    
C36   C160  A    
C72   N3    S    
C175  O38   A    
C151  C165  A    
H74   N36   S    
C115  C120  T    
C25   C33   A    
C60   H68   S    
C30   C162  S    
C104  C109  A    
C89   H69   S    
C85   H42   S    
C132  N3    S    
H173  N5    S    
