data_mof_unit_52841.cif
_audit_creation_date              2012-12-10T19:45:44-0500
_audit_creation_method            fapswitch 2.2
_symmetry_space_group_name_H-M    P1
_symmetry_Int_Tables_number       1
_space_group_crystal_system       triclinic
_cell_length_a                    10.848168
_cell_length_b                    14.628686
_cell_length_c                    14.800918
_cell_angle_alpha                 64.743206
_cell_angle_beta                  103.661015
_cell_angle_gamma                 102.743861
_cell_volume                      2044.91426374

loop_
_atom_site_label
_atom_site_type_symbol
_atom_type_description
_atom_site_fract_x
_atom_site_fract_y
_atom_site_fract_z
_atom_type_partial_charge
C1    C     C_R   0.474444 0.120119 0.312522 0.806941
C2    C     C_R   0.688629 0.774280 0.958068 -0.143787
C3    C     C_R   0.376599 0.153704 0.133265 -0.114760
C4    C     C_R   0.642795 0.844600 0.863054 -0.095861
C5    C     C_R   0.512977 0.289644 0.175132 -0.105786
C6    C     C_R   0.505695 0.707155 0.824625 -0.142892
C7    C     C_R   0.504972 0.355570 0.072430 0.110273
C8    C     C_R   0.562204 0.633869 0.914536 0.119094
C9    C     C_R   0.421610 0.320207 0.001059 0.142267
C10   C     C_R   0.650819 0.669173 0.983594 0.132315
C11   C     C_R   0.569420 0.457789 0.039553 0.049577
C12   C     C_R   0.522721 0.879724 0.687896 0.808305
C13   C     C_R   0.529939 0.526851 0.938974 0.035383
C14   C     C_R   0.462423 0.485236 0.866783 -0.003096
C15   C     C_R   0.671833 0.494592 0.101677 0.023631
C16   C     C_R   0.262771 0.999904 0.501468 0.793396
C17   C     C_R   0.736809 0.001932 0.495652 0.808243
C18   C     C_R   0.403566 0.384559 0.899293 -0.281144
C19   C     C_R   0.706196 0.599521 0.074962 -0.290457
C20   C     C_R   0.733942 0.290793 0.654076 -0.258167
C21   C     C_R   0.305135 0.725496 0.319194 -0.243770
C22   C     C_R   0.688473 0.204632 0.632590 0.102437
C23   C     C_R   0.869950 0.003854 0.491177 -0.061485
C24   C     C_R   0.326368 0.801082 0.356388 0.090531
C25   C     C_R   0.521531 0.287689 0.508559 0.092452
C26   C     C_R   0.485895 0.716542 0.488080 0.081855
C27   C     C_R   0.569148 0.380845 0.520949 -0.015076
C28   C     C_R   0.474634 0.639558 0.451141 -0.013233
C29   C     C_R   0.674443 0.378859 0.598713 0.041946
C30   C     C_R   0.378802 0.644882 0.366023 0.060388
C31   C     C_R   0.513523 0.473590 0.462805 -0.070918
C32   C     C_R   0.550386 0.556626 0.496080 -0.081194
C33   C     C_R   0.664070 0.553392 0.569250 0.394078
C34   C     C_R   0.129259 0.001894 0.500916 -0.071974
C35   C     C_R   0.427982 0.489643 0.369809 0.330917
C36   C     C_R   0.722049 0.465137 0.619616 -0.203204
C37   C     C_R   0.360242 0.572527 0.324919 -0.206225
C38   C     C_R   0.354882 0.080215 0.763841 0.450002
C39   C     C_R   0.646968 0.926638 0.222729 0.449113
C40   C     C_R   0.260525 0.035267 0.706768 -0.201579
C41   C     C_R   0.726574 0.969007 0.288931 -0.192754
C42   C     C_R   0.185471 0.095449 0.619119 0.064969
C43   C     C_R   0.816347 0.913503 0.367562 0.062976
C44   C     C_R   0.202377 0.201246 0.590469 -0.137056
C45   C     C_R   0.906921 0.959386 0.434838 0.062947
C46   C     C_R   0.828652 0.816453 0.376229 -0.080671
C47   C     C_R   0.296177 0.246796 0.646830 -0.323245
C48   C     C_R   0.747356 0.772560 0.312888 -0.298521
C49   C     C_R   0.374745 0.187644 0.733129 -0.030436
C50   C     C_R   0.654863 0.826143 0.236026 -0.039577
C51   C     C_R   0.963180 0.049227 0.548723 -0.221184
C52   C     C_R   0.036833 0.959166 0.441267 -0.221668
C53   C     C_2   0.476606 0.242136 0.785994 0.398083
C54   C     C_2   0.571350 0.773953 0.172061 0.428349
C55   C     C_2   0.473899 0.535175 0.758435 0.323492
C56   C     C_R   0.092427 0.048395 0.554843 0.030224
C57   C     C_2   0.761197 0.429325 0.184482 0.355251
C58   C     C_R   0.454757 0.188254 0.205263 -0.076866
C59   C     C_R   0.553084 0.810935 0.794777 -0.057654
C60   C     C_R   0.359252 0.219551 0.031751 -0.084933
Cl1   Cl    Cl    0.758055 0.659347 0.590795 -0.636856
Cl2   Cl    Cl    0.421293 0.425026 0.291336 -0.709183
Cl3   Cl    Cl    0.446184 0.998111 0.871000 -0.497468
Cl4   Cl    Cl    0.545762 0.004948 0.121116 -0.496745
Cu1   Cu    Cu3+1 0.466270 0.918260 0.475690 0.972213
Cu2   Cu    Cu3+1 0.533730 0.081740 0.524310 0.969215
H1    H     H_    0.297289 0.191702 0.977116 0.150140
H2    H     H_    0.233607 0.731291 0.252707 0.156490
H3    H     H_    0.247391 0.953303 0.729416 0.150581
H4    H     H_    0.720498 0.046205 0.277640 0.159027
H5    H     H_    0.145120 0.248793 0.522896 0.158813
H6    H     H_    0.901257 0.773891 0.433072 0.183160
H7    H     H_    0.309031 0.329064 0.621720 0.146905
H8    H     H_    0.757382 0.696271 0.323827 0.154746
H9    H     H_    0.935447 0.083002 0.592204 0.155661
H10   H     H_    0.066385 0.927304 0.396931 0.146080
H11   H     H_    0.347222 0.354895 0.844158 0.121815
H12   H     H_    0.758080 0.801806 0.009891 0.137056
H13   H     H_    0.781530 0.627234 0.123748 0.126472
H14   H     H_    0.426579 0.684738 0.775084 0.144514
H15   H     H_    0.562221 0.316581 0.233255 0.193705
H16   H     H_    0.680603 0.924642 0.841868 0.172537
H17   H     H_    0.327737 0.076199 0.155628 0.171229
H18   H     H_    0.493299 0.324938 0.753234 0.050176
H19   H     H_    0.589944 0.700240 0.181301 0.064095
H20   H     H_    0.400489 0.516710 0.702399 0.046244
H21   H     H_    0.812037 0.452537 0.245503 0.073506
H22   H     H_    0.807500 0.464448 0.675446 0.189053
H23   H     H_    0.294343 0.582124 0.254809 0.194094
H24   H     H_    0.548460 0.716147 0.555510 0.231575
H25   H     H_    0.432671 0.278327 0.460490 0.187143
H26   H     H_    0.273861 0.865817 0.317756 0.125581
H27   H     H_    0.736577 0.137567 0.672916 0.126603
H28   H     H_    0.816175 0.289045 0.712691 0.153866
N1    N     N_R   0.584450 0.204570 0.560790 -0.200349
N2    N     N_R   0.415550 0.795430 0.439210 -0.209313
O1    O     O_R   0.455540 0.022090 0.338120 -0.585191
O2    O     O_2   0.480001 0.810150 0.110366 -0.439752
O3    O     O_2   0.570321 0.592817 0.731835 -0.510002
O4    O     O_2   0.784565 0.352389 0.182356 -0.525629
O5    O     O_R   0.544460 0.977910 0.661880 -0.580757
O6    O     O_R   0.512510 0.160150 0.379180 -0.567881
O7    O     O_R   0.487490 0.839850 0.620820 -0.572959
O8    O     O_R   0.291160 0.930970 0.479480 -0.595940
O9    O     O_R   0.708840 0.069030 0.520520 -0.597456
O10   O     O_R   0.348130 0.069020 0.520540 -0.576632
O11   O     O_R   0.651870 0.930980 0.479460 -0.555486
O12   O     O_2   0.542847 0.197019 0.865686 -0.434962

loop_
_geom_bond_atom_site_label_1
_geom_bond_atom_site_label_2
_ccdc_geom_bond_type
C34   C56   A    
C8    C13   A    
C23   C45   A    
C27   C29   A    
C41   C43   A    
C22   N1    A    
Cu2   O6    S    
C2    C4    A    
C39   C41   A    
C38   C49   A    
C36   H22   S    
C15   C19   A    
C39   Cl4   S    
C29   C36   A    
C50   C54   S    
C5    C58   A    
C53   H18   S    
C35   C37   A    
C51   H9    S    
C17   O11   A    
C33   C36   A    
C44   H5    S    
C51   C56   A    
C14   C18   A    
C16   C34   S    
C12   C59   S    
C6    H14   S    
C16   O8    A    
Cu1   N2    S    
C60   H1    S    
C46   H6    S    
C44   C47   A    
C16   O10   A    
C42   C56   S    
C3    C60   A    
C40   C42   A    
C14   C55   S    
C13   C14   A    
C15   C57   S    
Cu2   O5    S    
C42   C44   A    
Cu2   O10   S    
C24   H26   S    
C20   C29   A    
C26   N2    A    
C46   C48   A    
C25   H25   S    
C40   H3    S    
C27   C31   A    
C48   H8    S    
C28   C32   A    
C47   H7    S    
C12   O7    A    
C47   C49   A    
C1    O1    A    
C5    C7    A    
C6    C8    A    
C45   C52   A    
C57   O4    D    
C57   H21   S    
C30   C37   A    
C7    C11   A    
C2    H12   S    
C17   O9    A    
C5    H15   S    
C23   C51   A    
C31   C32   A    
C10   C19   A    
C24   N2    A    
C17   C23   S    
C19   H13   S    
C43   C45   S    
C8    C10   A    
C20   C22   A    
C25   N1    A    
C11   C15   A    
C21   H2    S    
C3    H17   S    
C22   H27   S    
C31   C35   A    
C26   H24   S    
Cu1   O7    S    
Cu2   O9    S    
C2    C10   A    
Cu2   N1    S    
C38   Cl3   S    
C7    C9    A    
C20   H28   S    
C26   C28   A    
C6    C59   A    
C52   H10   S    
C54   H19   S    
C25   C27   A    
C21   C30   A    
C34   C52   A    
C37   H23   S    
C9    C60   A    
C32   C33   A    
C55   H20   S    
C28   C30   A    
Cu1   O1    S    
C12   O5    A    
C1    C58   S    
C38   C40   A    
C11   C13   A    
C53   O12   D    
C18   H11   S    
C49   C53   S    
C4    C59   A    
C48   C50   A    
C35   Cl2   S    
C43   C46   A    
C3    C58   A    
C9    C18   A    
C39   C50   A    
C4    H16   S    
C33   Cl1   S    
Cu1   Cu2   S    
C21   C24   A    
C55   O3    D    
C54   O2    D    
Cu1   O8    S    
C1    O6    A    
Cu1   O11   S    
C41   H4    S    
