data_mof_unit_46878.cif
_audit_creation_date              2012-12-10T18:18:15-0500
_audit_creation_method            fapswitch 2.2
_symmetry_space_group_name_H-M    P1
_symmetry_Int_Tables_number       1
_space_group_crystal_system       triclinic
_cell_length_a                    14.094371
_cell_length_b                    14.677501
_cell_length_c                    15.415446
_cell_angle_alpha                 90.66043
_cell_angle_beta                  67.055813
_cell_angle_gamma                 96.040173
_cell_volume                      2918.87975227

loop_
_atom_site_label
_atom_site_type_symbol
_atom_type_description
_atom_site_fract_x
_atom_site_fract_y
_atom_site_fract_z
_atom_type_partial_charge
C1    C     C_R   0.506022 0.674014 0.496111 0.937684
C2    C     C_R   0.512588 0.771740 0.495907 -0.255477
C3    C     C_R   0.522050 0.186988 0.408731 0.001798
C4    C     C_R   0.451802 0.810747 0.579775 0.025137
C5    C     C_R   0.499839 0.092067 0.403465 -0.038503
C6    C     C_R   0.417921 0.896061 0.575718 -0.034009
C7    C     C_R   0.449225 0.039869 0.488619 -0.137692
C8    C     C_R   0.457975 0.946103 0.488966 -0.135749
C9    C     C_R   0.398893 0.082153 0.574936 -0.112101
C10   C     C_R   0.514246 0.904657 0.403857 -0.136241
C11   C     C_R   0.530002 0.046063 0.316687 0.427930
C12   C     C_R   0.494760 0.325834 0.500756 0.935315
C13   C     C_R   0.342948 0.932678 0.655217 0.362618
C14   C     C_R   0.535585 0.951242 0.317083 0.359522
C15   C     C_R   0.334528 0.027210 0.655173 0.388145
C16   C     C_R   0.435157 0.501348 0.676990 0.905030
C17   C     C_R   0.565206 0.502776 0.323181 0.920828
C18   C     C_R   0.177384 0.425304 0.537772 0.164658
C19   C     C_R   0.824188 0.572294 0.458779 0.204868
C20   C     C_R   0.225839 0.572722 0.462018 -0.065230
C21   C     C_R   0.772324 0.429020 0.541734 -0.049112
C22   C     C_R   0.125827 0.574999 0.462625 -0.092218
C23   C     C_R   0.394988 0.405398 0.093923 -0.029710
C24   C     C_R   0.872301 0.426338 0.541149 -0.112063
C25   C     C_R   0.049661 0.499734 0.501897 -0.034936
C26   C     C_R   0.948959 0.500919 0.501517 -0.055272
C27   C     C_R   0.074654 0.422971 0.540243 -0.033983
C28   C     C_R   0.925493 0.575302 0.458944 -0.008560
C29   C     C_R   0.101420 0.650871 0.423504 0.401730
C30   C     C_R   0.897286 0.348781 0.576583 0.441255
C31   C     C_R   0.003847 0.649614 0.417657 0.010021
C32   C     C_R   0.996293 0.346699 0.577576 -0.005702
C33   C     C_R   0.393775 0.498305 0.780727 -0.201029
C34   C     C_R   0.633132 0.475684 0.885218 -0.038971
C35   C     C_R   0.607516 0.506219 0.219828 -0.117909
C36   C     C_R   0.261098 0.458749 0.936676 0.559923
C37   C     C_R   0.744502 0.536258 0.064609 0.466062
C38   C     C_R   0.288556 0.474607 0.839632 -0.053576
C39   C     C_R   0.713374 0.527950 0.163180 -0.026687
C40   C     C_R   0.466525 0.511301 0.821407 -0.217744
C41   C     C_R   0.536888 0.489974 0.177288 -0.296496
C42   C     C_R   0.445003 0.475342 0.911167 -0.003005
C43   C     C_R   0.569166 0.477735 0.080992 -0.024280
C44   C     C_R   0.339896 0.447544 0.970145 -0.140852
C45   C     C_R   0.316339 0.405309 0.058800 0.469332
C46   C     C_R   0.674923 0.501427 0.023012 -0.096432
C47   C     C_R   0.525115 0.469106 0.944277 0.011931
C48   C     C_R   0.495744 0.451256 0.041213 -0.036150
C49   C     C_3   0.162465 0.375946 0.190220 0.150311
C50   C     C_3   0.048187 0.348706 0.208748 -0.310601
C51   C     C_3   0.977354 0.380702 0.304070 -1.009249
C52   C     C_3   0.847987 0.406236 0.863678 0.091925
C53   C     C_3   0.921515 0.406238 0.915408 -0.282369
C54   C     C_3   0.975955 0.319655 0.899532 -0.974043
C55   C     C_3   0.166961 0.790311 0.454433 0.057369
C56   C     C_R   0.707653 0.489197 0.925432 0.432444
C57   C     C_3   0.220664 0.882780 0.406315 -0.315935
C58   C     C_3   0.205947 0.958547 0.477309 -1.002659
C59   C     C_3   0.827166 0.214759 0.538650 0.075798
C60   C     C_3   0.727018 0.149523 0.570444 -0.330431
C61   C     C_3   0.724811 0.085059 0.492624 -0.961009
C62   C     C_3   0.112210 0.529734 0.006759 0.060629
C63   C     C_3   0.137625 0.592650 0.076783 -0.381393
C64   C     C_3   0.096551 0.685240 0.079651 -0.952893
C65   C     C_3   0.845398 0.673242 0.011163 0.065079
C66   C     C_3   0.806608 0.710178 0.939675 -0.319597
C67   C     C_R   0.416896 0.177493 0.578805 0.430663
C68   C     C_3   0.828405 0.814392 0.928508 -0.990571
C69   C     C_3   0.445204 0.221735 0.709712 0.093182
C70   C     C_3   0.386983 0.236797 0.814585 -0.266404
C71   C     C_3   0.458742 0.238092 0.867532 -0.950997
C72   C     C_3   0.714343 0.791959 0.316599 0.076102
C73   C     C_3   0.773535 0.874158 0.250508 -0.290882
C74   C     C_3   0.888996 0.881360 0.230761 -0.993680
C75   C     C_3   0.482917 0.132680 0.218450 0.111505
C76   C     C_3   0.415214 0.063381 0.186381 -0.413975
C77   C     C_3   0.339922 0.110481 0.157592 -0.893546
C78   C     C_R   0.547582 0.818868 0.408483 0.423938
C79   C     C_3   0.208554 0.818038 0.711508 0.078313
C80   C     C_3   0.150095 0.749615 0.793723 -0.334496
C81   C     C_3   0.078516 0.678134 0.769028 -0.972015
C82   C     C_3   0.498317 0.844234 0.220783 0.157536
C83   C     C_3   0.550323 0.783251 0.138318 -0.312874
C84   C     C_3   0.471675 0.710835 0.124690 -0.953557
C85   C     C_3   0.162888 0.041284 0.742546 0.133392
C86   C     C_3   0.100233 0.122983 0.773176 -0.337199
C87   C     C_3   0.989119 0.096809 0.781179 -0.975774
C88   C     C_R   0.481952 0.227946 0.496722 -0.245570
H1    H     H_    0.285461 0.628877 0.430205 0.183509
H2    H     H_    0.895254 0.357710 0.316853 0.270757
H3    H     H_    0.511846 0.668380 0.063956 0.263305
H4    H     H_    0.411854 0.744007 0.110184 0.267694
H5    H     H_    0.127003 0.985811 0.797663 0.169745
H6    H     H_    0.156988 0.017254 0.675655 0.101465
H7    H     H_    0.099149 0.146162 0.842424 0.237256
H8    H     H_    0.137298 0.180314 0.720387 0.240623
H9    H     H_    0.988902 0.072568 0.712701 0.269566
H10   H     H_    0.944652 0.156963 0.800425 0.279267
H11   H     H_    0.949742 0.041760 0.836186 0.270982
H12   H     H_    0.987254 0.456662 0.305062 0.276531
H13   H     H_    0.891766 0.392787 0.788194 0.170693
H14   H     H_    0.784944 0.348297 0.891915 0.113546
H15   H     H_    0.980989 0.466542 0.890788 0.252802
H16   H     H_    0.876952 0.410171 0.992304 0.226580
H17   H     H_    0.917929 0.258484 0.924745 0.269121
H18   H     H_    0.026486 0.322261 0.939812 0.304611
H19   H     H_    0.025224 0.314326 0.823850 0.262893
H20   H     H_    0.246439 0.369374 0.614147 0.239320
H21   H     H_    0.711893 0.373761 0.574735 0.181069
H22   H     H_    0.252312 0.312490 0.514160 0.207629
H23   H     H_    0.756597 0.619834 0.378373 0.231509
H24   H     H_    0.753310 0.685517 0.472314 0.193651
H25   H     H_    0.205689 0.768925 0.500271 0.133638
H26   H     H_    0.084702 0.799003 0.499828 0.131155
H27   H     H_    0.304718 0.877648 0.368673 0.197036
H28   H     H_    0.188749 0.901039 0.354060 0.226190
H29   H     H_    0.122646 0.968714 0.512587 0.261122
H30   H     H_    0.249912 0.023741 0.440654 0.267705
H31   H     H_    0.235196 0.940191 0.531107 0.250820
H32   H     H_    0.455340 0.487645 0.219973 0.186715
H33   H     H_    0.894304 0.174180 0.521087 0.157459
H34   H     H_    0.834280 0.252945 0.473834 0.133460
H35   H     H_    0.719129 0.108390 0.633451 0.230388
H36   H     H_    0.660167 0.190382 0.589972 0.206676
H37   H     H_    0.728195 0.124842 0.430406 0.272731
H38   H     H_    0.651734 0.038025 0.518886 0.272042
H39   H     H_    0.791252 0.043433 0.471105 0.261275
H40   H     H_    0.043550 0.729055 0.299418 0.216030
H41   H     H_    0.992313 0.784806 0.401463 0.187959
H42   H     H_    0.070389 0.232235 0.565206 0.192599
H43   H     H_    0.541698 0.546527 0.780071 0.194396
H44   H     H_    0.032597 0.281516 0.674190 0.205186
H45   H     H_    0.827313 0.607166 0.187741 0.172530
H46   H     H_    0.843098 0.494638 0.175739 0.196651
H47   H     H_    0.210145 0.520512 0.765720 0.203785
H48   H     H_    0.222513 0.405433 0.759994 0.208506
H49   H     H_    0.026808 0.512535 0.034294 0.177299
H50   H     H_    0.133990 0.567391 0.938342 0.155223
H51   H     H_    0.101397 0.560086 0.148427 0.224286
H52   H     H_    0.222854 0.604214 0.056337 0.216563
H53   H     H_    0.129239 0.718952 0.008397 0.264952
H54   H     H_    0.175538 0.451111 0.199022 0.107025
H55   H     H_    0.119604 0.730540 0.127846 0.267004
H56   H     H_    0.010707 0.676160 0.105733 0.254108
H57   H     H_    0.927373 0.701905 0.991858 0.171164
H58   H     H_    0.800819 0.698745 0.082402 0.114504
H59   H     H_    0.845383 0.679721 0.870128 0.262179
H60   H     H_    0.721727 0.690917 0.963772 0.205231
H61   H     H_    0.791159 0.846492 0.997501 0.271578
H62   H     H_    0.796690 0.839350 0.878678 0.269331
H63   H     H_    0.913241 0.835481 0.900058 0.266244
H64   H     H_    0.447789 0.322936 0.168424 0.191223
H65   H     H_    0.179178 0.338816 0.244012 0.139630
H66   H     H_    0.341435 0.374065 0.234837 0.161698
H67   H     H_    0.705473 0.399291 0.772859 0.209874
H68   H     H_    0.720841 0.513473 0.748844 0.210799
H69   H     H_    0.508644 0.278504 0.679517 0.135670
H70   H     H_    0.479696 0.155595 0.703216 0.134900
H71   H     H_    0.353078 0.302661 0.823552 0.222655
H72   H     H_    0.322615 0.181102 0.845416 0.261133
H73   H     H_    0.490265 0.171084 0.862380 0.264255
H74   H     H_    0.414837 0.251016 0.943015 0.278184
H75   H     H_    0.523969 0.293132 0.837853 0.278854
H76   H     H_    0.028307 0.379215 0.153392 0.259197
H77   H     H_    0.750329 0.730352 0.283083 0.158415
H78   H     H_    0.724304 0.799833 0.384684 0.129557
H79   H     H_    0.763783 0.866428 0.182566 0.250445
H80   H     H_    0.742868 0.938334 0.283196 0.234462
H81   H     H_    0.901292 0.890152 0.297441 0.270039
H82   H     H_    0.929956 0.941548 0.182956 0.275557
H83   H     H_    0.922516 0.818749 0.196317 0.265747
H84   H     H_    0.654332 0.270323 0.338523 0.199546
H85   H     H_    0.550919 0.293110 0.315167 0.162064
H86   H     H_    0.496339 0.751733 0.674134 0.176898
H87   H     H_    0.033851 0.272895 0.206985 0.223804
H88   H     H_    0.383340 0.701883 0.672045 0.180407
H89   H     H_    0.519841 0.187175 0.162596 0.171254
H90   H     H_    0.433009 0.166418 0.282674 0.123839
H91   H     H_    0.465262 0.025993 0.125399 0.248870
H92   H     H_    0.369424 0.013982 0.245501 0.198346
H93   H     H_    0.288887 0.148386 0.217512 0.268187
H94   H     H_    0.290735 0.058184 0.136542 0.264681
H95   H     H_    0.383138 0.158910 0.096811 0.278581
H96   H     H_    0.247033 0.778582 0.647560 0.146322
H97   H     H_    0.151589 0.856627 0.698222 0.100089
H98   H     H_    0.995947 0.351498 0.360937 0.260424
H99   H     H_    0.206376 0.714094 0.811486 0.228284
H100  H     H_    0.103448 0.786854 0.856516 0.214026
H101  H     H_    0.021757 0.712045 0.750586 0.269004
H102  H     H_    0.035831 0.630322 0.830354 0.286588
H103  H     H_    0.124198 0.638013 0.708307 0.263044
H104  H     H_    0.441101 0.879870 0.205160 0.105679
H105  H     H_    0.455707 0.799420 0.284883 0.156506
H106  H     H_    0.589419 0.826389 0.072676 0.221191
H107  H     H_    0.609916 0.748310 0.151476 0.244287
H108  H     H_    0.433384 0.665409 0.188720 0.275805
N1    N     N_R   0.249980 0.499930 0.499960 -0.122380
N2    N     N_3   0.667529 0.458532 0.786384 -0.456481
N3    N     N_3   0.590060 0.240654 0.326345 -0.410108
N4    N     N_3   0.427090 0.764708 0.669103 -0.396888
N5    N     N_R   0.750020 0.500070 0.500040 -0.127556
N6    N     N_3   0.206611 0.347725 0.572006 -0.492397
N7    N     N_3   0.798106 0.646633 0.417470 -0.452800
N8    N     N_3   0.986284 0.723688 0.367694 -0.437116
N9    N     N_3   0.012917 0.264905 0.616956 -0.433514
N10   N     N_3   0.788600 0.541209 0.204813 -0.440170
N11   N     N_3   0.208778 0.461488 0.803599 -0.451775
N12   N     N_3   0.377771 0.342687 0.171000 -0.460009
O1    O     O_R   0.419720 0.632140 0.499980 -0.627996
O2    O     O_3   0.812228 0.493802 0.867909 -0.626821
O3    O     O_3   0.175316 0.724929 0.384368 -0.663577
O4    O     O_3   0.823377 0.274008 0.612788 -0.648497
O5    O     O_3   0.157525 0.446248 0.997528 -0.627894
O6    O     O_3   0.843039 0.576411 0.009313 -0.652523
O7    O     O_3   0.375896 0.221397 0.663461 -0.628038
O8    O     O_3   0.609355 0.778345 0.327259 -0.649501
O9    O     O_3   0.564499 0.092121 0.229958 -0.594974
O10   O     O_3   0.280439 0.878575 0.734155 -0.603342
O11   O     O_3   0.574903 0.909058 0.231054 -0.604869
O12   O     O_R   0.580280 0.367860 0.500020 -0.636598
O13   O     O_3   0.266076 0.066580 0.733782 -0.596038
O14   O     O_R   0.580270 0.632160 0.499970 -0.646499
O15   O     O_R   0.419730 0.367840 0.500030 -0.625976
O16   O     O_R   0.373870 0.499980 0.632250 -0.629911
O17   O     O_R   0.626130 0.500020 0.367750 -0.599309
O18   O     O_R   0.534420 0.500000 0.632240 -0.604944
O19   O     O_R   0.465580 0.500000 0.367760 -0.625640
O20   O     O_3   0.224171 0.347935 0.099316 -0.596544
Zn1   Zn    Zn3+2 0.392800 0.499980 0.500010 0.906784
Zn2   Zn    Zn3+2 0.607200 0.500020 0.499990 0.916447

loop_
_geom_bond_atom_site_label_1
_geom_bond_atom_site_label_2
_ccdc_geom_bond_type
C59   H33   S    
C66   C68   S    
C34   C56   A    
C23   C45   A    
C71   H74   S    
C23   N12   S    
H85   N3    S    
C72   H77   S    
C67   O7    S    
C69   O7    S    
C19   N5    A    
C73   H79   S    
C76   H91   S    
C10   C78   A    
C7    C8    A    
C57   H27   S    
C53   C54   S    
C52   C53   S    
C56   O2    S    
H86   N4    S    
C16   O18   A    
C67   C88   A    
C71   H75   S    
C54   H19   S    
C49   H65   S    
C22   C29   A    
C24   C26   A    
C5    C11   A    
C77   H94   S    
C51   H2    S    
C30   O4    S    
C16   C33   S    
C11   C14   A    
H46   N10   S    
C64   H53   S    
C75   O9    S    
C53   H16   S    
C32   N9    S    
C39   N10   S    
C58   H30   S    
C79   H96   S    
H84   N3    S    
C1    C2    S    
C63   H52   S    
C60   H36   S    
C75   H90   S    
C81   H103  S    
C74   H81   S    
H20   N6    S    
C68   H61   S    
H41   N8    S    
C85   H5    S    
C82   O11   S    
C83   C84   S    
C82   H105  S    
C22   C25   A    
C69   H69   S    
C18   N6    S    
C70   C71   S    
C84   H3    S    
C13   O10   S    
C71   H73   S    
C43   C48   A    
C11   O9    S    
C66   H60   S    
C37   C46   A    
C16   O16   A    
C87   H10   S    
C59   H34   S    
C40   C42   A    
C3    C88   A    
C59   C60   S    
C41   H32   S    
C53   H15   S    
C52   O2    S    
C41   C43   A    
C42   C44   A    
H88   N4    S    
C73   H80   S    
C75   H89   S    
C29   O3    S    
C57   H28   S    
C87   H11   S    
O19   Zn1   S    
C73   C74   S    
C81   H102  S    
C52   H13   S    
C33   C40   A    
C66   H59   S    
C38   N11   S    
C12   C88   S    
C50   H76   S    
C21   N5    A    
C76   C77   S    
C4    C6    A    
C10   C14   A    
H23   N7    S    
C77   H93   S    
C5    C7    A    
C54   H18   S    
C86   C87   S    
C72   C73   S    
C79   O10   S    
C6    C8    A    
C55   H25   S    
C76   H92   S    
C25   C26   A    
O18   Zn2   S    
C1    O1    A    
C82   C83   S    
C58   H29   S    
C63   C64   S    
C60   C61   S    
C45   O20   S    
C15   O13   S    
C60   H35   S    
C35   C39   A    
C75   C76   S    
C9    C67   A    
C12   O15   A    
H40   N8    S    
C62   C63   S    
C2    C78   A    
C72   H78   S    
C36   O5    S    
C85   H6    S    
C34   N2    S    
C3    N3    S    
C47   C48   A    
C4    N4    S    
C52   H14   S    
C49   H54   S    
C18   N1    A    
C19   N7    S    
C50   C51   S    
C80   H100  S    
C50   H87   S    
C61   H39   S    
C70   H71   S    
O1    Zn1   S    
C62   H50   S    
C49   O20   S    
C19   C28   A    
C81   H101  S    
C74   H83   S    
C61   H38   S    
H67   N2    S    
C86   H8    S    
C59   O4    S    
C8    C10   A    
N5    Zn2   S    
C72   O8    S    
C40   H43   S    
C31   N8    S    
C65   C66   S    
C13   C15   A    
C62   O5    S    
C14   O11   S    
C36   C44   A    
C55   H26   S    
C17   O17   A    
C78   O8    S    
C37   O6    S    
C44   C45   A    
H47   N11   S    
C51   H12   S    
C7    C9    A    
C23   C48   A    
C79   H97   S    
C54   H17   S    
C82   H104  S    
C27   C32   A    
C63   H51   S    
H64   N12   S    
C28   C31   A    
H68   N2    S    
C18   C27   A    
O17   Zn2   S    
C20   C22   A    
C80   C81   S    
C3    C5    A    
C85   C86   S    
H48   N11   S    
C21   H21   S    
C64   H55   S    
N1    Zn1   S    
C25   C27   A    
C64   H56   S    
C20   H1    S    
C26   C28   A    
C33   C38   A    
O12   Zn2   S    
H22   N6    S    
C83   H106  S    
C55   C57   S    
C9    C15   A    
C65   O6    S    
C29   C31   A    
H42   N9    S    
O16   Zn1   S    
C6    C13   A    
C30   C32   A    
C17   O19   A    
C57   C58   S    
C85   O13   S    
C84   H108  S    
C2    C4    A    
C36   C38   A    
C58   H31   S    
C77   H95   S    
C80   H99   S    
C69   H70   S    
C70   H72   S    
C42   C47   A    
C62   H49   S    
C83   H107  S    
C69   C70   S    
C35   C41   A    
C43   C46   A    
C24   C30   A    
C20   N1    A    
C74   H82   S    
C68   H62   S    
C86   H7    S    
C55   O3    S    
C79   C80   S    
C51   H98   S    
H44   N9    S    
C17   C35   S    
O14   Zn2   S    
H45   N10   S    
C37   C39   A    
C49   C50   S    
C21   C24   A    
C46   C56   A    
C68   H63   S    
C1    O14   A    
C61   H37   S    
C34   C47   A    
C84   H4    S    
H24   N7    S    
C65   H58   S    
C65   H57   S    
C12   O12   A    
H66   N12   S    
O15   Zn1   S    
C87   H9    S    
