data_mof_unit_44674.cif
_audit_creation_date              2012-12-10T20:42:44-0500
_audit_creation_method            fapswitch 2.2
_symmetry_space_group_name_H-M    P1
_symmetry_Int_Tables_number       1
_space_group_crystal_system       triclinic
_cell_length_a                    8.901761
_cell_length_b                    10.667524
_cell_length_c                    9.901499
_cell_angle_alpha                 89.818802
_cell_angle_beta                  90.098728
_cell_angle_gamma                 90.346838
_cell_volume                      940.220566693

loop_
_atom_site_label
_atom_site_type_symbol
_atom_type_description
_atom_site_fract_x
_atom_site_fract_y
_atom_site_fract_z
_atom_type_partial_charge
C1    C     C_R   0.505932 0.260055 0.500116 0.865659
C2    C     C_R   0.372407 0.526081 0.928371 0.177448
C3    C     C_3   0.223782 0.461720 0.917219 -0.493872
C4    C     C_R   0.218841 0.499824 0.499909 0.930345
C5    C     C_3   0.224015 0.452453 0.071306 -0.101007
C6    C     C_R   0.505321 0.740023 0.499786 0.874854
C7    C     C_R   0.781185 0.499972 0.500087 0.934395
C8    C     C_1   0.065462 0.499728 0.499868 -0.226173
C9    C     C_1   0.934589 0.499786 0.500094 -0.215121
C10   C     C_R   0.541315 0.063658 0.621846 0.138264
C11   C     C_R   0.533426 0.128950 0.500177 -0.098701
C12   C     C_R   0.555817 0.935896 0.377797 -0.230156
C13   C     C_R   0.556933 0.065571 0.378097 -0.236837
C14   C     C_3   0.222441 0.317228 0.129479 -0.301428
C15   C     C_3   0.337592 0.226126 0.071266 -0.844261
C16   C     C_R   0.531882 0.871468 0.499696 -0.103595
C17   C     C_R   0.540200 0.935773 0.621627 0.135814
C18   C     C_3   0.442603 0.928170 0.744148 -0.476037
C19   C     C_3   0.444598 0.070294 0.744663 -0.498704
C20   C     C_R   0.371593 0.522047 0.070106 0.193892
C21   C     C_R   0.630052 0.486021 0.072043 -0.157185
C22   C     C_R   0.629861 0.485001 0.928444 -0.136065
H1    H     H_    0.564754 0.114898 0.282595 0.175005
H2    H     H_    0.734240 0.470584 0.875264 0.154514
H3    H     H_    0.136147 0.526246 0.878143 0.175192
H4    H     H_    0.334644 0.137751 0.130809 0.234795
H5    H     H_    0.309052 0.201677 0.965779 0.242398
H6    H     H_    0.453176 0.264659 0.076229 0.268214
H7    H     H_    0.238792 0.320858 0.240117 0.235462
H8    H     H_    0.108598 0.276866 0.112642 0.184794
H9    H     H_    0.229763 0.372162 0.861085 0.221578
H10   H     H_    0.134316 0.510791 0.116922 0.136723
H11   H     H_    0.562417 0.887408 0.282043 0.173804
H12   H     H_    0.329770 0.887512 0.722527 0.203852
H13   H     H_    0.502150 0.886296 0.832003 0.205616
H14   H     H_    0.332841 0.112409 0.724028 0.201028
H15   H     H_    0.506747 0.110355 0.832042 0.209888
H16   H     H_    0.734630 0.472641 0.125640 0.155448
N1    N     N_R   0.499010 0.499140 0.142800 -0.103711
N2    N     N_R   0.499010 0.499180 0.857150 -0.098512
O1    O     O_R   0.500020 0.316790 0.614690 -0.615113
O2    O     O_R   0.500000 0.316760 0.385350 -0.623506
O3    O     O_R   0.285350 0.500020 0.614650 -0.615225
O4    O     O_R   0.285340 0.499980 0.385310 -0.633056
O5    O     O_R   0.500000 0.683240 0.614650 -0.614554
O6    O     O_R   0.499980 0.683210 0.385310 -0.621308
O7    O     O_R   0.714660 0.500020 0.614690 -0.624612
O8    O     O_R   0.714650 0.499980 0.385350 -0.625804
Zn1   Zn    Zn3+2 0.500010 0.500020 0.653130 0.936318
Zn2   Zn    Zn3+2 0.499990 0.499980 0.346870 0.929241

loop_
_geom_bond_atom_site_label_1
_geom_bond_atom_site_label_2
_ccdc_geom_bond_type
C8    C9    T    
C4    O3    A    
C4    O4    A    
C18   H13   S    
O6    Zn2   S    
C15   H5    S    
C21   N1    A    
O5    Zn1   S    
C10   C19   S    
C4    C8    S    
C5    H10   S    
C22   N2    A    
C7    O8    A    
O8    Zn2   S    
C2    C3    S    
C5    C14   S    
O7    Zn1   S    
C5    C20   S    
C21   C22   A    
C3    H9    S    
C11   C13   A    
C15   H6    S    
C14   H8    S    
C1    O1    A    
C6    O5    A    
O2    Zn2   S    
C17   C18   S    
C19   H14   S    
C18   H12   S    
C22   H2    S    
C19   H15   S    
C10   C11   A    
C10   C17   A    
C2    C20   A    
N2    Zn1   S    
C2    N2    A    
C1    O2    A    
C3    H3    S    
N1    Zn2   S    
C12   C13   A    
C13   H1    S    
C18   C19   S    
C7    O7    A    
O1    Zn1   S    
C7    C9    S    
C20   N1    A    
C14   C15   S    
O3    Zn1   S    
C15   H4    S    
O4    Zn2   S    
C6    O6    A    
C12   H11   S    
C6    C16   S    
C21   H16   S    
C12   C16   A    
C14   H7    S    
C16   C17   A    
C3    C5    S    
C1    C11   S    
