data_mof_unit_42419.cif
_audit_creation_date              2012-10-26T19:22:33-0400
_audit_creation_method            fapswitch 2.2
_symmetry_space_group_name_H-M    P1
_symmetry_Int_Tables_number       1
_space_group_crystal_system       triclinic
_cell_length_a                    11.766468
_cell_length_b                    12.958874
_cell_length_c                    13.841506
_cell_angle_alpha                 87.980816
_cell_angle_beta                  92.383929
_cell_angle_gamma                 99.215602
_cell_volume                      2080.63692795

loop_
_atom_site_label
_atom_site_type_symbol
_atom_type_description
_atom_site_fract_x
_atom_site_fract_y
_atom_site_fract_z
_atom_type_partial_charge
C1    C     C_R   0.479620 0.299508 0.503215 0.536631
C2    C     C_R   0.850099 0.461673 0.544547 0.379844
C3    C     C_R   0.027727 0.531529 0.463091 -0.081061
C4    C     C_R   0.970557 0.463352 0.532447 -0.086998
C5    C     C_R   0.519645 0.501398 0.681894 0.530007
C6    C     C_R   0.480248 0.499082 0.318123 0.539780
C7    C     C_1   0.466157 0.499332 0.215237 -0.043985
C8    C     C_1   0.532871 0.502656 0.784841 -0.066156
C9    C     C_2   0.448974 0.500916 0.023469 0.281690
C10   C     C_2   0.547474 0.504114 0.976569 0.284361
C11   C     C_1   0.541315 0.503394 0.871633 -0.031224
C12   C     C_R   0.521220 0.700530 0.499962 0.528691
C13   C     C_1   0.456198 0.500091 0.128483 -0.034680
C14   C     C_R   0.534479 0.813981 0.498704 -0.006025
C15   C     C_R   0.470115 0.186444 0.511031 0.002582
C16   C     C_R   0.374300 0.019296 0.572384 -0.148947
C17   C     C_R   0.634181 0.981797 0.442497 -0.143438
C18   C     C_R   0.378975 0.126834 0.560161 -0.139096
C19   C     C_R   0.625848 0.873714 0.449900 -0.141109
C20   C     C_R   0.555669 0.138235 0.472760 -0.120757
C21   C     C_R   0.454336 0.862934 0.543840 -0.139850
C22   C     C_3   0.734845 0.468420 0.985449 -0.016241
C23   C     C_R   0.550383 0.030574 0.482898 0.048322
C24   C     C_3   0.837997 0.466779 0.055043 -0.376600
C25   C     C_3   0.254957 0.520664 0.021666 -0.010972
C26   C     C_3   0.150718 0.523493 0.953407 -0.388344
C27   C     C_3   0.827750 0.429248 0.708608 -0.011836
C28   C     C_3   0.805361 0.335590 0.778486 -0.390943
C29   C     C_3   0.211587 0.715499 0.417679 -0.001300
C30   C     C_3   0.282074 0.787649 0.345435 -0.361000
C31   C     C_3   0.819960 0.679373 0.264964 -0.028899
C32   C     C_3   0.728656 0.724198 0.203131 -0.345435
C33   C     C_3   0.206638 0.353283 0.733659 -0.007530
C34   C     C_R   0.459535 0.970688 0.533858 0.047327
C35   C     C_3   0.283648 0.286058 0.789002 -0.354670
C36   C     C_R   0.034359 0.396696 0.585974 -0.174641
C37   C     C_R   0.960943 0.584716 0.397937 -0.186842
C38   C     C_R   0.155306 0.408921 0.581098 0.364771
C39   C     C_R   0.840914 0.580932 0.409667 0.375652
C40   C     C_R   0.150524 0.542827 0.459105 0.375641
Cu1   Cu    Cu3+1 0.615220 0.507680 0.492970 1.046693
Cu2   Cu    Cu3+1 0.384780 0.492320 0.507030 1.034377
H1    H     H_    0.387439 0.817203 0.585795 0.097748
H2    H     H_    0.900364 0.422685 0.023642 0.089441
H3    H     H_    0.881266 0.547932 0.068144 0.138814
H4    H     H_    0.281539 0.600390 0.050732 0.133793
H5    H     H_    0.229435 0.463490 0.081839 0.145400
H6    H     H_    0.117774 0.443860 0.927136 0.137633
H7    H     H_    0.081662 0.552311 0.991910 0.093433
H8    H     H_    0.174698 0.576902 0.890433 0.152266
H9    H     H_    0.778860 0.490033 0.731139 0.152365
H10   H     H_    0.920278 0.463798 0.716809 0.086727
H11   H     H_    0.844652 0.269771 0.752468 0.156263
H12   H     H_    0.625757 0.184399 0.434320 0.125651
H13   H     H_    0.844429 0.356746 0.850801 0.076920
H14   H     H_    0.711152 0.310002 0.784577 0.152565
H15   H     H_    0.249104 0.728614 0.491653 0.140398
H16   H     H_    0.125331 0.739244 0.417707 0.096605
H17   H     H_    0.238254 0.781199 0.272770 0.134180
H18   H     H_    0.290902 0.869928 0.368274 0.106790
H19   H     H_    0.369059 0.765909 0.340553 0.170670
H20   H     H_    0.846809 0.615047 0.224632 0.132890
H21   H     H_    0.893720 0.743504 0.276815 0.110375
H22   H     H_    0.699809 0.789263 0.240629 0.131989
H23   H     H_    0.689385 0.836676 0.415773 0.153703
H24   H     H_    0.764754 0.754322 0.132869 0.108919
H25   H     H_    0.653534 0.662575 0.188991 0.191245
H26   H     H_    0.117001 0.326636 0.756562 0.095241
H27   H     H_    0.234186 0.436212 0.754072 0.162252
H28   H     H_    0.374004 0.307488 0.766518 0.163584
H29   H     H_    0.280438 0.297761 0.867869 0.138264
H30   H     H_    0.253736 0.202216 0.774216 0.130491
H31   H     H_    0.990636 0.334195 0.631023 0.138492
H32   H     H_    0.002836 0.628338 0.338055 0.116375
H33   H     H_    0.312873 0.163609 0.590799 0.167167
H34   H     H_    0.303939 0.974207 0.611146 0.100876
H35   H     H_    0.704485 0.026853 0.403638 0.106349
H36   H     H_    0.765143 0.512838 0.918624 0.129486
H37   H     H_    0.698777 0.385999 0.968136 0.126721
H38   H     H_    0.809730 0.428241 0.124880 0.167036
N1    N     N_R   0.788370 0.519230 0.482390 -0.204316
N2    N     N_R   0.211630 0.480770 0.517610 -0.207645
O1    O     O_R   0.581500 0.354430 0.495010 -0.476371
O2    O     O_3   0.344427 0.490003 0.970045 -0.596926
O3    O     O_3   0.791676 0.396258 0.613830 -0.521386
O4    O     O_3   0.208536 0.610347 0.391154 -0.530290
O5    O     O_3   0.773436 0.642028 0.354353 -0.518634
O6    O     O_3   0.216667 0.341679 0.633293 -0.531968
O7    O     O_R   0.418500 0.645570 0.504990 -0.501960
O8    O     O_R   0.386890 0.341450 0.506880 -0.464790
O9    O     O_R   0.613110 0.658550 0.493120 -0.470033
O10   O     O_R   0.611060 0.507430 0.631070 -0.486515
O11   O     O_R   0.388940 0.492570 0.368930 -0.462354
O12   O     O_R   0.416450 0.494450 0.642940 -0.479330
O13   O     O_R   0.583550 0.505550 0.357060 -0.454734
O14   O     O_3   0.652208 0.517210 0.029476 -0.589654

loop_
_geom_bond_atom_site_label_1
_geom_bond_atom_site_label_2
_ccdc_geom_bond_type
C15   C18   A    
C37   H32   S    
C4    C36   A    
C18   H33   S    
Cu2   O11   S    
Cu1   Cu2   S    
C12   O9    A    
Cu2   N2    S    
C39   O5    S    
C5    O12   A    
C28   H14   S    
C1    O8    A    
C24   H3    S    
C14   C21   A    
C33   O6    S    
C22   H37   S    
C26   H8    S    
Cu1   O1    S    
C2    O3    S    
C40   O4    S    
C27   O3    S    
C9    C13   S    
C16   C34   A    
C21   H1    S    
C24   H38   S    
C35   H28   S    
C30   H18   S    
C25   O2    S    
C1    C15   S    
C9    C10   D    
C25   H5    S    
C33   H27   S    
C6    O11   A    
C35   H29   S    
Cu2   O12   S    
C38   N2    A    
C31   H20   S    
C28   H13   S    
C27   H9    S    
C15   C20   A    
C31   O5    S    
C40   N2    A    
C12   O7    A    
C32   H22   S    
C20   H12   S    
C10   C11   S    
C26   H7    S    
C17   C19   A    
C21   C34   A    
C25   C26   S    
C38   O6    S    
Cu2   O8    S    
C2    C4    A    
C29   C30   S    
C31   H21   S    
C31   C32   S    
C20   C23   A    
C10   O14   S    
C23   C34   A    
Cu1   N1    S    
C30   H17   S    
C17   H35   S    
C17   C23   A    
C22   H36   S    
C29   O4    S    
C32   H25   S    
Cu1   O9    S    
C12   C14   S    
C35   H30   S    
C24   H2    S    
C22   C24   S    
C3    C4    A    
C27   H10   S    
C32   H24   S    
C16   H34   S    
C22   O14   S    
C14   C19   A    
C29   H15   S    
C3    C40   A    
C5    C8    S    
C28   H11   S    
C6    C7    S    
C26   H6    S    
C1    O1    A    
Cu2   O7    S    
C36   C38   A    
C37   C39   A    
Cu1   O13   S    
C8    C11   T    
C33   C35   S    
C19   H23   S    
C39   N1    A    
C5    O10   A    
C36   H31   S    
C9    O2    S    
C7    C13   T    
Cu1   O10   S    
C29   H16   S    
C3    C37   A    
C16   C18   A    
C6    O13   A    
C30   H19   S    
C27   C28   S    
C2    N1    A    
C25   H4    S    
C33   H26   S    
