data_mof_unit_27321.cif
_audit_creation_date              2012-10-26T19:15:22-0400
_audit_creation_method            fapswitch 2.2
_symmetry_space_group_name_H-M    P1
_symmetry_Int_Tables_number       1
_space_group_crystal_system       triclinic
_cell_length_a                    15.986987
_cell_length_b                    10.825601
_cell_length_c                    9.539658
_cell_angle_alpha                 89.891714
_cell_angle_beta                  89.930815
_cell_angle_gamma                 89.917553
_cell_volume                      1651.01075731

loop_
_atom_site_label
_atom_site_type_symbol
_atom_type_description
_atom_site_fract_x
_atom_site_fract_y
_atom_site_fract_z
_atom_type_partial_charge
C1    C     C_R   0.498787 0.262259 0.500025 0.546308
C2    C     C_R   0.479318 0.935862 0.373138 -0.160001
C3    C     C_R   0.490192 0.870757 0.499513 0.008145
C4    C     C_R   0.341292 0.499957 0.500069 0.553643
C5    C     C_R   0.489663 0.936069 0.625474 0.020526
C6    C     C_3   0.548053 0.928449 0.747280 -0.266500
C7    C     C_3   0.549005 0.068641 0.746869 -0.272211
C8    C     C_R   0.537433 0.408029 0.073854 0.155047
C9    C     C_R   0.456540 0.588129 0.074339 -0.007877
C10   C     C_R   0.456509 0.588077 0.925375 -0.010134
C11   C     C_R   0.537715 0.408211 0.926458 0.159823
C12   C     C_R   0.041961 0.543126 0.620582 0.030463
C13   C     C_3   0.628038 0.373457 0.921500 -0.279614
C14   C     C_3   0.627316 0.372083 0.080449 -0.271747
C15   C     C_R   0.498415 0.737689 0.499834 0.548378
C16   C     C_R   0.658674 0.499569 0.499947 0.548430
C17   C     C_R   0.954298 0.540149 0.616101 -0.095910
C18   C     C_R   0.912444 0.492371 0.499538 0.001306
C19   C     C_R   0.957908 0.446538 0.383959 0.004245
C20   C     C_R   0.045398 0.451148 0.387371 -0.112800
C21   C     C_R   0.087334 0.498429 0.504189 -0.008373
C22   C     C_2   0.085027 0.592999 0.746350 0.217330
C23   C     C_1   0.822747 0.495249 0.499464 -0.065669
C24   C     C_R   0.916027 0.393309 0.259178 0.028754
C25   C     C_R   0.860194 0.293835 0.273518 -0.083920
C26   C     C_R   0.822381 0.242244 0.155274 -0.113875
C27   C     C_R   0.839886 0.289384 0.021993 -0.109159
C28   C     C_R   0.895531 0.387883 0.006671 -0.100118
C29   C     C_R   0.933768 0.439489 0.124570 -0.087405
C30   C     C_1   0.177093 0.499177 0.501976 -0.076122
C31   C     C_1   0.252167 0.499605 0.500576 -0.027684
C32   C     C_1   0.747723 0.497538 0.499712 -0.036176
C33   C     C_R   0.490156 0.063227 0.625552 0.029402
C34   C     C_R   0.490846 0.129127 0.499708 0.007470
C35   C     C_R   0.479651 0.064659 0.373235 -0.161042
Cu1   Cu    Cu3+1 0.500000 0.499980 0.640670 0.941183
Cu2   Cu    Cu3+1 0.500000 0.500020 0.359330 0.941887
H1    H     H_    0.610861 0.107962 0.717719 0.127948
H2    H     H_    0.475111 0.113002 0.274009 0.135754
H3    H     H_    0.474603 0.887970 0.273877 0.129578
H4    H     H_    0.517421 0.888568 0.841729 0.133454
H5    H     H_    0.609407 0.886566 0.719364 0.142882
H6    H     H_    0.519378 0.109681 0.841468 0.138540
H7    H     H_    0.152765 0.596444 0.751042 0.119422
H8    H     H_    0.846681 0.255386 0.375948 0.110208
H9    H     H_    0.779579 0.165534 0.166965 0.106036
H10   H     H_    0.810431 0.249473 0.930601 0.108386
H11   H     H_    0.909239 0.423961 0.903383 0.131187
H12   H     H_    0.422465 0.659123 0.130068 0.115533
H13   H     H_    0.976827 0.515752 0.111080 0.152948
H14   H     H_    0.422397 0.659019 0.869452 0.117922
H15   H     H_    0.638294 0.280654 0.875381 0.111796
H16   H     H_    0.668253 0.447659 0.877327 0.158134
H17   H     H_    0.635729 0.278216 0.125683 0.120594
H18   H     H_    0.667689 0.444797 0.126809 0.169684
H19   H     H_    0.918103 0.575704 0.703388 0.150237
H20   H     H_    0.081130 0.416129 0.299186 0.125817
N1    N     N_R   0.500520 0.500930 0.147930 -0.230211
N2    N     N_R   0.500520 0.500890 0.852020 -0.229845
O1    O     O_R   0.500000 0.319640 0.618810 -0.495405
O2    O     O_R   0.500010 0.319680 0.381230 -0.507060
O3    O     O_R   0.380300 0.499950 0.618760 -0.496273
O4    O     O_R   0.380310 0.499990 0.381180 -0.491863
O5    O     O_R   0.499990 0.680320 0.618770 -0.505137
O6    O     O_R   0.500000 0.680360 0.381190 -0.511901
O7    O     O_R   0.619690 0.500010 0.618820 -0.502353
O8    O     O_R   0.619700 0.500050 0.381240 -0.496059
O9    O     O_2   0.045266 0.630913 0.846892 -0.535953

loop_
_geom_bond_atom_site_label_1
_geom_bond_atom_site_label_2
_ccdc_geom_bond_type
C12   C17   A    
C2    C35   A    
C35   H2    S    
C15   O5    A    
C6    C7    S    
C2    H3    S    
C2    C3    A    
C16   C32   S    
C13   H15   S    
C7    C33   S    
C9    C10   A    
Cu1   O7    S    
Cu2   O2    S    
C19   C20   A    
C4    O4    A    
C10   N2    A    
Cu1   N2    S    
C4    O3    A    
C23   C32   T    
C14   H18   S    
C20   H20   S    
C3    C15   S    
C16   O8    A    
C13   C14   S    
C24   C25   A    
C11   C13   S    
C17   H19   S    
C22   O9    D    
C26   C27   A    
C5    C6    S    
C22   H7    S    
C8    C11   A    
C11   N2    A    
C10   H14   S    
Cu2   O8    S    
C28   C29   A    
C14   H17   S    
C7    H1    S    
C1    C34   S    
C33   C34   A    
C13   H16   S    
C29   H13   S    
C30   C31   T    
C34   C35   A    
Cu1   O3    S    
C4    C31   S    
C16   O7    A    
C26   H9    S    
C25   H8    S    
C18   C23   S    
C15   O6    A    
C5    C33   A    
C12   C22   S    
C21   C30   S    
C27   C28   A    
C9    H12   S    
C20   C21   A    
C17   C18   A    
C9    N1    A    
C6    H5    S    
C1    O1    A    
C27   H10   S    
C7    H6    S    
C18   C19   A    
Cu1   O1    S    
C24   C29   A    
Cu1   Cu2   S    
C8    N1    A    
C8    C14   S    
Cu2   O4    S    
C25   C26   A    
Cu1   O5    S    
C19   C24   S    
C12   C21   A    
C28   H11   S    
Cu2   N1    S    
Cu2   O6    S    
C3    C5    A    
C6    H4    S    
C1    O2    A    
