data_mof_unit_5012.cif
_audit_creation_date              2012-12-11T17:35:18-0500
_audit_creation_method            fapswitch 2.2
_symmetry_space_group_name_H-M    P1
_symmetry_Int_Tables_number       1
_space_group_crystal_system       triclinic
_cell_length_a                    23.840798
_cell_length_b                    7.23552
_cell_length_c                    22.918075
_cell_angle_alpha                 90.283399
_cell_angle_beta                  99.328442
_cell_angle_gamma                 88.718301
_cell_volume                      3900.11950138

loop_
_atom_site_label
_atom_site_type_symbol
_atom_type_description
_atom_site_fract_x
_atom_site_fract_y
_atom_site_fract_z
_atom_type_partial_charge
O1    O     O_R   0.801940 0.607920 0.199180 -0.521665
O2    O     O_R   0.198060 0.392080 0.800820 -0.522178
O3    O     O_R   0.698060 0.107920 0.300820 -0.522799
O4    O     O_R   0.301940 0.892080 0.699180 -0.524424
O5    O     O_R   0.687840 0.274940 0.181980 -0.539459
O6    O     O_R   0.312160 0.725060 0.818020 -0.539629
O7    O     O_R   0.812160 0.774940 0.318020 -0.524775
O8    O     O_R   0.187840 0.225060 0.681980 -0.523779
C1    C     C_R   0.668618 0.446388 0.165516 0.728842
C2    C     C_R   0.331451 0.553616 0.834385 0.726571
C3    C     C_R   0.832041 0.944173 0.333971 0.738146
C4    C     C_R   0.167990 0.055728 0.665996 0.736572
O9    O     O_R   0.800890 0.278000 0.191820 -0.517747
O10   O     O_R   0.199110 0.722000 0.808180 -0.516573
O11   O     O_R   0.699110 0.778000 0.308180 -0.514726
O12   O     O_R   0.300890 0.222000 0.691820 -0.513115
O13   O     O_R   0.811910 0.110860 0.310720 -0.518154
O14   O     O_R   0.188090 0.889140 0.689280 -0.516539
O15   O     O_R   0.688090 0.610860 0.189280 -0.555654
O16   O     O_R   0.311910 0.389140 0.810720 -0.554932
C5    C     C_R   0.817889 0.447611 0.177820 0.704859
C6    C     C_R   0.182465 0.552210 0.822527 0.706961
C7    C     C_R   0.682778 0.949510 0.322740 0.715708
C8    C     C_R   0.317122 0.050319 0.677188 0.716356
O17   O     O_3   0.753490 0.442410 0.289000 -0.358231
O18   O     O_3   0.246510 0.557590 0.711000 -0.358513
O19   O     O_3   0.746510 0.942410 0.211000 -0.385205
O20   O     O_3   0.253490 0.057590 0.789000 -0.385595
V1    V     V_3+5 0.749350 0.166330 0.242770 1.493824
V2    V     V_3+5 0.250650 0.833670 0.757230 1.495797
V3    V     V_3+5 0.750650 0.666330 0.257230 1.490085
V4    V     V_3+5 0.249350 0.333670 0.742770 1.492708
C9    C     C_R   0.410110 0.174003 0.561358 -0.270499
C10   C     C_R   0.593388 0.824999 0.441854 -0.330346
C11   C     C_R   0.084723 0.677178 0.935931 -0.252386
C12   C     C_R   0.915960 0.319284 0.065067 -0.317091
H1    H     H_    0.419106 0.295726 0.537440 0.169512
H2    H     H_    0.586979 0.706636 0.468387 0.141528
H3    H     H_    0.073833 0.798863 0.959790 0.175260
H4    H     H_    0.926942 0.198464 0.041143 0.155033
C13   C     C_R   0.368305 0.185205 0.598192 0.405059
C14   C     C_R   0.633698 0.814081 0.403262 0.406584
C15   C     C_R   0.126361 0.688790 0.899330 0.368495
C16   C     C_R   0.874333 0.308905 0.101779 0.367714
C17   C     C_R   0.357517 0.031710 0.632560 -0.323763
C18   C     C_R   0.642476 0.966852 0.367531 -0.281491
C19   C     C_R   0.140987 0.534760 0.866121 -0.346754
C20   C     C_R   0.859761 0.463977 0.134590 -0.303276
C21   C     C_R   0.385227 0.859893 0.622327 0.365683
C22   C     C_R   0.613240 0.136584 0.376938 0.299369
C23   C     C_R   0.116186 0.362069 0.876844 0.395181
C24   C     C_R   0.884555 0.636207 0.123227 0.329543
C25   C     C_R   0.425045 0.848911 0.583060 0.152673
C26   C     C_R   0.573295 0.144535 0.416483 0.149815
C27   C     C_R   0.076932 0.350363 0.916614 0.147853
C28   C     C_R   0.922992 0.645920 0.082220 0.138795
C29   C     C_R   0.439145 0.007989 0.554281 -0.065631
C30   C     C_R   0.562280 0.987330 0.447459 0.007538
C31   C     C_R   0.059709 0.509720 0.944620 -0.076083
C32   C     C_R   0.940487 0.486129 0.055369 0.000029
C33   C     C_1   0.482692 0.000749 0.516712 -0.006904
C34   C     C_1   0.519169 0.993301 0.485562 0.049719
C35   C     C_1   0.017575 0.501595 0.983613 -0.007790
C36   C     C_1   0.982372 0.493826 0.016069 0.050867
C37   C     C_R   0.924863 0.805298 0.395340 0.310754
C38   C     C_R   0.075139 0.194122 0.604675 0.310355
C39   C     C_R   0.563811 0.404560 0.123875 0.272340
C40   C     C_R   0.436335 0.595568 0.875710 0.271099
C41   C     C_R   0.881476 0.947863 0.384774 -0.274129
C42   C     C_R   0.118475 0.051573 0.615287 -0.274552
C43   C     C_R   0.619116 0.452417 0.115032 -0.229261
C44   C     C_R   0.381064 0.547595 0.884702 -0.228874
C45   C     C_R   0.883761 0.095376 0.425621 0.346364
C46   C     C_R   0.115918 0.903147 0.574756 0.347067
C47   C     C_R   0.627305 0.483347 0.056028 0.292252
C48   C     C_R   0.372946 0.516745 0.943706 0.292497
C49   C     C_R   0.933874 0.126843 0.466030 -0.013143
C50   C     C_R   0.065730 0.871709 0.534450 -0.013739
C51   C     C_R   0.579766 0.503932 0.009847 0.022317
C52   C     C_R   0.420493 0.496664 0.989845 0.022396
C53   C     C_R   0.976252 0.987750 0.477107 -0.007573
C54   C     C_R   0.023425 0.011025 0.523291 -0.007205
C55   C     C_R   0.524070 0.490078 0.022627 -0.016507
C56   C     C_R   0.476172 0.510696 0.977030 -0.016387
C57   C     C_R   0.970158 0.821936 0.444340 -0.010111
C58   C     C_R   0.029560 0.176928 0.556007 -0.009925
C59   C     C_R   0.516198 0.444721 0.080200 0.007103
C60   C     C_R   0.484015 0.555992 0.919431 0.007300
C61   C     C_R   0.941213 0.293635 0.497052 -0.157956
C62   C     C_R   0.058193 0.704519 0.503682 -0.158384
C63   C     C_R   0.586557 0.537406 0.950903 -0.168193
C64   C     C_R   0.413700 0.463472 0.048794 -0.168519
C65   C     C_R   0.989790 0.321430 0.538756 -0.210291
C66   C     C_R   0.009636 0.676922 0.461942 -0.210618
C67   C     C_R   0.539496 0.568554 0.906871 -0.175576
C68   C     C_R   0.460739 0.432370 0.092800 -0.175660
H5    H     H_    0.910397 0.406235 0.487325 0.170086
H6    H     H_    0.088873 0.591608 0.513571 0.171401
H7    H     H_    0.628141 0.544183 0.938307 0.158194
H8    H     H_    0.372134 0.456785 0.061426 0.158439
H9    H     H_    0.995815 0.458936 0.556605 0.162719
H10   H     H_    0.003445 0.539313 0.444199 0.163321
H11   H     H_    0.546637 0.599948 0.862515 0.155914
H12   H     H_    0.453597 0.401040 0.137161 0.155744
O21   O     O_3   0.337919 0.348678 0.600516 -0.506196
C69   C     C_3   0.298121 0.370980 0.548010 0.099319
H13   H     H_    0.294868 0.249901 0.517285 0.073450
H14   H     H_    0.310865 0.490574 0.523503 0.140080
C70   C     C_3   0.239622 0.408069 0.564352 -0.587542
H15   H     H_    0.240309 0.532284 0.592917 0.279004
H16   H     H_    0.207516 0.428290 0.523922 0.149494
H17   H     H_    0.227442 0.288578 0.588994 0.202330
O22   O     O_3   0.664551 0.651700 0.400411 -0.513604
C71   C     C_3   0.704703 0.629114 0.452615 0.076188
H18   H     H_    0.691327 0.512846 0.478133 0.133223
H19   H     H_    0.709427 0.752285 0.482425 0.082614
C72   C     C_3   0.762512 0.584940 0.435598 -0.575325
H20   H     H_    0.775496 0.701784 0.410415 0.203506
H21   H     H_    0.794882 0.563111 0.475725 0.150114
H22   H     H_    0.760224 0.459950 0.407262 0.280016
O23   O     O_3   0.155586 0.850117 0.900103 -0.507127
C73   C     C_3   0.204152 0.829219 0.943558 0.155403
H23   H     H_    0.231539 0.714248 0.931905 0.169508
H24   H     H_    0.192483 0.806758 0.988168 0.099906
C74   C     C_3   0.237995 0.001339 0.945857 -0.660127
H25   H     H_    0.209370 0.119656 0.952366 0.237894
H26   H     H_    0.273997 0.991386 0.983143 0.159535
H27   H     H_    0.254781 0.018490 0.903848 0.232147
O24   O     O_3   0.844709 0.148471 0.101133 -0.518896
C75   C     C_3   0.796437 0.169657 0.057279 0.134929
H28   H     H_    0.808499 0.191321 0.012799 0.102132
H29   H     H_    0.769066 0.285295 0.068536 0.175252
C76   C     C_3   0.762313 0.998106 0.054814 -0.666400
H30   H     H_    0.745146 0.981562 0.096624 0.236021
H31   H     H_    0.726566 0.008306 0.017272 0.163067
H32   H     H_    0.790859 0.879309 0.048608 0.232160
O25   O     O_3   0.372229 0.697275 0.648053 -0.514072
C77   C     C_3   0.410571 0.667243 0.701109 0.226044
H33   H     H_    0.386155 0.690103 0.737509 0.174521
H34   H     H_    0.448145 0.759139 0.707571 0.090946
C78   C     C_3   0.433154 0.468616 0.704974 -0.648883
H35   H     H_    0.452256 0.432280 0.665296 0.236261
H36   H     H_    0.466372 0.451974 0.744678 0.171696
H37   H     H_    0.398495 0.373062 0.709323 0.223927
O26   O     O_3   0.626015 0.300404 0.351710 -0.525541
C79   C     C_3   0.588582 0.329193 0.298072 0.184111
H38   H     H_    0.548979 0.246854 0.293200 0.092158
H39   H     H_    0.612445 0.291890 0.262281 0.189977
C80   C     C_3   0.570751 0.532156 0.290809 -0.673690
H40   H     H_    0.607507 0.615595 0.284334 0.233558
H41   H     H_    0.537401 0.549811 0.251284 0.182653
H42   H     H_    0.553355 0.583414 0.330039 0.211666
O27   O     O_3   0.129817 0.200365 0.849330 -0.501771
C81   C     C_3   0.089364 0.174069 0.797818 0.197836
H43   H     H_    0.110655 0.201264 0.759371 0.131155
H44   H     H_    0.050387 0.264317 0.795420 0.069904
C82   C     C_3   0.069062 0.976234 0.792821 -0.672426
H45   H     H_    0.050372 0.938609 0.832276 0.248130
H46   H     H_    0.035808 0.962268 0.753209 0.131709
H47   H     H_    0.104626 0.880639 0.787465 0.237285
O28   O     O_3   0.871296 0.798956 0.150450 -0.511346
C83   C     C_3   0.910438 0.820301 0.203195 0.154669
H48   H     H_    0.951390 0.741497 0.203589 0.073986
H49   H     H_    0.889576 0.774754 0.240181 0.151535
C84   C     C_3   0.925746 0.021576 0.214439 -0.699298
H50   H     H_    0.887845 0.103353 0.221441 0.247296
H51   H     H_    0.957857 0.032789 0.255073 0.139505
H52   H     H_    0.944199 0.078986 0.177271 0.224845
N1    N     N_3   0.450968 0.673122 0.573267 -0.637056
H53   H     H_    0.442340 0.643157 0.528066 0.227444
H54   H     H_    0.494974 0.683032 0.585656 0.220001
N2    N     N_3   0.544029 0.314266 0.426010 -0.665633
H55   H     H_    0.574402 0.415120 0.437517 0.261308
H56   H     H_    0.518124 0.352545 0.386553 0.228892
N3    N     N_3   0.054601 0.173676 0.927442 -0.624433
H57   H     H_    0.064161 0.146418 0.972766 0.227754
H58   H     H_    0.010389 0.180486 0.915407 0.217820
N4    N     N_3   0.943257 0.820112 0.066260 -0.663500
H59   H     H_    0.907658 0.902013 0.049926 0.266817
H60   H     H_    0.965617 0.881978 0.103939 0.241041
O29   O     O_3   0.918905 0.642758 0.362586 -0.535149
C85   C     C_3   0.963898 0.618177 0.329385 0.106971
H61   H     H_    0.006109 0.593439 0.356004 0.114017
H62   H     H_    0.969379 0.742834 0.303683 0.079379
C86   C     C_3   0.952482 0.448653 0.290105 -0.734052
H63   H     H_    0.984150 0.436752 0.259623 0.168784
H64   H     H_    0.955500 0.322602 0.318019 0.218373
H65   H     H_    0.909267 0.457757 0.263991 0.209655
O30   O     O_3   0.081266 0.356985 0.637185 -0.534625
C87   C     C_3   0.036951 0.380179 0.671285 0.111509
H66   H     H_    0.031540 0.253939 0.696390 0.075027
H67   H     H_    0.994614 0.407662 0.645236 0.113906
C88   C     C_3   0.049386 0.547193 0.711439 -0.734263
H68   H     H_    0.092400 0.533061 0.737662 0.209188
H69   H     H_    0.047553 0.674667 0.684299 0.218898
H70   H     H_    0.017599 0.560319 0.741757 0.167800
O31   O     O_3   0.556936 0.290321 0.170099 -0.579736
C89   C     C_3   0.556762 0.104968 0.149424 0.095892
H71   H     H_    0.598148 0.066340 0.135538 0.136358
H72   H     H_    0.522010 0.084008 0.111308 0.131963
C90   C     C_3   0.547005 0.972762 0.198013 -0.765070
H73   H     H_    0.507150 0.011667 0.214690 0.221520
H74   H     H_    0.543362 0.829764 0.180153 0.189074
H75   H     H_    0.583279 0.975263 0.234931 0.190989
O32   O     O_3   0.443025 0.709564 0.829330 -0.580234
C91   C     C_3   0.443174 0.894977 0.849961 0.096996
H76   H     H_    0.478580 0.916708 0.887358 0.131811
H77   H     H_    0.402177 0.932690 0.864870 0.136065
C92   C     C_3   0.451430 0.027481 0.800912 -0.763630
H78   H     H_    0.414782 0.021958 0.764483 0.191398
H79   H     H_    0.454342 0.170965 0.818443 0.188919
H80   H     H_    0.491210 0.991140 0.783719 0.220579
O33   O     O_3   0.833550 0.183423 0.434326 -0.545747
C93   C     C_3   0.813494 0.087457 0.480612 0.084164
H81   H     H_    0.842494 0.105773 0.523418 0.125406
H82   H     H_    0.810304 0.937018 0.471047 0.104104
C94   C     C_3   0.754820 0.158100 0.488681 -0.744454
H83   H     H_    0.735281 0.059207 0.515890 0.171938
H84   H     H_    0.758625 0.291165 0.512835 0.203526
H85   H     H_    0.726978 0.174338 0.445238 0.250320
O34   O     O_3   0.166004 0.814079 0.566171 -0.544607
C95   C     C_3   0.185986 0.908189 0.519482 0.085381
H86   H     H_    0.188230 0.059539 0.527863 0.103559
H87   H     H_    0.157446 0.885581 0.476639 0.125295
C96   C     C_3   0.245204 0.839957 0.512601 -0.743315
H88   H     H_    0.242282 0.706932 0.488401 0.201924
H89   H     H_    0.265000 0.940036 0.486002 0.171641
H90   H     H_    0.272297 0.824148 0.556473 0.250756
O35   O     O_3   0.680385 0.447941 0.041515 -0.569558
C97   C     C_3   0.707149 0.614467 0.033161 0.048133
H91   H     H_    0.732840 0.653342 0.076062 0.149419
H92   H     H_    0.676656 0.730329 0.017893 0.122667
C98   C     C_3   0.746161 0.584547 0.986894 -0.779471
H93   H     H_    0.789362 0.540042 0.008480 0.196728
H94   H     H_    0.729101 0.477864 0.954168 0.236228
H95   H     H_    0.749852 0.714645 0.962483 0.193930
O36   O     O_3   0.319852 0.551638 0.958232 -0.570023
C99   C     C_3   0.293285 0.384916 0.966824 0.048446
H96   H     H_    0.323904 0.269294 0.981995 0.122671
H97   H     H_    0.267443 0.345671 0.924044 0.149006
C100  C     C_3   0.254487 0.414780 0.013302 -0.781215
H98   H     H_    0.211116 0.457967 0.991847 0.195752
H99   H     H_    0.251250 0.285029 0.038050 0.194234
H100  H     H_    0.271418 0.522465 0.045723 0.235941

loop_
_geom_bond_atom_site_label_1
_geom_bond_atom_site_label_2
_ccdc_geom_bond_type
O17   V3    S    
C55   C59   A    
C30   C34   S    
C84   H50   S    
C71   H19   S    
C27   C31   A    
O19   V1    S    
O13   V1    S    
C90   H73   S    
O21   C69   S    
O3    C7    A    
C37   C57   A    
C10   C14   A    
C64   C68   A    
C52   C56   A    
O15   V3    S    
C82   H46   S    
C92   H80   S    
O28   C83   S    
O4    V2    S    
N3    H58   S    
C37   O29   S    
O29   C85   S    
C50   C62   A    
C94   H85   S    
O1    C5    A    
C46   O34   S    
C49   C61   A    
O5    C1    A    
C82   H45   S    
C13   O21   S    
C8    C17   S    
C11   C31   A    
O22   C71   S    
C21   O25   S    
C72   H21   S    
O26   C79   S    
O4    C8    A    
C10   C30   A    
C93   H82   S    
N4    H60   S    
C86   H64   S    
C69   H13   S    
C83   C84   S    
C38   O30   S    
O1    V3    S    
C96   H90   S    
C97   C98   S    
O2    V4    S    
C100  H98   S    
C14   C18   A    
O3    V1    S    
O34   C95   S    
C85   H61   S    
C69   C70   S    
C87   C88   S    
C92   H79   S    
C78   H35   S    
C1    O15   A    
C23   O27   S    
N3    H57   S    
C2    O16   A    
C88   H69   S    
C42   C46   A    
C74   H27   S    
C87   H67   S    
C41   C45   A    
C89   H71   S    
O14   V2    S    
C17   C21   A    
O8    C4    A    
C11   C15   A    
C98   H93   S    
C15   O23   S    
C81   H44   S    
C44   C48   A    
C24   O28   S    
C5    C20   S    
O11   C7    A    
C6    C19   S    
C60   C67   A    
O12   C8    A    
C7    C18   S    
C10   H2    S    
O36   C99   S    
C90   H74   S    
C45   O33   S    
O31   C89   S    
O10   V2    S    
N2    H56   S    
C62   C66   A    
C79   H39   S    
C73   H23   S    
C92   H78   S    
C99   H97   S    
O7    V3    S    
C79   H38   S    
C67   H11   S    
O8    V4    S    
N1    H53   S    
N4    H59   S    
C12   H4    S    
C81   C82   S    
C47   O35   S    
C77   H33   S    
C72   H22   S    
C65   H9    S    
C25   C29   A    
C93   H81   S    
C86   H65   S    
C28   N4    S    
C23   C27   A    
C12   C32   A    
C16   O24   S    
O32   C91   S    
O11   V3    S    
C77   C78   S    
C83   H48   S    
C53   C54   A    
C28   C32   A    
C61   H5    S    
C48   O36   S    
C100  H99   S    
C78   H36   S    
C56   C60   A    
C52   C64   A    
C11   H3    S    
C87   H66   S    
O2    C6    A    
O35   C97   S    
C58   C65   A    
C26   N2    S    
C76   H32   S    
C79   C80   S    
C57   C66   A    
C50   C54   A    
C14   O22   S    
O7    C3    A    
C55   C56   A    
C99   C100  S    
C49   C53   A    
C40   C44   A    
C88   H70   S    
C59   C68   A    
C89   C90   S    
C26   C30   A    
C96   H88   S    
C81   H43   S    
O9    C5    A    
C22   C26   A    
C97   H92   S    
C98   H94   S    
C27   N3    S    
O23   C73   S    
O33   C93   S    
C77   H34   S    
C80   H42   S    
C22   O26   S    
O6    V2    S    
C84   H52   S    
C68   H12   S    
C74   H25   S    
C40   C60   A    
C90   H75   S    
C70   H17   S    
C75   C76   S    
O12   V4    S    
C73   H24   S    
O5    V1    S    
N2    H55   S    
C64   H8    S    
C74   H26   S    
O24   C75   S    
O16   V4    S    
O9    V1    S    
O30   C87   S    
C37   C41   A    
C4    C42   S    
C99   H96   S    
C3    O13   A    
C9    C29   A    
C1    C43   S    
C95   H87   S    
C91   H76   S    
C51   C63   A    
C4    O14   A    
C48   C52   A    
C15   C19   A    
C39   O31   S    
C93   C94   S    
C38   C58   A    
C19   C23   A    
C3    C41   S    
C29   C33   S    
C78   H37   S    
C25   N1    S    
C82   H47   S    
C94   H84   S    
O25   C77   S    
C18   C22   A    
C31   C35   S    
C95   C96   S    
C32   C36   S    
C75   H29   S    
C9    C13   A    
C100  H100  S    
C73   C74   S    
C80   H41   S    
C75   H28   S    
C94   H83   S    
C97   H91   S    
C83   H49   S    
C54   C58   A    
C80   H40   S    
C43   C47   A    
C91   C92   S    
O10   C6    A    
C86   H63   S    
C76   H30   S    
C69   H14   S    
C21   C25   A    
C70   H16   S    
O20   V2    S    
C96   H89   S    
C62   H6    S    
C9    H1    S    
C39   C43   A    
C71   H18   S    
C61   C65   A    
C33   C34   T    
C98   H95   S    
C85   H62   S    
C71   C72   S    
C12   C16   A    
O6    C2    A    
C63   C67   A    
C35   C36   T    
C51   C55   A    
C16   C20   A    
C20   C24   A    
C38   C42   A    
C66   H10   S    
C45   C49   A    
C84   H51   S    
C88   H68   S    
C46   C50   A    
C70   H15   S    
C40   O32   S    
C76   H31   S    
C13   C17   A    
C89   H72   S    
C63   H7    S    
O27   C81   S    
C72   H20   S    
C91   H77   S    
C47   C51   A    
C95   H86   S    
C85   C86   S    
O18   V4    S    
C53   C57   A    
C24   C28   A    
C39   C59   A    
N1    H54   S    
C2    C44   S    
