data_mof_unit_42836.cif
_audit_creation_date              2012-10-26T18:51:45-0400
_audit_creation_method            fapswitch 2.2
_symmetry_space_group_name_H-M    P1
_symmetry_Int_Tables_number       1
_space_group_crystal_system       triclinic
_cell_length_a                    11.702375
_cell_length_b                    14.723325
_cell_length_c                    14.698035
_cell_angle_alpha                 65.029816
_cell_angle_beta                  103.078369
_cell_angle_gamma                 102.880321
_cell_volume                      2212.78566093

loop_
_atom_site_label
_atom_site_type_symbol
_atom_type_description
_atom_site_fract_x
_atom_site_fract_y
_atom_site_fract_z
_atom_type_partial_charge
C1    C     C_R   0.481772 0.120008 0.312023 0.570643
C2    C     C_R   0.468650 0.606601 0.090425 -0.110540
C3    C     C_R   0.696553 0.285707 0.667463 -0.138656
C4    C     C_R   0.309496 0.717371 0.327755 -0.133253
C5    C     C_R   0.665062 0.202309 0.639518 0.431694
C6    C     C_R   0.336398 0.798042 0.359355 0.418098
C7    C     C_R   0.515304 0.285012 0.509554 0.016842
C8    C     C_R   0.482349 0.713714 0.492327 -0.000264
C9    C     C_R   0.542840 0.370949 0.535536 -0.007555
C10   C     C_R   0.455964 0.628317 0.465438 -0.011047
C11   C     C_R   0.634371 0.368434 0.617564 -0.002774
C12   C     C_R   0.520281 0.880242 0.687778 0.532556
C13   C     C_R   0.367731 0.632536 0.380803 0.002533
C14   C     C_R   0.483653 0.458609 0.483632 0.039711
C15   C     C_R   0.514993 0.540556 0.517490 0.032381
C16   C     C_R   0.284182 0.000043 0.500247 0.533431
C17   C     C_R   0.715862 0.999765 0.500065 0.543703
C18   C     C_R   0.604793 0.532254 0.601638 -0.131329
C19   C     C_R   0.395535 0.467726 0.398254 -0.132351
C20   C     C_R   0.663882 0.448450 0.649641 -0.120014
C21   C     C_R   0.339081 0.552941 0.348153 -0.127984
C22   C     C_1   0.162582 0.000181 0.500476 -0.031799
C23   C     C_R   0.434733 0.320547 0.997993 0.060934
C24   C     C_1   0.837490 0.999433 0.500091 -0.008833
C25   C     C_1   0.060005 0.999936 0.500383 -0.044122
C26   C     C_1   0.940050 0.999558 0.500204 -0.035146
C27   C     C_R   0.468832 0.188502 0.203690 0.000394
C28   C     C_R   0.523412 0.812342 0.795480 -0.044810
C29   C     C_R   0.409214 0.214971 0.025112 0.222753
C30   C     C_R   0.489513 0.779957 0.964688 0.226482
C31   C     C_R   0.421449 0.149961 0.128411 -0.179919
C32   C     C_R   0.503485 0.847158 0.864874 -0.178468
C33   C     C_R   0.503972 0.293376 0.175447 0.200676
C34   C     C_R   0.485288 0.675394 0.992016 0.051075
C35   C     C_R   0.532108 0.709161 0.826564 0.210944
C36   C     C_R   0.471590 0.360206 0.074319 -0.019038
C37   C     C_R   0.497006 0.638754 0.919756 0.034962
C38   C     C_3   0.162043 0.865110 0.303995 -0.012143
C39   C     C_3   0.111524 0.964597 0.252019 -0.358843
C40   C     C_3   0.745549 0.081466 0.790725 -0.021062
C41   C     C_3   0.876885 0.095923 0.832459 -0.381934
C42   C     C_R   0.475313 0.465385 0.047177 0.006319
C43   C     C_R   0.476793 0.532638 0.944613 0.057085
C44   C     C_R   0.447218 0.491672 0.869550 -0.110661
C45   C     C_R   0.466616 0.503727 0.118227 -0.164304
C46   C     C_R   0.422860 0.387493 0.895878 -0.113717
Cu1   Cu    Cu3+1 0.469550 0.918260 0.475690 0.995169
Cu2   Cu    Cu3+1 0.530450 0.081740 0.524310 1.029345
H1    H     H_    0.395382 0.359737 0.835594 0.175889
H2    H     H_    0.272255 0.556667 0.282616 0.113544
H3    H     H_    0.550380 0.718303 0.553700 0.142006
H4    H     H_    0.445107 0.279254 0.449918 0.136124
H5    H     H_    0.769521 0.286432 0.727526 0.094873
H6    H     H_    0.245322 0.721824 0.260626 0.102086
H7    H     H_    0.639298 0.733758 0.732202 0.326326
H8    H     H_    0.631909 0.388876 0.208778 0.328471
H9    H     H_    0.355911 0.102128 0.982123 0.325653
H10   H     H_    0.480645 0.889127 0.003563 0.324162
H11   H     H_    0.141511 0.827681 0.383194 0.142791
H12   H     H_    0.458527 0.631992 0.147062 0.180555
H13   H     H_    0.117223 0.816623 0.261525 0.110660
H14   H     H_    0.014871 0.950297 0.254853 0.104342
H15   H     H_    0.155628 0.016592 0.290597 0.162719
H16   H     H_    0.126091 0.001333 0.171429 0.152251
H17   H     H_    0.714536 0.998816 0.817614 0.158865
H18   H     H_    0.693772 0.111955 0.823836 0.104331
H19   H     H_    0.913216 0.177570 0.806939 0.150287
H20   H     H_    0.889252 0.061750 0.916721 0.108224
H21   H     H_    0.926715 0.058326 0.805650 0.171154
H22   H     H_    0.632540 0.589770 0.632273 0.125940
H23   H     H_    0.368653 0.410553 0.367132 0.097063
H24   H     H_    0.497474 0.926539 0.841140 0.120599
H25   H     H_    0.396515 0.069062 0.149729 0.160353
H26   H     H_    0.432813 0.539095 0.789579 0.179071
H27   H     H_    0.451227 0.453971 0.194678 0.161192
H28   H     H_    0.733284 0.446046 0.713238 0.119508
N1    N     N_R   0.576230 0.204580 0.560790 -0.221734
N2    N     N_R   0.423770 0.795420 0.439210 -0.223316
O1    O     O_R   0.459870 0.022090 0.338120 -0.466104
O2    O     O_3   0.578596 0.327691 0.245474 -0.694023
O3    O     O_3   0.369422 0.177159 0.950144 -0.714059
O4    O     O_3   0.475066 0.814284 0.035048 -0.711189
O5    O     O_3   0.285685 0.885517 0.303062 -0.528710
O6    O     O_3   0.729701 0.121766 0.683165 -0.516031
O7    O     O_R   0.540130 0.977910 0.661880 -0.482412
O8    O     O_R   0.511290 0.160150 0.379180 -0.447406
O9    O     O_R   0.488710 0.839850 0.620820 -0.494196
O10   O     O_R   0.311490 0.930960 0.479480 -0.477568
O11   O     O_R   0.688510 0.069040 0.520520 -0.437283
O12   O     O_R   0.362910 0.069020 0.520540 -0.513138
O13   O     O_R   0.637090 0.930980 0.479460 -0.517448
O14   O     O_3   0.583202 0.676884 0.771369 -0.731587

loop_
_geom_bond_atom_site_label_1
_geom_bond_atom_site_label_2
_ccdc_geom_bond_type
C18   H22   S    
C15   C18   A    
C16   O12   A    
C38   O5    S    
C34   C37   A    
C40   O6    S    
C19   H23   S    
C17   O13   A    
C3    C11   A    
Cu1   O1    S    
C43   C44   A    
C32   H24   S    
C27   C33   A    
C39   H16   S    
C46   H1    S    
C12   O7    A    
C12   C28   S    
C23   C29   A    
C35   C37   A    
C24   C26   T    
C7    H4    S    
C10   C15   A    
H10   O4    S    
C38   C39   S    
C2    H12   S    
C31   H25   S    
C33   C36   A    
C20   H28   S    
C4    C13   A    
C36   C42   A    
C28   C35   A    
C22   C25   T    
C7    N1    A    
C38   H13   S    
C35   O14   S    
C2    C34   A    
C23   C46   A    
C40   H18   S    
C8    N2    A    
C21   H2    S    
C44   C46   A    
C41   H20   S    
C2    C45   A    
C16   O10   A    
C11   C20   A    
C17   C24   S    
C30   C34   A    
C27   C31   A    
C28   C32   A    
C17   O11   A    
C41   H19   S    
C5    O6    S    
C25   C26   S    
C42   C45   A    
Cu1   O9    S    
Cu2   N1    S    
C30   O4    S    
C9    C14   A    
C29   O3    S    
H7    O14   S    
Cu1   Cu2   S    
C13   C21   A    
C44   H26   S    
C9    C11   A    
C8    H3    S    
C4    C6    A    
C40   C41   S    
C40   H17   S    
C1    O1    A    
Cu2   O8    S    
C37   C43   A    
C42   C43   A    
C5    N1    A    
C41   H21   S    
C1    O8    A    
C7    C9    A    
C39   H14   S    
C16   C22   S    
C6    O5    S    
C12   O9    A    
C4    H6    S    
C14   C15   A    
Cu1   O13   S    
C14   C19   A    
C3    C5    A    
C10   C13   A    
C33   O2    S    
C39   H15   S    
H8    O2    S    
C45   H27   S    
Cu1   O10   S    
C29   C31   A    
C30   C32   A    
C3    H5    S    
C18   C20   A    
H9    O3    S    
C6    N2    A    
C38   H11   S    
C8    C10   A    
C23   C36   A    
C1    C27   S    
Cu2   O7    S    
Cu2   O12   S    
Cu1   N2    S    
Cu2   O11   S    
C19   C21   A    
