data_mof_unit_67211.cif
_audit_creation_date              2012-12-11T18:15:30-0500
_audit_creation_method            fapswitch 2.2
_symmetry_space_group_name_H-M    P1
_symmetry_Int_Tables_number       1
_space_group_crystal_system       triclinic
_cell_length_a                    19.890414
_cell_length_b                    20.671772
_cell_length_c                    8.742576
_cell_angle_alpha                 90.040296
_cell_angle_beta                  92.028198
_cell_angle_gamma                 89.96737
_cell_volume                      3592.43249233

loop_
_atom_site_label
_atom_site_type_symbol
_atom_type_description
_atom_site_fract_x
_atom_site_fract_y
_atom_site_fract_z
_atom_type_partial_charge
Ba1   Ba    Ba6+2 0.999980 0.452130 0.155200 2.211685
Ba2   Ba    Ba6+2 0.999980 0.547870 0.655200 2.215214
Ba3   Ba    Ba6+2 0.499980 0.952130 0.155200 2.211685
Ba4   Ba    Ba6+2 0.499980 0.047870 0.655200 2.215213
C1    C     C_3   0.979238 0.126759 0.356272 1.235013
C2    C     C_3   0.979963 0.873299 0.856575 1.186705
C3    C     C_3   0.479238 0.626759 0.356271 1.235010
C4    C     C_3   0.479963 0.373299 0.856575 1.186705
C5    C     C_R   0.151888 0.349253 0.823434 -0.018570
C6    C     C_R   0.152011 0.650666 0.323336 -0.015612
C7    C     C_R   0.651888 0.849253 0.823434 -0.018570
C8    C     C_R   0.652011 0.150666 0.323336 -0.015613
C9    C     C_R   0.115108 0.341822 0.683817 0.412312
C10   C     C_R   0.115314 0.657996 0.183609 0.413029
C11   C     C_R   0.615108 0.841822 0.683817 0.412312
C12   C     C_R   0.615314 0.157996 0.183609 0.413031
C13   C     C_R   0.130066 0.292507 0.581953 0.024836
C14   C     C_R   0.130147 0.707352 0.081948 0.024798
C15   C     C_R   0.630066 0.792507 0.581953 0.024837
C16   C     C_R   0.630147 0.207352 0.081948 0.024798
C17   C     C_R   0.177056 0.245402 0.624628 0.587828
C18   C     C_R   0.177048 0.754494 0.124682 0.587687
C19   C     C_R   0.677056 0.745402 0.624628 0.587829
C20   C     C_R   0.677048 0.254495 0.124682 0.587687
C21   C     C_R   0.210085 0.246350 0.770613 -0.124292
C22   C     C_R   0.210097 0.753587 0.270608 -0.128839
C23   C     C_R   0.710085 0.746350 0.770613 -0.124292
C24   C     C_R   0.710097 0.253588 0.270608 -0.128839
C25   C     C_R   0.202804 0.301521 0.865839 -0.206707
C26   C     C_R   0.202852 0.698449 0.365791 -0.210277
C27   C     C_R   0.702804 0.801521 0.865839 -0.206707
C28   C     C_R   0.702852 0.198449 0.365791 -0.210277
C29   C     C_R   0.797166 0.698982 0.947561 -0.196804
C30   C     C_R   0.797124 0.301038 0.447546 -0.203394
C31   C     C_R   0.297166 0.198982 0.947561 -0.196804
C32   C     C_R   0.297124 0.801038 0.447546 -0.203393
C33   C     C_R   0.789704 0.754112 0.043858 -0.124198
C34   C     C_R   0.789660 0.245962 0.543843 -0.138860
C35   C     C_R   0.289704 0.254112 0.043858 -0.124198
C36   C     C_R   0.289660 0.745962 0.543843 -0.138861
C37   C     C_R   0.848233 0.651135 0.988542 0.002418
C38   C     C_R   0.848133 0.348925 0.488577 0.003833
C39   C     C_R   0.348233 0.151135 0.988542 0.002418
C40   C     C_R   0.348133 0.848925 0.488577 0.003834
C41   C     C_R   0.885008 0.658102 0.128257 0.352538
C42   C     C_R   0.884808 0.342055 0.628423 0.355001
C43   C     C_R   0.385008 0.158102 0.128257 0.352539
C44   C     C_R   0.384808 0.842055 0.628423 0.355001
C45   C     C_3   0.010022 0.202720 0.897711 1.032433
C46   C     C_3   0.010105 0.797239 0.398232 1.027915
C47   C     C_3   0.510022 0.702720 0.897711 1.032436
C48   C     C_3   0.510105 0.297239 0.398232 1.027915
C49   C     C_R   0.870407 0.707370 0.230513 -0.027754
C50   C     C_R   0.870256 0.292801 0.730565 -0.024034
C51   C     C_R   0.370407 0.207370 0.230513 -0.027754
C52   C     C_R   0.370256 0.792801 0.730565 -0.024034
C53   C     C_R   0.825000 0.755708 0.187660 0.558272
C54   C     C_R   0.824901 0.244445 0.687674 0.562007
C55   C     C_R   0.325000 0.255708 0.187660 0.558271
C56   C     C_R   0.324902 0.744445 0.687673 0.562006
C57   C     C_R   0.752904 0.694048 0.816865 0.523228
C58   C     C_R   0.752891 0.305902 0.316850 0.523226
C59   C     C_R   0.252904 0.194048 0.816865 0.523227
C60   C     C_R   0.252891 0.805902 0.316850 0.523226
C61   C     C_3   0.013687 0.133894 0.833287 0.973593
C62   C     C_3   0.013672 0.866007 0.333669 0.979711
C63   C     C_3   0.513687 0.633894 0.833287 0.973584
C64   C     C_3   0.513671 0.366007 0.333669 0.979711
C65   C     C_3   0.796649 0.465901 0.818754 1.003635
C66   C     C_3   0.796915 0.534288 0.318887 1.004560
C67   C     C_3   0.296649 0.965901 0.818754 1.003635
C68   C     C_3   0.296915 0.034288 0.318887 1.004560
C69   C     C_3   0.727706 0.432431 0.811470 1.338771
C70   C     C_3   0.727978 0.567819 0.310576 1.337273
C71   C     C_3   0.227706 0.932431 0.811470 1.338771
C72   C     C_3   0.227978 0.067818 0.310576 1.337273
C73   C     C_3   0.204183 0.534028 0.992122 1.023581
C74   C     C_3   0.203653 0.465666 0.491863 1.013907
C75   C     C_3   0.704183 0.034028 0.992122 1.023581
C76   C     C_3   0.703653 0.965666 0.491863 1.013907
C77   C     C_3   0.273699 0.566343 0.999603 1.307408
C78   C     C_3   0.273067 0.433124 0.500608 1.326960
C79   C     C_3   0.773699 0.066343 0.999603 1.307407
C80   C     C_3   0.773067 0.933124 0.500608 1.326961
C81   C     C_3   0.993962 0.200280 0.368333 1.014978
C82   C     C_3   0.994378 0.800026 0.868920 1.100588
C83   C     C_3   0.493963 0.700280 0.368332 1.014978
C84   C     C_3   0.494378 0.300026 0.868920 1.100587
C85   C     C_R   0.246711 0.306354 0.997311 0.503168
C86   C     C_R   0.246734 0.693685 0.497249 0.480340
C87   C     C_R   0.746711 0.806354 0.997311 0.503168
C88   C     C_R   0.746734 0.193686 0.497249 0.480341
H1    H     H_    0.018230 0.098361 0.928276 0.026752
H2    H     H_    0.018283 0.901636 0.428528 0.034303
H3    H     H_    0.518230 0.598361 0.928275 0.026759
H4    H     H_    0.518283 0.401636 0.428528 0.034303
O1    O     O_2   0.130070 0.404060 0.104920 -0.448631
O2    O     O_2   0.130070 0.595940 0.604920 -0.448649
O3    O     O_2   0.630070 0.904060 0.104920 -0.448630
O4    O     O_2   0.630070 0.095940 0.604920 -0.448649
O5    O     O_3   0.788560 0.471652 0.375772 -0.638983
O6    O     O_3   0.788497 0.528514 0.876151 -0.639660
O7    O     O_3   0.288560 0.971652 0.375772 -0.638983
O8    O     O_3   0.288498 0.028514 0.876151 -0.639661
O9    O     O_3   0.945860 0.211865 0.960696 -0.596901
O10   O     O_3   0.945986 0.788160 0.461436 -0.590481
O11   O     O_3   0.445860 0.711865 0.960696 -0.596900
O12   O     O_3   0.445986 0.288160 0.461436 -0.590482
O13   O     O_3   0.924190 0.533610 0.949240 -0.343573
O14   O     O_3   0.924190 0.466390 0.449240 -0.343884
O15   O     O_3   0.424190 0.033610 0.949240 -0.343573
O16   O     O_3   0.424190 0.966390 0.449240 -0.343884
O17   O     O_3   0.075780 0.466370 0.861070 -0.335372
O18   O     O_3   0.075780 0.533630 0.361070 -0.335547
O19   O     O_3   0.575780 0.966370 0.861070 -0.335372
O20   O     O_3   0.575780 0.033630 0.361070 -0.335547
O21   O     O_3   0.022320 0.344950 0.359800 -0.397050
O22   O     O_3   0.022320 0.655050 0.859800 -0.402657
O23   O     O_3   0.522320 0.844950 0.359800 -0.397050
O24   O     O_3   0.522320 0.155050 0.859800 -0.402657
O25   O     O_2   0.141337 0.304450 0.269516 -0.436584
O26   O     O_2   0.141439 0.695223 0.769773 -0.433619
O27   O     O_2   0.641337 0.804450 0.269516 -0.436584
O28   O     O_2   0.641439 0.195223 0.769773 -0.433619
O29   O     O_3   0.211568 0.471572 0.933681 -0.626095
O30   O     O_3   0.211446 0.528176 0.434235 -0.621200
O31   O     O_3   0.711568 0.971572 0.933681 -0.626095
O32   O     O_3   0.711446 0.028176 0.434235 -0.621201
O33   O     O_3   0.062482 0.210645 0.339087 -0.535034
O34   O     O_3   0.062770 0.789246 0.839002 -0.547504
O35   O     O_3   0.562482 0.710645 0.339087 -0.535034
O36   O     O_3   0.562770 0.289246 0.839002 -0.547504
O37   O     O_2   0.869860 0.403670 0.205810 -0.383569
O38   O     O_2   0.869860 0.596330 0.705810 -0.383107
O39   O     O_2   0.369860 0.903670 0.205810 -0.383569
O40   O     O_2   0.369860 0.096330 0.705810 -0.383107
O41   O     O_3   0.977590 0.344880 0.951200 -0.414294
O42   O     O_3   0.977590 0.655120 0.451200 -0.416674
O43   O     O_3   0.477590 0.844880 0.951200 -0.414295
O44   O     O_3   0.477590 0.155120 0.451200 -0.416674
O45   O     O_2   0.861641 0.299615 0.048885 -0.336811
O46   O     O_2   0.861643 0.700476 0.548898 -0.331617
O47   O     O_2   0.361641 0.799615 0.048885 -0.336811
O48   O     O_2   0.361643 0.200476 0.548898 -0.331617
P1    P     P_3+3 0.136530 0.426510 0.931350 1.237348
P2    P     P_3+3 0.136530 0.573490 0.431350 1.238794
P3    P     P_3+3 0.636530 0.926510 0.931350 1.237349
P4    P     P_3+3 0.636530 0.073490 0.431350 1.238794
P5    P     P_3+3 0.863410 0.426100 0.379280 1.280805
P6    P     P_3+3 0.863410 0.573900 0.879280 1.280315
P7    P     P_3+3 0.363410 0.926100 0.379280 1.280805
P8    P     P_3+3 0.363410 0.073900 0.879280 1.280315
P9    P     P_3+3 0.912771 0.289177 0.921899 1.347134
P10   P     P_3+3 0.912815 0.710933 0.422058 1.352584
P11   P     P_3+3 0.412771 0.789176 0.921899 1.347134
P12   P     P_3+3 0.412815 0.210933 0.422058 1.352584
P13   P     P_3+3 0.088452 0.710315 0.889381 1.298259
P14   P     P_3+3 0.088387 0.289547 0.389291 1.308013
P15   P     P_3+3 0.588452 0.210315 0.889381 1.298259
P16   P     P_3+3 0.588387 0.789547 0.389291 1.308012
F1    F     F_    0.954242 0.233762 0.261851 -0.778827
F2    F     F_    0.954137 0.766834 0.762889 -0.754704
F3    F     F_    0.454242 0.733762 0.261852 -0.778827
F4    F     F_    0.454136 0.266834 0.762889 -0.754705
F5    F     F_    0.684790 0.464527 0.708496 -0.642569
F6    F     F_    0.685426 0.535832 0.206620 -0.643420
F7    F     F_    0.184790 0.964527 0.708496 -0.642569
F8    F     F_    0.185426 0.035832 0.206620 -0.643420
F9    F     F_    0.734810 0.369093 0.763254 -0.691277
F10   F     F_    0.735236 0.631184 0.262974 -0.693660
F11   F     F_    0.234810 0.869093 0.763254 -0.691276
F12   F     F_    0.235236 0.131184 0.262974 -0.693660
O49   O     O_3   0.700078 0.433319 0.956472 -0.640937
H5    H     H_    0.654024 0.415325 0.943354 0.413694
O50   O     O_3   0.699833 0.566842 0.455026 -0.640817
H6    H     H_    0.653852 0.584977 0.441243 0.413133
O51   O     O_3   0.200078 0.933319 0.956471 -0.640937
H7    H     H_    0.154024 0.915326 0.943354 0.413694
O52   O     O_3   0.199832 0.066842 0.455026 -0.640817
H8    H     H_    0.153852 0.084977 0.441243 0.413133
O53   O     O_3   0.179325 0.530802 0.137337 -0.745900
H9    H     H_    0.203783 0.494460 0.187283 0.321662
O54   O     O_3   0.178099 0.468767 0.636429 -0.746552
H10   H     H_    0.202219 0.505104 0.687185 0.320818
O55   O     O_3   0.679325 0.030802 0.137337 -0.745900
H11   H     H_    0.703783 0.994460 0.187283 0.321663
O56   O     O_3   0.678099 0.968767 0.636429 -0.746552
H12   H     H_    0.702219 0.005104 0.687185 0.320818
F13   F     F_    0.160802 0.570056 0.899654 -0.704999
F14   F     F_    0.160602 0.429876 0.398102 -0.706004
F15   F     F_    0.660802 0.070056 0.899654 -0.704998
F16   F     F_    0.660601 0.929876 0.398102 -0.706003
O57   O     O_3   0.316984 0.531949 0.100145 -0.687495
H13   H     H_    0.362262 0.551084 0.090283 0.332784
O58   O     O_3   0.315915 0.467111 0.602884 -0.679944
H14   H     H_    0.361057 0.447416 0.594956 0.338947
O59   O     O_3   0.816984 0.031949 0.100145 -0.687495
H15   H     H_    0.862262 0.051084 0.090283 0.332783
O60   O     O_3   0.815915 0.967111 0.602884 -0.679945
H16   H     H_    0.861057 0.947416 0.594956 0.338947
F17   F     F_    0.267969 0.629446 0.050593 -0.713354
F18   F     F_    0.266928 0.369903 0.550216 -0.703929
F19   F     F_    0.767969 0.129446 0.050593 -0.713354
F20   F     F_    0.766928 0.869903 0.550216 -0.703929
F21   F     F_    0.300131 0.566452 0.855202 -0.642688
F22   F     F_    0.300275 0.433329 0.357000 -0.632497
F23   F     F_    0.800131 0.066452 0.855202 -0.642690
F24   F     F_    0.800275 0.933329 0.357000 -0.632497
O61   O     O_3   0.979398 0.221165 0.515396 -0.706585
H17   H     H_    0.929924 0.220336 0.520926 0.260711
O62   O     O_3   0.979949 0.779383 0.016195 -0.713350
H18   H     H_    0.930471 0.780237 0.022042 0.275719
O63   O     O_3   0.479399 0.721164 0.515396 -0.706586
H19   H     H_    0.429924 0.720335 0.520926 0.260711
O64   O     O_3   0.479949 0.279383 0.016195 -0.713350
H20   H     H_    0.430471 0.280237 0.022043 0.275719
F25   F     F_    0.022319 0.094571 0.457631 -0.587928
F26   F     F_    0.021886 0.905831 0.960312 -0.619370
F27   F     F_    0.522320 0.594571 0.457629 -0.587932
F28   F     F_    0.521886 0.405831 0.960311 -0.619369
O65   O     O_3   0.912808 0.112108 0.395572 -0.664410
H21   H     H_    0.881668 0.137601 0.327879 0.286290
O66   O     O_3   0.912567 0.886073 0.890328 -0.717684
H22   H     H_    0.907520 0.933848 0.891956 0.356575
O67   O     O_3   0.412809 0.612108 0.395572 -0.664413
H23   H     H_    0.381668 0.637601 0.327879 0.286291
O68   O     O_3   0.412567 0.386074 0.890328 -0.717684
H24   H     H_    0.407520 0.433848 0.891956 0.356576
F29   F     F_    0.070008 0.127765 0.745897 -0.640210
F30   F     F_    0.069924 0.872018 0.246064 -0.640023
F31   F     F_    0.570008 0.627766 0.745895 -0.640214
F32   F     F_    0.569924 0.372018 0.246064 -0.640024
F33   F     F_    0.067225 0.385455 0.640820 -0.634441
F34   F     F_    0.067624 0.614240 0.140331 -0.634663
F35   F     F_    0.567225 0.885455 0.640820 -0.634441
F36   F     F_    0.567624 0.114240 0.140331 -0.634664
F37   F     F_    0.193504 0.200913 0.518208 -0.621976
F38   F     F_    0.193383 0.798993 0.018361 -0.621487
F39   F     F_    0.693504 0.700913 0.518208 -0.621977
F40   F     F_    0.693383 0.298993 0.018361 -0.621487
F41   F     F_    0.815584 0.803460 0.290788 -0.604436
F42   F     F_    0.815492 0.196737 0.790755 -0.604318
F43   F     F_    0.315583 0.303460 0.290788 -0.604436
F44   F     F_    0.315492 0.696737 0.790755 -0.604317
F45   F     F_    0.932703 0.614197 0.170689 -0.629974
F46   F     F_    0.932384 0.386021 0.671044 -0.629860
F47   F     F_    0.432703 0.114197 0.170689 -0.629974
F48   F     F_    0.432384 0.886021 0.671044 -0.629859
O69   O     O_3   0.256874 0.365609 0.064243 -0.615733
H25   H     H_    0.238745 0.362848 0.167493 0.398190
O70   O     O_3   0.256972 0.634438 0.564024 -0.615482
H26   H     H_    0.238798 0.637204 0.667231 0.402219
O71   O     O_3   0.756874 0.865609 0.064243 -0.615733
H27   H     H_    0.738745 0.862848 0.167493 0.398190
O72   O     O_3   0.756972 0.134438 0.564024 -0.615483
H28   H     H_    0.738798 0.137204 0.667231 0.402219
O73   O     O_3   0.747462 0.636103 0.740807 -0.632119
H29   H     H_    0.698906 0.626378 0.725581 0.394720
O74   O     O_3   0.747428 0.363816 0.240848 -0.630848
H30   H     H_    0.698863 0.373599 0.225886 0.395143
O75   O     O_3   0.247462 0.136103 0.740807 -0.632118
H31   H     H_    0.198906 0.126378 0.725582 0.394720
O76   O     O_3   0.247428 0.863816 0.240848 -0.630847
H32   H     H_    0.198863 0.873599 0.225886 0.395143
O77   O     O_3   0.991669 0.103638 0.209261 -0.675284
H33   H     H_    0.953892 0.118139 0.140979 0.267416
O78   O     O_3   0.993429 0.895738 0.709676 -0.684996
H34   H     H_    0.954644 0.882962 0.642190 0.289422
O79   O     O_3   0.491669 0.603638 0.209260 -0.675282
H35   H     H_    0.453892 0.618139 0.140978 0.267417
O80   O     O_3   0.493429 0.395738 0.709676 -0.684998
H36   H     H_    0.454644 0.382962 0.642190 0.289423
O81   O     O_3   0.060257 0.209441 0.012981 -0.715471
H37   H     H_    0.063511 0.256254 0.036617 0.305758
O82   O     O_3   0.060406 0.790595 0.513362 -0.714282
H38   H     H_    0.063661 0.743804 0.537133 0.305216
O83   O     O_3   0.560257 0.709441 0.012980 -0.715472
H39   H     H_    0.563511 0.756254 0.036619 0.305759
O84   O     O_3   0.560406 0.290595 0.513362 -0.714281
H40   H     H_    0.563661 0.243804 0.537133 0.305215
F49   F     F_    0.022977 0.245353 0.780432 -0.767215
F50   F     F_    0.023068 0.754490 0.281007 -0.768657
F51   F     F_    0.522977 0.745354 0.780432 -0.767215
F52   F     F_    0.523068 0.254491 0.281007 -0.768657
O85   O     O_3   0.955766 0.120455 0.742939 -0.646803
H41   H     H_    0.957019 0.073444 0.720045 0.370059
O86   O     O_3   0.955666 0.879397 0.243540 -0.650494
H42   H     H_    0.956786 0.926410 0.220806 0.369645
O87   O     O_3   0.455766 0.620454 0.742941 -0.646808
H43   H     H_    0.457022 0.573445 0.720035 0.370067
O88   O     O_3   0.455666 0.379397 0.243540 -0.650494
H44   H     H_    0.456786 0.426410 0.220805 0.369646
O89   O     O_3   0.821289 0.469173 0.673396 -0.744707
H45   H     H_    0.796108 0.504994 0.623143 0.324307
O90   O     O_3   0.822107 0.531093 0.174033 -0.744880
H46   H     H_    0.797214 0.495251 0.123170 0.323590
O91   O     O_3   0.321289 0.969173 0.673396 -0.744707
H47   H     H_    0.296108 0.004994 0.623143 0.324306
O92   O     O_3   0.322107 0.031093 0.174033 -0.744880
H48   H     H_    0.297214 0.995250 0.123170 0.323590
F53   F     F_    0.840603 0.430523 0.911508 -0.692600
F54   F     F_    0.840545 0.569580 0.412602 -0.692078
F55   F     F_    0.340603 0.930523 0.911508 -0.692600
F56   F     F_    0.340545 0.069580 0.412601 -0.692078

loop_
_geom_bond_atom_site_label_1
_geom_bond_atom_site_label_2
_ccdc_geom_bond_type
C67   O8    S    
C1    O77   S    
C51   C55   A    
O66   H22   S    
C30   C38   A    
C43   F47   S    
Ba2   O38   S    
C4    O80   S    
O80   H36   S    
Ba4   P4    S    
C34   C88   A    
C61   O85   S    
C5    C9    A    
C75   O31   S    
C81   O33   S    
C7    C11   A    
C1    F25   S    
O88   H44   S    
C66   C70   S    
C73   O53   S    
C79   O59   S    
C20   F40   S    
C76   C80   S    
O42   P10   S    
C45   O81   S    
O60   H16   S    
C75   F15   S    
C76   F16   S    
C25   C85   A    
O40   P8    D    
C21   C25   A    
C23   C27   A    
Ba2   O42   S    
C24   C28   A    
C82   O62   S    
C78   F18   S    
O63   H19   S    
C13   C17   A    
C15   C19   A    
O64   H20   S    
Ba1   O14   S    
C48   F52   S    
C74   C78   S    
O68   H24   S    
C3    O79   S    
Ba3   O16   S    
C12   C16   A    
O16   P7    S    
O41   P9    S    
C78   O58   S    
O44   P12   S    
C32   C40   A    
C73   O29   S    
O3    P3    D    
O1    P1    D    
C81   O61   S    
C68   O7    S    
C3    O67   S    
C63   O87   S    
O8    P8    S    
C44   F48   S    
C14   P13   S    
C28   C88   A    
C72   F8    S    
C71   O51   S    
C77   O57   S    
O58   H14   S    
C88   O72   S    
C70   O50   S    
C47   O11   S    
O57   H13   S    
C64   O88   S    
C37   C41   A    
C31   C59   A    
C80   F20   S    
C32   C60   A    
C39   C43   A    
C35   C85   A    
C33   C53   A    
C39   P8    S    
C40   C44   A    
Ba2   P6    S    
C17   F37   S    
Ba2   O13   S    
Ba3   P3    S    
C36   C56   A    
Ba4   O19   S    
Ba1   P1    S    
C72   O52   S    
C60   O76   S    
O69   H25   S    
O65   H21   S    
C65   F53   S    
O34   P13   S    
C15   P16   S    
Ba3   O20   S    
O75   H31   S    
C47   O83   S    
O73   H29   S    
C83   O35   S    
C54   F42   S    
C79   F23   S    
C31   C39   A    
O74   H30   S    
C1    C81   S    
C61   H1    S    
C41   C49   A    
C2    F26   S    
O83   H39   S    
C63   H3    S    
Ba1   O37   S    
O33   P14   S    
O61   H17   S    
C80   O60   S    
Ba4   P8    S    
O36   P15   S    
C8    C12   A    
C42   F46   S    
C69   F5    S    
C6    C10   A    
C82   O34   S    
Ba1   O21   S    
C87   O71   S    
C84   F4    S    
C4    C84   S    
O48   P12   D    
C67   O91   S    
O89   H45   S    
C80   F24   S    
O47   P11   D    
O43   P11   S    
O87   H43   S    
C47   C63   S    
C66   O90   S    
O46   P10   D    
Ba1   P5    S    
Ba3   O23   S    
C6    P2    S    
C48   O84   S    
C29   C57   A    
Ba4   O15   S    
C22   C26   A    
C27   C87   A    
O25   P14   D    
C6    C26   A    
Ba3   O43   S    
Ba3   Ba4   S    
C68   O92   S    
C78   F22   S    
Ba1   O41   S    
C9    F33   S    
C17   C21   A    
O21   P14   S    
C14   C18   A    
C20   C24   A    
O78   H34   S    
C86   O70   S    
C2    C82   S    
C61   F29   S    
C73   F13   S    
O13   P6    S    
C76   O32   S    
O29   P1    S    
O45   P9    D    
C45   F49   S    
O59   H15   S    
O11   P11   S    
C63   F31   S    
Ba3   O3    S    
C58   O74   S    
C64   F32   S    
C24   C58   A    
C84   O64   S    
C81   F1    S    
C83   F3    S    
O82   H38   S    
C57   O73   S    
C26   C86   A    
O15   P8    S    
Ba2   O22   S    
O76   H32   S    
O53   H9    S    
C11   C15   A    
C64   H4    S    
C85   O69   S    
C46   F50   S    
C43   C51   A    
C67   F55   S    
C68   F56   S    
O19   P3    S    
C30   C58   A    
C38   C42   A    
O17   P1    S    
C38   P5    S    
C53   F41   S    
Ba1   O13   S    
C34   C54   A    
C3    C83   S    
Ba3   O15   S    
O10   P10   S    
C46   O82   S    
O84   H40   S    
C65   C69   S    
O7    P7    S    
Ba4   O40   S    
O79   H35   S    
C66   F54   S    
C66   O5    S    
C56   F44   S    
C79   F19   S    
C41   F45   S    
O90   H46   S    
O20   P4    S    
C49   C53   A    
O32   P4    S    
C77   F17   S    
C37   P6    S    
O49   H5    S    
C29   C33   A    
C52   C56   A    
C31   C35   A    
O92   H48   S    
O85   H41   S    
C19   F39   S    
O62   H18   S    
O12   P12   S    
C73   C77   S    
C35   C55   A    
C42   C50   A    
O70   H26   S    
O6    P6    S    
C65   O89   S    
Ba1   O18   S    
C69   F9    S    
C74   O30   S    
C70   F6    S    
C2    O66   S    
Ba2   O14   S    
C45   O9    S    
C9    C13   A    
C29   C37   A    
O56   H12   S    
C75   C79   S    
C7    P3    S    
O55   H11   S    
O71   H27   S    
O39   P7    D    
C5    P1    S    
O26   P13   D    
Ba3   O39   S    
O52   H8    S    
O51   H7    S    
C18   C22   A    
C11   F35   S    
C2    O78   S    
C46   O10   S    
O22   P13   S    
C36   C86   A    
C18   F38   S    
C1    O65   S    
O91   H47   S    
C10   C14   A    
C74   F14   S    
C68   C72   S    
O14   P5    S    
C50   P9    S    
O30   P2    S    
C65   O6    S    
C45   C61   S    
C55   F43   S    
C62   O86   S    
Ba1   Ba2   S    
Ba2   O17   S    
O27   P16   D    
C12   F36   S    
O38   P6    D    
O28   P15   D    
C72   F12   S    
C74   O54   S    
C21   C59   A    
C22   C60   A    
C23   C57   A    
O50   H6    S    
O23   P16   S    
C16   P15   S    
O24   P15   S    
C82   F2    S    
C19   C23   A    
O77   H33   S    
C48   C64   S    
C5    C25   A    
C62   H2    S    
C3    F27   S    
Ba4   O16   S    
C7    C27   A    
C49   P10   S    
C8    C28   A    
C47   F51   S    
C52   P11   S    
C59   O75   S    
C4    O68   S    
C51   P12   S    
C40   P7    S    
C33   C87   A    
C16   C20   A    
C32   C36   A    
O37   P5    D    
O18   P2    S    
Ba1   O1    S    
O2    P2    D    
O9    P9    S    
O54   H10   S    
C4    F28   S    
Ba4   O44   S    
O67   H23   S    
C83   O63   S    
C13   P14   S    
C46   C62   S    
C48   O12   S    
Ba4   O4    S    
O86   H42   S    
C71   F11   S    
C84   O36   S    
O72   H28   S    
C10   F34   S    
C77   F21   S    
C50   C54   A    
C44   C52   A    
C75   O55   S    
C30   C34   A    
Ba2   P2    S    
C62   F30   S    
Ba3   P7    S    
C8    P4    S    
C67   C71   S    
O4    P4    D    
O5    P5    S    
C76   O56   S    
C69   O49   S    
O35   P16   S    
C70   F10   S    
Ba2   O2    S    
Ba4   O24   S    
C71   F7    S    
O31   P3    S    
O81   H37   S    
