data_mof_unit_22847.cif
_audit_creation_date              2012-10-26T20:12:00-0400
_audit_creation_method            fapswitch 2.2
_symmetry_space_group_name_H-M    P1
_symmetry_Int_Tables_number       1
_space_group_crystal_system       triclinic
_cell_length_a                    13.01257
_cell_length_b                    15.111835
_cell_length_c                    13.912119
_cell_angle_alpha                 89.551599
_cell_angle_beta                  97.200459
_cell_angle_gamma                 90.887291
_cell_volume                      2713.78407853

loop_
_atom_site_label
_atom_site_type_symbol
_atom_type_description
_atom_site_fract_x
_atom_site_fract_y
_atom_site_fract_z
_atom_type_partial_charge
C1    C     C_R   0.501851 0.329585 0.500720 0.552262
C2    C     C_R   0.491273 0.949526 0.499634 0.055819
C3    C     C_R   0.584228 0.534706 0.117059 0.210149
C4    C     C_R   0.454225 0.426696 0.886508 0.207239
C5    C     C_R   0.576053 0.544518 0.217295 0.372925
C6    C     C_R   0.446984 0.434150 0.783574 0.385232
C7    C     C_R   0.426325 0.452156 0.202012 0.359765
C8    C     C_R   0.551944 0.564785 0.796930 0.363727
C9    C     C_R   0.419846 0.458327 0.099670 -0.177344
C10   C     C_R   0.545104 0.566758 0.898006 -0.179764
C11   C     C_R   0.501050 0.496777 0.054926 -0.031532
C12   C     C_R   0.499152 0.669566 0.499478 0.581008
C13   C     C_R   0.499817 0.496324 0.945310 -0.025872
C14   C     C_R   0.299936 0.502629 0.480856 0.566230
C15   C     C_R   0.699848 0.503505 0.519151 0.541222
C16   C     C_R   0.813372 0.512435 0.532145 -0.052971
C17   C     C_R   0.186252 0.511497 0.468616 -0.040514
C18   C     C_R   0.019325 0.534956 0.371904 0.271807
C19   C     C_R   0.981139 0.520384 0.632110 0.280017
C20   C     C_R   0.126345 0.519712 0.376587 0.282219
C21   C     C_R   0.872415 0.513918 0.624727 0.272983
C22   C     C_R   0.137281 0.515243 0.552713 -0.194281
C23   C     C_R   0.502126 0.232165 0.501947 -0.077368
C24   C     C_R   0.863168 0.521372 0.449229 -0.189992
C25   C     C_R   0.030015 0.520154 0.547396 -0.049251
C26   C     C_R   0.970559 0.525787 0.455953 -0.057092
C27   C     C_R   0.501286 0.091775 0.588814 0.251190
C28   C     C_R   0.406909 0.901534 0.451282 0.254920
C29   C     C_R   0.516235 0.183916 0.589756 0.237224
C30   C     C_R   0.413183 0.808916 0.443995 0.222614
C31   C     C_3   0.345843 0.315628 0.207617 -0.142353
C32   C     C_3   0.693182 0.663100 0.806446 -0.095584
C33   C     C_3   0.832408 0.433938 0.754635 -0.096604
C34   C     C_R   0.495914 0.765250 0.498005 -0.058786
C35   C     C_3   0.138098 0.447519 0.234701 -0.067389
C36   C     C_3   0.954330 0.650154 0.279680 -0.119022
C37   C     C_3   0.050531 0.611454 0.752471 -0.131549
C38   C     C_3   0.418442 0.057265 0.719492 0.001624
C39   C     C_3   0.418112 0.993027 0.804092 -0.379682
C40   C     C_3   0.239524 0.934813 0.465152 -0.007513
C41   C     C_3   0.152463 0.997163 0.428575 -0.383458
C42   C     C_3   0.656440 0.218715 0.696719 0.014753
C43   C     C_3   0.690982 0.243882 0.801415 -0.392615
C44   C     C_3   0.336473 0.780112 0.289882 0.008494
C45   C     C_R   0.487633 0.186369 0.414007 -0.207145
C46   C     C_3   0.294930 0.700823 0.229731 -0.353357
C47   C     C_3   0.553998 0.068870 0.270165 -0.014531
C48   C     C_3   0.558730 0.997034 0.194954 -0.380870
C49   C     C_3   0.741310 0.952789 0.529675 -0.018101
C50   C     C_3   0.826964 0.016921 0.569774 -0.379140
C51   C     C_3   0.747293 0.492279 0.100053 0.005328
C52   C     C_3   0.839934 0.511602 0.046191 -0.360190
C53   C     C_3   0.479931 0.281496 0.925532 -0.017375
C54   C     C_3   0.434841 0.200494 0.971503 -0.392118
C55   C     C_3   0.640844 0.682878 0.253481 -0.107017
C56   C     C_R   0.577299 0.812837 0.549317 -0.183363
C57   C     C_3   0.286846 0.368607 0.740102 -0.082109
C58   C     C_R   0.485879 0.093829 0.412222 0.234725
C59   C     C_R   0.578229 0.904942 0.545933 0.241144
C60   C     C_R   0.490292 0.046706 0.500084 0.058280
Cu1   Cu    Cu3+1 0.500000 0.499990 0.596430 1.080424
Cu2   Cu    Cu3+1 0.500000 0.500010 0.403570 1.048463
H1    H     H_    0.818136 0.522519 0.378332 0.217985
H2    H     H_    0.743912 0.694356 0.757015 0.148388
H3    H     H_    0.738189 0.609396 0.846376 0.141605
H4    H     H_    0.673783 0.715147 0.856839 0.099469
H5    H     H_    0.911335 0.424664 0.793574 0.155875
H6    H     H_    0.811592 0.378384 0.703567 0.095213
H7    H     H_    0.777707 0.432019 0.809565 0.117172
H8    H     H_    0.054358 0.449802 0.207928 0.140963
H9    H     H_    0.155632 0.384224 0.274381 0.121363
H10   H     H_    0.178293 0.448515 0.169018 0.147728
H11   H     H_    0.031936 0.682684 0.282421 0.125349
H12   H     H_    0.182851 0.512395 0.623155 0.179526
H13   H     H_    0.912413 0.675881 0.338389 0.115474
H14   H     H_    0.908917 0.668556 0.209804 0.135343
H15   H     H_    0.974283 0.640599 0.761378 0.141714
H16   H     H_    0.090833 0.652227 0.701213 0.108331
H17   H     H_    0.098811 0.613530 0.824052 0.130377
H18   H     H_    0.346971 0.044746 0.668136 0.098925
H19   H     H_    0.416699 0.125671 0.748047 0.173669
H20   H     H_    0.488274 0.004075 0.857097 0.158462
H21   H     H_    0.348253 0.003332 0.840788 0.080918
H22   H     H_    0.417303 0.923836 0.777592 0.162937
H23   H     H_    0.351867 0.432050 0.056229 0.168213
H24   H     H_    0.265219 0.950495 0.542656 0.106432
H25   H     H_    0.208399 0.865806 0.459781 0.165177
H26   H     H_    0.123575 0.982328 0.351771 0.152419
H27   H     H_    0.087631 0.988802 0.472874 0.080914
H28   H     H_    0.181051 0.066816 0.434070 0.158227
H29   H     H_    0.694192 0.264267 0.648179 0.109605
H30   H     H_    0.683637 0.150104 0.686938 0.166826
H31   H     H_    0.659987 0.194891 0.850706 0.144589
H32   H     H_    0.776865 0.244233 0.815712 0.078588
H33   H     H_    0.662409 0.310631 0.816036 0.140638
H34   H     H_    0.574466 0.623804 0.939541 0.157124
H35   H     H_    0.415334 0.796463 0.270595 0.111495
H36   H     H_    0.284975 0.836963 0.269462 0.179830
H37   H     H_    0.213665 0.686432 0.241742 0.186837
H38   H     H_    0.297045 0.715281 0.151620 0.070224
H39   H     H_    0.342997 0.641969 0.250361 0.206868
H40   H     H_    0.630783 0.072247 0.315888 0.107852
H41   H     H_    0.539137 0.132915 0.231413 0.118851
H42   H     H_    0.484122 0.992995 0.146591 0.156482
H43   H     H_    0.621961 0.012542 0.150527 0.086576
H44   H     H_    0.573870 0.932045 0.231494 0.135605
H45   H     H_    0.478863 0.222371 0.346395 0.142307
H46   H     H_    0.711454 0.975122 0.454886 0.113547
H47   H     H_    0.775018 0.885761 0.526464 0.119091
H48   H     H_    0.858439 0.997162 0.644633 0.156948
H49   H     H_    0.890489 0.016540 0.523413 0.085000
H50   H     H_    0.796110 0.084977 0.570681 0.133859
H51   H     H_    0.713750 0.426777 0.074944 0.104827
H52   H     H_    0.775052 0.488382 0.178955 0.188695
H53   H     H_    0.873388 0.577966 0.065791 0.170316
H54   H     H_    0.900150 0.460989 0.065283 0.095488
H55   H     H_    0.815675 0.509550 0.966968 0.132605
H56   H     H_    0.642069 0.778489 0.588871 0.147356
H57   H     H_    0.557350 0.297039 0.966225 0.115801
H58   H     H_    0.488305 0.264196 0.849541 0.205327
H59   H     H_    0.357961 0.182974 0.931621 0.147412
H60   H     H_    0.487436 0.143655 0.968750 0.093445
H61   H     H_    0.426045 0.213748 0.048213 0.144492
H62   H     H_    0.559347 0.704986 0.250758 0.099613
H63   H     H_    0.671276 0.699225 0.184290 0.141271
H64   H     H_    0.687797 0.720944 0.311619 0.111564
H65   H     H_    0.239321 0.351731 0.670637 0.122987
H66   H     H_    0.258077 0.432582 0.765039 0.118305
H67   H     H_    0.311169 0.271707 0.259512 0.136577
H68   H     H_    0.273870 0.315077 0.792463 0.149368
H69   H     H_    0.421874 0.287493 0.196106 0.103285
H70   H     H_    0.291988 0.315157 0.139083 0.101465
N1    N     N_R   0.500000 0.500020 0.258690 -0.237795
N2    N     N_R   0.500000 0.499980 0.741310 -0.229405
O1    O     O_R   0.500010 0.371450 0.581430 -0.413700
O2    O     O_3   0.602595 0.631036 0.750253 -0.515705
O3    O     O_3   0.823849 0.516820 0.707520 -0.551484
O4    O     O_3   0.173308 0.521071 0.292571 -0.537882
O5    O     O_3   0.962459 0.557207 0.284468 -0.592393
O6    O     O_3   0.039415 0.522591 0.722371 -0.592382
O7    O     O_3   0.508712 0.044324 0.674930 -0.515850
O8    O     O_3   0.321031 0.946091 0.407871 -0.529317
O9    O     O_3   0.547566 0.225423 0.676893 -0.525933
O10   O     O_3   0.336437 0.759742 0.389387 -0.560101
O11   O     O_3   0.472701 0.048122 0.325329 -0.523744
O12   O     O_R   0.499990 0.628550 0.418570 -0.483672
O13   O     O_3   0.662630 0.951871 0.590950 -0.521466
O14   O     O_3   0.674492 0.560614 0.081131 -0.586958
O15   O     O_3   0.412574 0.353334 0.928595 -0.593037
O16   O     O_3   0.650867 0.591927 0.275573 -0.535047
O17   O     O_3   0.392084 0.371804 0.724426 -0.510388
O18   O     O_R   0.500010 0.371460 0.418560 -0.500238
O19   O     O_R   0.499990 0.628540 0.581440 -0.454698
O20   O     O_R   0.349000 0.499980 0.568210 -0.514541
O21   O     O_R   0.651000 0.500020 0.431790 -0.486304
O22   O     O_R   0.349000 0.499990 0.405340 -0.408004
O23   O     O_R   0.651000 0.500010 0.594660 -0.443277
O24   O     O_3   0.356512 0.401606 0.247048 -0.519720

loop_
_geom_bond_atom_site_label_1
_geom_bond_atom_site_label_2
_ccdc_geom_bond_type
C41   H27   S    
C46   H37   S    
C47   O11   S    
C34   C56   A    
C16   C21   A    
C23   C45   A    
C40   O8    S    
C27   C29   A    
C18   C26   A    
C21   O3    S    
C12   O19   A    
C54   H61   S    
Cu1   O20   S    
C43   H32   S    
C57   H66   S    
C53   H58   S    
C7    O24   S    
C53   C54   S    
C5    N1    A    
C4    O15   S    
C37   H17   S    
Cu1   O1    S    
C51   H51   S    
Cu2   O18   S    
C23   C29   A    
C40   H25   S    
C49   H47   S    
C19   C21   A    
C24   C26   A    
C39   H22   S    
C7    N1    A    
C20   O4    S    
C27   C60   A    
C35   O4    S    
C38   C39   S    
C2    C60   S    
C8    O2    S    
C27   O7    S    
C58   C60   A    
C15   C16   S    
C29   O9    S    
C50   H48   S    
C17   C20   A    
C30   O10   S    
Cu2   O21   S    
C49   O13   S    
C1    O18   A    
C42   H29   S    
C12   O12   A    
C4    C13   A    
C31   H69   S    
C36   H14   S    
C9    H23   S    
C48   H43   S    
C44   H36   S    
C48   H44   S    
C55   H63   S    
C35   H8    S    
C33   O3    S    
C19   O6    S    
C37   O6    S    
C43   H33   S    
C15   O21   A    
C33   H7    S    
C52   H55   S    
C41   H28   S    
C54   H60   S    
C35   H9    S    
C3    O14   S    
C16   C24   A    
C47   H40   S    
C14   O20   A    
C53   O15   S    
C14   C17   S    
Cu1   Cu2   S    
C44   C46   S    
Cu1   N2    S    
C49   H46   S    
C52   H54   S    
C46   H39   S    
C45   C58   A    
C58   O11   S    
C51   H52   S    
C47   H41   S    
C30   C34   A    
C8    N2    A    
C51   C52   S    
C57   H68   S    
C32   H2    S    
C4    C6    A    
C40   H24   S    
C32   O2    S    
C2    C59   A    
C25   C26   A    
C37   H15   S    
C22   C25   A    
C5    O16   S    
C31   H70   S    
C36   H13   S    
Cu1   O23   S    
C44   H35   S    
C47   C48   S    
C55   H64   S    
C10   H34   S    
C44   O10   S    
C50   H50   S    
C48   H42   S    
C9    C11   A    
C6    O17   S    
C8    C10   A    
C40   C41   S    
C54   H59   S    
C35   H10   S    
C1    C23   S    
C24   H1    S    
C38   H19   S    
C38   O7    S    
C28   O8    S    
C42   C43   S    
C22   H12   S    
C12   C34   S    
C33   H5    S    
C55   O16   S    
C32   H4    S    
C52   H53   S    
C7    C9    A    
C41   H26   S    
C46   H38   S    
C55   H62   S    
C14   O22   A    
C56   H56   S    
C39   H20   S    
C3    C5    A    
C10   C13   A    
Cu1   O19   S    
C57   H65   S    
C18   C20   A    
C53   H57   S    
C15   O23   A    
C37   H16   S    
C17   C22   A    
C56   C59   A    
C28   C30   A    
C39   H21   S    
C31   H67   S    
C11   C13   S    
C38   H18   S    
C51   O14   S    
C57   O17   S    
C50   H49   S    
C43   H31   S    
Cu2   O22   S    
C42   H30   S    
C18   O5    S    
C19   C25   A    
C36   O5    S    
C31   O24   S    
C3    C11   A    
C36   H11   S    
C6    N2    A    
C49   C50   S    
Cu2   O12   S    
C42   O9    S    
C2    C28   A    
C1    O1    A    
Cu2   N1    S    
C45   H45   S    
C33   H6    S    
C32   H3    S    
C59   O13   S    
