data_mof_unit_39962.cif
_audit_creation_date              2012-12-11T14:29:46-0500
_audit_creation_method            fapswitch 2.2
_symmetry_space_group_name_H-M    P1
_symmetry_Int_Tables_number       1
_space_group_crystal_system       triclinic
_cell_length_a                    6.935148
_cell_length_b                    14.771082
_cell_length_c                    16.250972
_cell_angle_alpha                 90.384716
_cell_angle_beta                  89.291432
_cell_angle_gamma                 89.847134
_cell_volume                      1664.57259256

loop_
_atom_site_label
_atom_site_type_symbol
_atom_type_description
_atom_site_fract_x
_atom_site_fract_y
_atom_site_fract_z
_atom_type_partial_charge
O1    O     O_R   0.494400 0.416610 0.413880 -0.523125
O2    O     O_R   0.823920 0.406790 0.585520 -0.557790
O3    O     O_R   0.994250 0.583390 0.586120 -0.534243
C1    C     C_R   0.653575 0.387808 0.615880 0.633864
O4    O     O_R   0.824110 0.405730 0.414490 -0.554391
O5    O     O_R   0.994440 0.582310 0.413870 -0.540493
C2    C     C_R   0.656723 0.385425 0.385013 0.630993
O6    O     O_R   0.494210 0.417690 0.586130 -0.540293
O7    O     O_3   0.660810 0.557940 0.500000 -0.373497
V1    V     V_3+5 0.935650 0.489250 0.500000 1.394379
O8    O     O_R   0.324160 0.593210 0.414480 -0.545828
C3    C     C_R   0.156173 0.613870 0.385392 0.807920
O9    O     O_R   0.323970 0.594270 0.585510 -0.538240
C4    C     C_R   0.153104 0.617456 0.613020 0.792375
V2    V     V_3+5 0.435660 0.510750 0.500000 1.429933
O10   O     O_3   0.160630 0.442060 0.500000 -0.378596
H1    H     H_    0.168206 0.934795 0.507662 0.124953
C5    C     C_R   0.074129 0.564141 0.780856 -0.198378
C6    C     C_R   0.044676 0.534306 0.861161 -0.199992
C7    C     C_R   0.047244 0.595983 0.927610 0.520305
C8    C     C_R   0.071605 0.687916 0.910791 -0.196699
C9    C     C_R   0.099936 0.719820 0.829631 -0.000010
C10   C     C_R   0.105119 0.656457 0.763308 0.057334
C11   C     C_R   0.122464 0.813424 0.814198 -0.128505
C12   C     C_R   0.145667 0.843733 0.732077 0.025843
C13   C     C_R   0.142260 0.780852 0.664833 -0.027882
C14   C     C_R   0.135027 0.686064 0.681012 -0.169271
C15   C     C_R   0.165483 0.937110 0.715557 -0.157934
C16   C     C_R   0.181227 0.968530 0.635393 -0.209873
C17   C     C_R   0.166639 0.908715 0.569796 -0.182959
C18   C     C_R   0.136582 0.816217 0.583382 0.435398
H2    H     H_    0.065907 0.514214 0.732370 0.109901
H3    H     H_    0.016728 0.463075 0.870353 0.122402
H4    H     H_    0.068127 0.734216 0.962714 0.119978
H5    H     H_    0.168432 0.987087 0.764456 0.118053
H6    H     H_    0.197400 0.040246 0.623989 0.137400
C19   C     C_2   0.987134 0.705578 0.280250 -0.134148
C20   C     C_2   0.151577 0.681138 0.318114 -0.285942
H7    H     H_    0.852012 0.675060 0.299846 0.122266
H8    H     H_    0.288570 0.710482 0.300272 0.119045
C21   C     C_2   0.973488 0.773441 0.212733 -0.110370
C22   C     C_2   0.125881 0.814200 0.176774 -0.300672
H9    H     H_    0.829445 0.789703 0.191797 0.131851
H10   H     H_    0.271031 0.798304 0.195860 0.126950
C23   C     C_2   0.765562 0.217101 0.786970 -0.071492
C24   C     C_2   0.620467 0.157975 0.802408 0.069112
H11   H     H_    0.877547 0.226840 0.832307 0.088564
C25   C     C_2   0.778919 0.272808 0.711263 -0.245398
C26   C     C_2   0.635855 0.329783 0.690455 0.317438
H12   H     H_    0.909159 0.267830 0.673791 0.085154
C27   C     C_2   0.767432 0.213415 0.209179 -0.201076
C28   C     C_2   0.608960 0.166225 0.188238 0.355158
H13   H     H_    0.897079 0.207868 0.171203 0.115507
C29   C     C_2   0.782716 0.266131 0.287164 0.081987
C30   C     C_2   0.647859 0.329752 0.308543 0.355394
O11   O     O_R   0.770210 0.079270 0.910680 -0.550706
O12   O     O_R   0.440150 0.091160 0.082270 -0.522626
O13   O     O_R   0.269970 0.914530 0.082860 -0.544373
C31   C     C_R   0.607268 0.110255 0.112401 0.619399
O14   O     O_R   0.440480 0.090100 0.911240 -0.537745
O15   O     O_R   0.270310 0.913460 0.910610 -0.538366
C32   C     C_R   0.610144 0.108283 0.880880 0.709061
O16   O     O_R   0.769870 0.080340 0.082930 -0.557099
O17   O     O_3   0.603660 0.938980 0.996790 -0.368263
V3    V     V_3+5 0.328750 0.007610 0.996740 1.435989
O18   O     O_R   0.940600 0.902510 0.911180 -0.537699
C33   C     C_R   0.110532 0.880385 0.883188 0.692316
O19   O     O_R   0.940270 0.903570 0.082200 -0.541579
C34   C     C_R   0.109141 0.881747 0.110266 0.733712
V4    V     V_3+5 0.828770 0.986010 0.996670 1.415161
O20   O     O_3   0.103730 0.054750 0.996710 -0.371067
C35   C     C_3   0.481088 0.127922 0.737110 -0.748669
H14   H     H_    0.492873 0.053371 0.729911 0.189260
H15   H     H_    0.331279 0.145180 0.756272 0.202341
H16   H     H_    0.512401 0.156657 0.675639 0.204403
O21   O     O_3   0.486275 0.343525 0.747462 -0.541690
C36   C     C_3   0.303331 0.331338 0.711946 -0.176884
H17   H     H_    0.302954 0.281441 0.660278 0.103945
H18   H     H_    0.246074 0.396875 0.690608 0.146201
H19   H     H_    0.202794 0.306426 0.760261 0.136959
O22   O     O_3   0.447456 0.166975 0.239482 -0.515018
C37   C     C_3   0.438435 0.083864 0.281632 -0.249028
H20   H     H_    0.574418 0.069806 0.315109 0.120590
H21   H     H_    0.404799 0.027000 0.239003 0.123581
H22   H     H_    0.320557 0.087720 0.328241 0.152337
C38   C     C_3   0.958962 0.247900 0.338128 -0.774069
H23   H     H_    0.057017 0.307173 0.336776 0.249277
H24   H     H_    0.040773 0.188853 0.313331 0.230211
H25   H     H_    0.915975 0.232053 0.402483 0.187209
O23   O     O_3   0.492873 0.344200 0.256978 -0.524919
C39   C     C_3   0.521972 0.426049 0.214431 -0.242062
H26   H     H_    0.661923 0.425800 0.180016 0.127014
H27   H     H_    0.513454 0.485355 0.256880 0.119268
H28   H     H_    0.405728 0.433678 0.168731 0.160964
O24   O     O_3   0.011291 0.572271 0.009215 -0.553358
C40   C     C_3   0.079293 0.484767 0.028007 -0.260855
H29   H     H_    0.226801 0.472090 0.002486 0.139345
H30   H     H_    0.976166 0.432452 0.006705 0.139440
H31   H     H_    0.087687 0.478894 0.095886 0.162799
O25   O     O_3   0.084825 0.763018 0.517096 -0.574119
C41   C     C_3   0.885977 0.776956 0.503264 -0.218421
H32   H     H_    0.855087 0.848128 0.485544 0.117723
H33   H     H_    0.797446 0.757888 0.558091 0.139497
H34   H     H_    0.839736 0.733595 0.451447 0.168258

loop_
_geom_bond_atom_site_label_1
_geom_bond_atom_site_label_2
_ccdc_geom_bond_type
C41   H32   S    
C21   C22   D    
C6    C7    A    
C2    C30   S    
C1    O6    A    
O22   C37   S    
C36   H17   S    
C12   C15   A    
C16   H6    S    
C13   C14   A    
C19   C20   D    
C24   C32   S    
C15   C16   A    
C30   O23   S    
O5    C3    A    
C17   C18   A    
C38   H24   S    
O12   C31   A    
V2    O10   S    
C40   H31   S    
O11   V4    S    
O14   C32   A    
C5    C6    A    
C23   H11   S    
C11   C33   S    
O8    V2    S    
O24   C40   S    
C15   H5    S    
O19   C34   A    
C40   H30   S    
V4    O20   S    
O1    V2    S    
O17   V4    S    
C4    C14   S    
O7    V1    S    
C24   C35   S    
C25   H12   S    
O18   C33   A    
C13   C18   A    
C41   H33   S    
O9    C4    A    
C3    C20   S    
H1    C17   S    
C21   H9    S    
C22   H10   S    
C35   H16   S    
C36   H18   S    
C5    C10   A    
O21   C36   S    
C35   H15   S    
C6    H3    S    
C39   H26   S    
O4    C2    A    
C38   H23   S    
C8    H4    S    
C12   C13   A    
C23   C24   D    
C22   C34   S    
C27   C28   D    
C27   H13   S    
O2    C1    A    
C16   C17   A    
C28   C31   S    
C39   H27   S    
O15   C33   A    
O13   V3    S    
O16   V4    S    
C40   H29   S    
C26   O21   S    
C18   O25   S    
C11   C12   A    
O3    C4    A    
C25   C26   D    
C7    O24   S    
O14   V3    S    
C41   H34   S    
C10   C14   A    
O9    V2    S    
O11   C32   A    
C5    H2    S    
O2    V1    S    
C29   C38   S    
C23   C25   S    
C29   C30   D    
O1    C2    A    
C31   O16   A    
O12   V3    S    
C35   H14   S    
C38   H25   S    
O5    V1    S    
O8    C3    A    
O13   C34   A    
O6    V2    S    
C37   H22   S    
C37   H21   S    
C1    C26   S    
C27   C29   S    
O17   V3    S    
O7    V2    S    
O4    V1    S    
C19   H7    S    
O3    V1    S    
V3    O20   S    
C39   H28   S    
C20   H8    S    
C36   H19   S    
O23   C39   S    
O18   V4    S    
O25   C41   S    
C9    C11   A    
C19   C21   S    
C28   O22   S    
O15   V3    S    
C7    C8    A    
O19   V4    S    
C37   H20   S    
C9    C10   A    
V1    O10   S    
C8    C9    A    
