data_mof_unit_53617.cif
_audit_creation_date              2012-12-11T15:41:18-0500
_audit_creation_method            fapswitch 2.2
_symmetry_space_group_name_H-M    P1
_symmetry_Int_Tables_number       1
_space_group_crystal_system       triclinic
_cell_length_a                    14.864583
_cell_length_b                    14.976224
_cell_length_c                    14.918988
_cell_angle_alpha                 109.748382
_cell_angle_beta                  109.258159
_cell_angle_gamma                 109.924328
_cell_volume                      2540.13819488

loop_
_atom_site_label
_atom_site_type_symbol
_atom_type_description
_atom_site_fract_x
_atom_site_fract_y
_atom_site_fract_z
_atom_type_partial_charge
C1    C     C_R   0.194538 0.993665 0.904176 -0.142076
C2    C     C_R   0.748281 0.934074 0.025894 -0.141959
C3    C     C_R   0.873489 0.299080 0.302469 -0.115821
C4    C     C_R   0.226968 0.670262 0.674319 -0.097213
C5    C     C_R   0.500574 0.050441 0.326657 0.035353
C6    C     C_R   0.500597 0.066646 0.698922 0.043714
C7    C     C_R   0.495491 0.325125 0.030825 0.076545
C8    C     C_R   0.499808 0.706947 0.078403 0.042911
C9    C     C_R   0.219675 0.180566 0.716562 -0.444680
C10   C     C_R   0.811837 0.921043 0.399861 -0.426739
C11   C     C_R   0.304101 0.285036 0.807024 0.524208
C12   C     C_R   0.709854 0.819114 0.338418 0.504428
C13   C     C_R   0.293784 0.328910 0.900598 -0.055743
C14   C     C_R   0.697852 0.728309 0.253694 0.001343
C15   C     C_R   0.191720 0.277249 0.894239 -0.309826
C16   C     C_R   0.786743 0.738794 0.235390 -0.333452
C17   C     C_R   0.106034 0.175274 0.801701 -0.263180
C18   C     C_R   0.886212 0.838572 0.297443 -0.337126
C19   C     C_R   0.122231 0.122073 0.716311 0.620964
C20   C     C_R   0.897851 0.931560 0.376958 0.654506
C21   C     C_R   0.392541 0.522443 0.039936 -0.284679
C22   C     C_R   0.583969 0.524757 0.153222 -0.305550
C23   C     C_R   0.806101 0.205884 0.298117 -0.242610
C24   C     C_R   0.253910 0.774326 0.685128 -0.228584
C25   C     C_R   0.493750 0.622076 0.107784 0.118483
C26   C     C_R   0.489352 0.425333 0.064254 0.097782
C27   C     C_R   0.589075 0.624868 0.174215 0.139246
C28   C     C_R   0.391518 0.424521 0.006978 0.105881
C29   C     C_R   0.058322 0.461218 0.374172 -0.178627
C30   C     C_R   0.133198 0.464437 0.571866 -0.170238
C31   C     C_R   0.144912 0.559296 0.470400 -0.199545
C32   C     C_R   0.039303 0.371131 0.478723 -0.201211
C33   C     C_R   0.173319 0.564252 0.572091 0.177432
C34   C     C_R   0.993013 0.374478 0.382575 0.168955
C35   C     C_R   0.601464 0.158626 0.624035 -0.180143
C36   C     C_R   0.401034 0.057068 0.430935 -0.175298
C37   C     C_R   0.601438 0.155966 0.530459 -0.178174
C38   C     C_R   0.400976 0.059845 0.524601 -0.159866
C39   C     C_R   0.501077 0.094287 0.430534 0.146850
C40   C     C_R   0.501063 0.100480 0.617944 0.156346
C41   C     C_R   0.962283 0.839585 0.941748 -0.172913
C42   C     C_R   0.868310 0.935218 0.838948 -0.162111
C43   C     C_R   0.870694 0.841994 0.943596 -0.168097
C44   C     C_R   0.958898 0.931056 0.835525 -0.181048
C45   C     C_R   0.407714 0.973155 0.222847 -0.124082
C46   C     C_R   0.592163 0.095797 0.791972 -0.140802
C47   C     C_R   0.832046 0.901772 0.903751 0.144162
C48   C     C_R   0.013726 0.894836 0.897886 0.132288
C49   C     C_R   0.589368 0.316236 0.047569 -0.125119
C50   C     C_R   0.409192 0.707985 0.014930 -0.048318
C51   C     C_R   0.592906 0.065836 0.315235 -0.116926
C52   C     C_R   0.408586 0.003870 0.700161 -0.115190
C53   C     C_R   0.406078 0.219974 0.970141 -0.116221
C54   C     C_R   0.591393 0.794311 0.098574 -0.143311
C55   C     C_R   0.805910 0.302480 0.214535 0.525682
C56   C     C_R   0.248135 0.684600 0.777546 0.515695
C57   C     C_R   0.195022 0.903318 0.995285 -0.161940
C58   C     C_R   0.748251 0.024828 0.933322 -0.118995
C59   C     C_R   0.130063 0.930469 0.932365 0.055875
C60   C     C_R   0.773795 0.947713 0.948211 0.038967
H1    H     H_    0.166667 0.017690 0.844919 0.098215
H2    H     H_    0.758135 0.881683 0.058357 0.095403
H3    H     H_    0.180849 0.312564 0.963514 0.174207
H4    H     H_    0.776914 0.670512 0.168820 0.176491
H5    H     H_    0.029059 0.134505 0.799595 0.146695
H6    H     H_    0.953771 0.843693 0.282468 0.148479
H7    H     H_    0.316883 0.518325 0.992959 0.135093
H8    H     H_    0.657083 0.525510 0.200863 0.137046
H9    H     H_    0.034280 0.459612 0.296799 0.174445
H10   H     H_    0.164826 0.458573 0.644346 0.178324
H11   H     H_    0.182230 0.632043 0.465424 0.121540
H12   H     H_    0.998612 0.301348 0.486407 0.127922
H13   H     H_    0.680476 0.196690 0.696781 0.111566
H14   H     H_    0.322096 0.015645 0.356875 0.109087
H15   H     H_    0.998021 0.804109 0.984409 0.106243
H16   H     H_    0.834836 0.974501 0.800113 0.106632
H17   H     H_    0.832004 0.169506 0.345345 0.122813
H18   H     H_    0.246211 0.794322 0.620944 0.130886
H19   H     H_    0.839196 0.807464 0.986991 0.110077
H20   H     H_    0.991230 0.965716 0.792825 0.137906
H21   H     H_    0.321839 0.940299 0.200402 0.093916
H22   H     H_    0.677192 0.156585 0.825676 0.096809
H23   H     H_    0.671195 0.381629 0.080908 0.155485
H24   H     H_    0.327093 0.666311 0.002026 0.123101
H25   H     H_    0.679015 0.119000 0.378366 0.089501
H26   H     H_    0.323861 0.979262 0.648724 0.068185
H27   H     H_    0.321348 0.193742 0.947630 0.112882
H28   H     H_    0.677302 0.827004 0.152418 0.105517
H29   H     H_    0.167608 0.843006 0.018938 0.079244
H30   H     H_    0.758197 0.055855 0.879593 0.092837
N1    N     N_R   0.293810 0.002730 0.945950 -0.040528
N2    N     N_R   0.706190 0.997270 0.054050 -0.041464
N3    N     N_R   0.706160 0.152130 0.208910 -0.063323
N4    N     N_R   0.293840 0.847870 0.791090 -0.061903
N5    N     N_R   0.443140 0.945920 0.152090 -0.041877
N6    N     N_R   0.556860 0.054080 0.847910 -0.037869
N7    N     N_R   0.556830 0.208940 0.002760 -0.038501
N8    N     N_R   0.443170 0.791060 0.997240 -0.047905
N9    N     N_R   0.556790 0.002750 0.208910 -0.033274
N10   N     N_R   0.443210 0.997250 0.791090 -0.036460
N11   N     N_R   0.443180 0.152110 0.945950 -0.043433
N12   N     N_R   0.556820 0.847890 0.054050 -0.045783
N13   N     N_R   0.706170 0.208950 0.152090 -0.088772
N14   N     N_R   0.293830 0.791050 0.847910 -0.100442
N15   N     N_R   0.293800 0.945910 0.002760 -0.040090
N16   N     N_R   0.706200 0.054090 0.997240 -0.042922
Ni1   Ni    Ni4+2 0.369690 0.999990 0.869700 0.201741
Ni2   Ni    Ni4+2 0.630310 0.000010 0.130300 0.198866
Ni3   Ni    Ni4+2 0.369670 0.869670 0.000000 0.205675
Ni4   Ni    Ni4+2 0.630330 0.130330 0.000000 0.247370
H31   H     H_    0.231583 0.144431 0.648386 0.163947
H32   H     H_    0.825882 0.994158 0.464319 0.143830
O1    O     O_3   0.401745 0.337916 0.809012 -0.624309
C61   C     C_3   0.400720 0.419287 0.781641 0.269966
H33   H     H_    0.367279 0.466148 0.821659 0.102693
H34   H     H_    0.349938 0.380024 0.690745 0.106583
C62   C     C_3   0.518614 0.501947 0.819975 -0.873124
H35   H     H_    0.554625 0.459442 0.780009 0.259914
H36   H     H_    0.518881 0.565764 0.797871 0.213479
H37   H     H_    0.570196 0.542783 0.910885 0.250559
O2    O     O_3   0.617517 0.803808 0.351056 -0.630491
C63   C     C_3   0.640318 0.889414 0.448591 0.276449
H38   H     H_    0.660455 0.966134 0.444639 0.094239
H39   H     H_    0.708989 0.904275 0.522360 0.102298
C64   C     C_3   0.537684 0.856448 0.459926 -0.869928
H40   H     H_    0.512649 0.778300 0.461323 0.256661
H41   H     H_    0.555526 0.921900 0.537856 0.211743
H42   H     H_    0.468530 0.845104 0.389651 0.256873
H43   H     H_    0.680407 0.192310 0.534899 0.108597
H44   H     H_    0.321935 0.020440 0.519189 0.100479
O3    O     O_3   0.836730 0.384134 0.189051 -0.658575
C65   C     C_3   0.851538 0.480325 0.270199 0.216741
H45   H     H_    0.904782 0.503722 0.356154 0.111182
H46   H     H_    0.771226 0.468003 0.263416 0.084238
C66   C     C_3   0.904496 0.576745 0.255426 -0.933047
H47   H     H_    0.853050 0.557047 0.170541 0.256042
H48   H     H_    0.912622 0.651235 0.315941 0.235683
H49   H     H_    0.988269 0.594204 0.269483 0.251880
O4    O     O_3   0.216153 0.603269 0.803186 -0.675464
C67   C     C_3   0.125296 0.594781 0.818272 0.225352
H50   H     H_    0.059662 0.588490 0.748441 0.102955
H51   H     H_    0.152995 0.667272 0.896781 0.093392
C68   C     C_3   0.074157 0.490990 0.823477 -0.918670
H52   H     H_    0.135465 0.495185 0.894251 0.248826
H53   H     H_    0.001610 0.482729 0.833774 0.217212
H54   H     H_    0.046452 0.417339 0.746152 0.257729
O5    O     O_3   0.040099 0.014396 0.633982 -0.617017
C69   C     C_3   0.085543 0.947130 0.606096 0.290412
H55   H     H_    0.162923 0.971167 0.677803 0.055900
H56   H     H_    0.103769 0.951275 0.540652 0.130773
C70   C     C_3   0.001910 0.828185 0.562373 -0.928483
H57   H     H_    0.923105 0.800065 0.490326 0.269819
H58   H     H_    0.035275 0.774275 0.536710 0.212646
H59   H     H_    0.985326 0.821052 0.627703 0.253544
O6    O     O_3   0.997053 0.030840 0.441374 -0.619702
C71   C     C_3   0.017220 0.076010 0.376161 0.230787
H60   H     H_    0.953598 0.097350 0.344036 0.091016
H61   H     H_    0.017569 0.018734 0.305693 0.086442
C72   C     C_3   0.130579 0.180478 0.447110 -0.892131
H62   H     H_    0.196153 0.159652 0.472424 0.246473
H63   H     H_    0.144200 0.222013 0.399734 0.224252
H64   H     H_    0.136448 0.237729 0.522179 0.253483

loop_
_geom_bond_atom_site_label_1
_geom_bond_atom_site_label_2
_ccdc_geom_bond_type
N11   Ni1   S    
C68   H54   S    
C57   N15   A    
C9    H31   S    
C20   O6    S    
C66   H49   S    
N1    N15   A    
C3    C23   A    
O5    C69   S    
C69   C70   S    
N3    N13   A    
C61   H33   S    
C50   H24   S    
C66   H47   S    
C32   H12   S    
N9    Ni2   S    
C7    C26   S    
C57   H29   S    
N13   Ni4   S    
C38   H44   S    
C71   H60   S    
C35   C37   A    
C69   H56   S    
C1    C59   A    
N3    Ni2   S    
N14   Ni3   S    
C4    C24   A    
N5    N9    A    
C57   C59   A    
C58   C60   A    
C68   H52   S    
C55   N13   A    
C54   H28   S    
C66   H48   S    
C70   H59   S    
C21   C25   A    
C47   C60   S    
C46   H22   S    
C3    C55   A    
C71   H61   S    
N2    Ni2   S    
C35   H13   S    
C12   O2    S    
C53   N11   A    
C65   H45   S    
C64   H42   S    
C70   H57   S    
C67   C68   S    
C13   C28   S    
N12   Ni2   S    
C14   C27   S    
C30   C32   A    
C43   C47   A    
C18   C20   A    
C31   H11   S    
N4    N14   A    
C1    N1    A    
N8    Ni3   S    
N6    Ni4   S    
C4    C56   A    
C8    C25   S    
C41   C43   A    
C51   H25   S    
C42   C44   A    
C30   H10   S    
C9    C19   A    
C29   H9    S    
C36   C39   A    
C51   N9    A    
C37   C39   A    
N4    Ni1   S    
C50   N8    A    
N1    Ni1   S    
C44   H20   S    
C6    C40   S    
C69   H55   S    
C56   N14   A    
N5    Ni3   S    
C62   H37   S    
C8    C54   A    
C56   O4    S    
C3    C34   S    
N8    N12   A    
C5    C45   A    
C29   C34   A    
C52   N10   A    
C19   O5    S    
C23   N3    A    
C58   N16   A    
C32   C34   A    
C2    N2    A    
C24   N4    A    
C41   H15   S    
C58   H30   S    
C72   H62   S    
C22   H8    S    
C31   C33   A    
C72   H64   S    
C53   H27   S    
C16   C18   A    
C23   H17   S    
C10   H32   S    
C9    C11   A    
C7    C49   A    
O2    C63   S    
C10   C12   A    
C24   H18   S    
C17   H5    S    
C21   C28   A    
C12   C14   A    
C55   O3    S    
C22   C27   A    
C13   C15   A    
C64   H40   S    
C14   C16   A    
C18   H6    S    
C7    C53   A    
C63   H39   S    
O3    C65   S    
C45   N5    A    
C8    C50   A    
C48   C59   S    
O1    C61   S    
N16   Ni4   S    
N2    N16   A    
C68   H53   S    
C5    C39   S    
N15   Ni3   S    
C4    C33   S    
C36   H14   S    
N10   Ni1   S    
C6    C46   A    
C30   C33   A    
C42   H16   S    
C54   N12   A    
C71   C72   S    
C45   H21   S    
C67   H51   S    
C1    H1    S    
C61   H34   S    
O4    C67   S    
C15   C17   A    
C25   C27   A    
C26   C28   A    
C49   H23   S    
C63   C64   S    
C62   H36   S    
C72   H63   S    
C29   C31   A    
C62   H35   S    
C36   C38   A    
C38   C40   A    
N7    Ni4   S    
C11   C13   A    
C10   C20   A    
C65   C66   S    
C67   H50   S    
N6    N10   A    
C52   H26   S    
C17   C19   A    
C41   C48   A    
C37   H43   S    
C35   C40   A    
C2    C60   A    
C42   C47   A    
C70   H58   S    
C11   O1    S    
N7    N11   A    
C61   C62   S    
C49   N7    A    
C44   C48   A    
C46   N6    A    
C65   H46   S    
C22   C26   A    
O6    C71   S    
C64   H41   S    
C15   H3    S    
C5    C51   A    
C16   H4    S    
C6    C52   A    
C63   H38   S    
C43   H19   S    
C21   H7    S    
C2    H2    S    
