data_mof_unit_18996.cif
_audit_creation_date              2012-12-11T17:43:17-0500
_audit_creation_method            fapswitch 2.2
_symmetry_space_group_name_H-M    P1
_symmetry_Int_Tables_number       1
_space_group_crystal_system       triclinic
_cell_length_a                    15.04526
_cell_length_b                    15.068067
_cell_length_c                    16.967358
_cell_angle_alpha                 109.008857
_cell_angle_beta                  106.241361
_cell_angle_gamma                 108.995338
_cell_volume                      3102.23711042

loop_
_atom_site_label
_atom_site_type_symbol
_atom_type_description
_atom_site_fract_x
_atom_site_fract_y
_atom_site_fract_z
_atom_type_partial_charge
C1    C     C_R   0.084911 0.293338 0.084978 -0.134745
C2    C     C_R   0.910290 0.724859 0.970675 -0.110465
C3    C     C_R   0.026709 0.571481 0.741356 0.078590
C4    C     C_R   0.972899 0.538692 0.274083 0.060802
C5    C     C_R   0.756941 0.194103 0.727022 0.107066
C6    C     C_R   0.336754 0.779159 0.256266 0.129901
C7    C     C_R   0.286291 0.458556 0.966444 0.047923
C8    C     C_R   0.641145 0.435852 0.944161 0.117139
C9    C     C_R   0.910720 0.937512 0.057328 -0.218296
C10   C     C_R   0.093054 0.116204 0.114205 -0.220756
C11   C     C_R   0.002394 0.928914 0.064363 0.053360
C12   C     C_R   0.998162 0.119524 0.087717 0.045198
C13   C     C_R   0.095847 0.021525 0.096398 0.077304
C14   C     C_R   0.906705 0.032073 0.067651 0.077817
C15   C     C_R   0.716170 0.957634 0.970704 -0.172557
C16   C     C_R   0.282156 0.064179 0.177474 -0.218970
C17   C     C_R   0.616684 0.045149 0.016455 -0.212153
C18   C     C_R   0.377234 0.019743 0.089943 -0.220208
C19   C     C_R   0.476219 0.564284 0.270617 -0.212476
C20   C     C_R   0.497863 0.315830 0.638788 -0.239391
C21   C     C_R   0.480074 0.552111 0.186264 0.562915
C22   C     C_R   0.477683 0.314962 0.714563 0.541395
C23   C     C_R   0.935436 0.514610 0.744588 -0.116404
C24   C     C_R   0.064650 0.550628 0.264915 -0.119808
C25   C     C_R   0.441831 0.448959 0.115124 -0.114249
C26   C     C_R   0.474799 0.404331 0.774273 -0.084550
C27   C     C_R   0.408525 0.361869 0.132966 -0.199129
C28   C     C_R   0.486969 0.489468 0.753630 -0.231821
C29   C     C_R   0.406363 0.375698 0.217685 -0.104897
C30   C     C_R   0.505605 0.488246 0.677285 -0.070334
C31   C     C_R   0.439034 0.476628 0.286010 -0.152834
C32   C     C_R   0.511982 0.402019 0.620470 -0.157882
C33   C     C_R   0.520513 0.415442 0.010338 -0.192430
C34   C     C_R   0.377488 0.423142 0.870313 -0.181406
C35   C     C_R   0.537425 0.415821 0.933853 0.059800
C36   C     C_R   0.367211 0.434340 0.952121 0.088508
C37   C     C_R   0.462992 0.413207 0.860007 0.112902
C38   C     C_R   0.439301 0.429096 0.022650 0.119220
C39   C     C_R   0.622441 0.963408 0.952731 -0.074466
C40   C     C_R   0.373220 0.061394 0.174799 -0.149573
C41   C     C_R   0.964716 0.583532 0.361052 0.090439
C42   C     C_R   0.035291 0.608483 0.672571 0.120741
C43   C     C_R   0.140687 0.679261 0.602155 -0.137272
C44   C     C_R   0.860683 0.563715 0.446154 -0.133163
C45   C     C_R   0.775550 0.202597 0.814214 -0.020532
C46   C     C_R   0.282140 0.783405 0.177697 -0.103155
C47   C     C_R   0.133216 0.657699 0.674143 -0.064150
C48   C     C_R   0.867076 0.552509 0.363487 -0.056605
C49   C     C_R   0.945219 0.587764 0.600835 -0.212054
C50   C     C_R   0.055628 0.641922 0.444107 -0.221253
C51   C     C_R   0.951539 0.602452 0.525420 0.152023
C52   C     C_R   0.049922 0.645838 0.525230 0.152042
C53   C     C_R   0.713156 0.094571 0.643359 0.012812
C54   C     C_R   0.445535 0.848096 0.325148 0.070486
C55   C     C_R   0.610894 0.003233 0.390208 0.510068
C56   C     C_R   0.598441 0.906358 0.565228 0.587109
C57   C     C_R   0.514433 0.928149 0.315663 -0.243607
C58   C     C_R   0.668840 0.998554 0.645845 -0.249548
C59   C     C_R   0.479451 0.835364 0.404519 -0.156883
C60   C     C_R   0.703805 0.094382 0.559065 -0.135738
C61   C     C_R   0.571958 0.911900 0.480952 -0.067596
C62   C     C_R   0.632747 0.002698 0.476462 -0.062482
C63   C     C_R   0.704387 0.121364 0.099204 0.551031
C64   C     C_R   0.290946 0.982754 0.007385 0.586628
C65   C     C_R   0.799062 0.115960 0.117285 -0.313191
C66   C     C_R   0.199412 0.984648 0.010010 -0.298045
C67   C     C_R   0.260109 0.533535 0.950218 -0.002998
C68   C     C_R   0.699122 0.402362 0.993490 -0.111012
C69   C     C_R   0.805715 0.034570 0.052547 0.052372
C70   C     C_R   0.193845 0.022762 0.094786 0.036368
C71   C     C_R   0.780288 0.295084 0.734356 -0.112305
C72   C     C_R   0.273040 0.686976 0.252418 -0.138754
C73   C     C_R   0.242873 0.431469 0.021333 -0.136020
C74   C     C_R   0.704740 0.501413 0.920866 -0.115145
C75   C     C_R   0.108352 0.598949 0.822058 -0.141010
C76   C     C_R   0.890987 0.467749 0.187348 -0.042805
C77   C     C_R   0.913567 0.206109 0.004225 -0.131242
C78   C     C_R   0.083131 0.805000 0.053778 -0.113517
C79   C     C_R   0.997436 0.203131 0.061056 0.079237
C80   C     C_R   0.997574 0.823385 0.032982 0.061697
H1    H     H_    0.162000 0.325900 0.138968 0.100409
H2    H     H_    0.830034 0.708948 0.939320 0.101196
H3    H     H_    0.719681 0.894970 0.919473 0.141843
H4    H     H_    0.279326 0.095657 0.243418 0.149713
H5    H     H_    0.436698 0.487104 0.351473 0.179457
H6    H     H_    0.527166 0.401591 0.561674 0.149630
H7    H     H_    0.503037 0.642108 0.325045 0.207865
H8    H     H_    0.501982 0.249186 0.593176 0.170725
H9    H     H_    0.381774 0.282821 0.080155 0.158204
H10   H     H_    0.484584 0.558166 0.798194 0.151110
H11   H     H_    0.378753 0.307997 0.230148 0.138979
H12   H     H_    0.516071 0.554703 0.662627 0.139890
H13   H     H_    0.578052 0.418041 0.067586 0.159255
H14   H     H_    0.320573 0.424956 0.815891 0.131423
H15   H     H_    0.131671 0.672171 0.444682 0.140630
H16   H     H_    0.869183 0.551831 0.598995 0.124017
H17   H     H_    0.795359 0.511887 0.301082 0.156775
H18   H     H_    0.204110 0.674906 0.728262 0.127051
H19   H     H_    0.216694 0.712858 0.602866 0.164870
H20   H     H_    0.784618 0.532272 0.445757 0.148786
H21   H     H_    0.554504 0.905008 0.888701 0.160736
H22   H     H_    0.440353 0.090631 0.238475 0.196840
H23   H     H_    0.742388 0.167966 0.557947 0.178835
H24   H     H_    0.428388 0.772299 0.411331 0.180105
H25   H     H_    0.680843 0.995617 0.710416 0.179637
H26   H     H_    0.493068 0.933224 0.251441 0.181730
H27   H     H_    0.543964 0.049344 0.001164 0.188662
H28   H     H_    0.447378 0.016245 0.088499 0.196048
H29   H     H_    0.867668 0.175316 0.180612 0.179674
H30   H     H_    0.131981 0.955433 0.946491 0.184136
H31   H     H_    0.767009 0.141435 0.835234 0.087875
H32   H     H_    0.314318 0.836314 0.151467 0.113264
H33   H     H_    0.774018 0.317587 0.679593 0.104972
H34   H     H_    0.295214 0.647118 0.291026 0.105342
H35   H     H_    0.188635 0.656299 0.849495 0.148218
H36   H     H_    0.809119 0.442241 0.168376 0.158250
H37   H     H_    0.832135 0.154628 0.978558 0.118691
H38   H     H_    0.161670 0.858524 0.104446 0.123644
H39   H     H_    0.840572 0.869022 0.038996 0.142431
H40   H     H_    0.164966 0.183315 0.134100 0.126775
N1    N     N_R   0.055660 0.348550 0.045620 -0.045607
N2    N     N_R   0.944340 0.651450 0.954380 -0.045458
N3    N     N_R   0.960830 0.507850 0.823700 -0.048075
N4    N     N_R   0.039170 0.492150 0.176300 -0.048811
N5    N     N_R   0.811290 0.303410 0.871650 -0.044062
N6    N     N_R   0.188710 0.696590 0.128350 -0.050151
N7    N     N_R   0.205200 0.552990 0.997670 -0.040814
N8    N     N_R   0.794800 0.447010 0.002330 -0.055207
N9    N     N_R   0.814800 0.361830 0.823700 -0.045694
N10   N     N_R   0.185200 0.638170 0.176300 -0.046777
N11   N     N_R   0.201680 0.494570 0.045620 -0.040890
N12   N     N_R   0.798320 0.505430 0.954380 -0.046803
N13   N     N_R   0.068420 0.560530 0.871650 -0.050909
N14   N     N_R   0.931580 0.439470 0.128350 -0.053426
N15   N     N_R   0.948070 0.295860 0.997670 -0.051190
N16   N     N_R   0.051930 0.704140 0.002330 -0.045420
Ni1   Ni    Ni4+2 0.119340 0.493420 0.109960 0.222162
Ni2   Ni    Ni4+2 0.880660 0.506580 0.890040 0.223399
Ni3   Ni    Ni4+2 0.872590 0.372590 0.000000 0.246957
Ni4   Ni    Ni4+2 0.127410 0.627410 0.000000 0.251223
S1    S     S_3+6 0.536135 0.667568 0.174613 -0.052093
O1    O     O_2   0.590720 0.651894 0.113253 -0.297433
O2    O     O_2   0.452035 0.693939 0.133874 -0.317439
O3    O     O_3   0.622858 0.768756 0.279378 -0.531282
H41   H     H_    0.652809 0.829354 0.267459 0.397807
S2    S     S_3+6 0.452512 0.199532 0.729364 -0.021738
O4    O     O_2   0.408293 0.104826 0.637571 -0.241193
O5    O     O_2   0.552940 0.210317 0.791497 -0.337347
O6    O     O_3   0.366590 0.180559 0.775473 -0.487367
H42   H     H_    0.404362 0.184696 0.835663 0.382452
H43   H     H_    0.856825 0.493006 0.699987 0.097355
H44   H     H_    0.143568 0.599627 0.317621 0.113312
S3    S     S_3+6 0.702680 0.093491 0.372769 -0.019198
O7    O     O_2   0.689804 0.192238 0.394921 -0.248816
O8    O     O_2   0.811333 0.120947 0.434648 -0.295774
O9    O     O_3   0.682960 0.037587 0.261886 -0.506501
H45   H     H_    0.752317 0.069770 0.262823 0.384033
S4    S     S_3+6 0.537755 0.790442 0.575167 -0.065575
O10   O     O_2   0.429981 0.772518 0.565058 -0.319741
O11   O     O_2   0.530632 0.696969 0.500765 -0.330469
O12   O     O_3   0.606890 0.803940 0.679029 -0.551397
H46   H     H_    0.560690 0.744511 0.684611 0.360351
S5    S     S_3+6 0.694161 0.222724 0.179023 -0.046376
O13   O     O_2   0.623879 0.176503 0.217891 -0.238969
O14   O     O_2   0.799391 0.302942 0.256897 -0.270247
O15   O     O_3   0.641832 0.282103 0.125939 -0.602464
H47   H     H_    0.566154 0.233251 0.091750 0.348995
S6    S     S_3+6 0.298049 0.934888 0.901215 -0.071776
O16   O     O_2   0.190930 0.875539 0.822625 -0.287077
O17   O     O_2   0.363369 0.026856 0.891784 -0.302917
O18   O     O_3   0.353982 0.854597 0.899160 -0.589032
H48   H     H_    0.364770 0.839086 0.842194 0.363429
H49   H     H_    0.283329 0.573319 0.911302 0.097658
H50   H     H_    0.670201 0.338912 0.010345 0.163193
H51   H     H_    0.242672 0.371919 0.043128 0.122481
H52   H     H_    0.682795 0.535029 0.875988 0.105998

loop_
_geom_bond_atom_site_label_1
_geom_bond_atom_site_label_2
_ccdc_geom_bond_type
O18   H48   S    
C63   C65   A    
C3    C42   S    
C31   H5    S    
C46   H32   S    
C27   C29   A    
C34   C37   A    
C11   C13   A    
C7    C36   S    
C3    C23   A    
S5    O13   D    
C16   H4    S    
N16   Ni4   S    
C19   C31   A    
C73   N11   A    
O12   H46   S    
O6    H42   S    
C7    C73   A    
C66   C70   A    
N5    Ni3   S    
N15   Ni3   S    
C48   H17   S    
N3    Ni2   S    
N6    Ni4   S    
C47   H18   S    
C21   C25   A    
N3    N13   A    
C59   H24   S    
C5    C53   S    
O9    H45   S    
S5    O14   D    
N8    Ni3   S    
C43   H19   S    
C74   N12   A    
C77   H37   S    
C17   H27   S    
C4    C24   A    
C78   C80   A    
C43   C52   A    
C13   C70   S    
N6    N10   A    
N12   Ni2   S    
C55   C62   A    
C72   H34   S    
C24   N4    A    
C71   H33   S    
C60   C62   A    
C17   C39   A    
N1    Ni1   S    
C18   C40   A    
C56   S4    S    
C24   H44   S    
S4    O12   S    
C33   C35   A    
S6    O18   S    
N9    Ni2   S    
C22   S2    S    
C45   N5    A    
C49   C51   A    
C50   C52   A    
S3    O8    D    
C60   H23   S    
C3    C75   A    
C68   N8    A    
C77   C79   A    
C57   H26   S    
C4    C41   S    
S4    O11   D    
C6    C54   S    
N8    N12   A    
C53   C60   A    
C39   H21   S    
S2    O5    D    
C54   C59   A    
C2    N2    A    
C15   C69   A    
C59   C61   A    
C51   C52   A    
N4    Ni1   S    
S5    O15   S    
C16   C70   A    
N2    Ni2   S    
C30   H12   S    
S1    O3    S    
N14   Ni3   S    
C68   H50   S    
C15   H3    S    
C40   H22   S    
C5    C45   A    
N1    N15   A    
C8    C35   S    
C64   C66   A    
S4    O10   D    
C73   H51   S    
C6    C72   A    
C9    C14   A    
C74   H52   S    
N11   Ni1   S    
C67   N7    A    
C25   C38   S    
C71   N9    A    
S2    O6    S    
C32   H6    S    
C8    C74   A    
C64   S6    S    
C66   H30   S    
S3    O9    S    
C9    C11   A    
C15   C39   A    
C10   C12   A    
C16   C40   A    
C44   C51   A    
S6    O16   D    
C78   H38   S    
C20   C22   A    
C8    C68   A    
C43   C47   A    
C55   C57   A    
O15   H47   S    
C9    H39   S    
C14   C69   S    
C2    H2    S    
C75   H35   S    
N7    Ni4   S    
N2    N16   A    
C63   S5    S    
C36   C38   A    
C41   C50   A    
C29   H11   S    
C1    C79   A    
S2    O4    D    
C20   C32   A    
C55   S3    S    
C23   H43   S    
C76   N14   A    
C6    C46   A    
C1    N1    A    
C35   C37   A    
C46   N6    A    
C34   H14   S    
C12   C14   A    
O3    H41   S    
C10   C13   A    
C33   H13   S    
C23   N3    A    
C53   C58   A    
C75   N13   A    
C26   C37   S    
C72   N10   A    
C25   C27   A    
C26   C28   A    
C33   C38   A    
N4    N14   A    
C58   H25   S    
N7    N11   A    
S1    O2    D    
C19   H7    S    
C21   S1    S    
C29   C31   A    
C45   H31   S    
C17   C63   A    
C30   C32   A    
C44   H20   S    
C18   C64   A    
C65   H29   S    
C78   N16   A    
C67   H49   S    
C65   C69   A    
C20   H8    S    
C28   C30   A    
C76   H36   S    
C41   C48   A    
C56   C58   A    
C27   H9    S    
C34   C36   A    
C42   C47   A    
C49   H16   S    
C61   C62   A    
C50   H15   S    
C18   H28   S    
C4    C76   A    
C2    C80   A    
C11   C80   S    
C42   C49   A    
C7    C67   A    
N5    N9    A    
N13   Ni4   S    
C5    C71   A    
C22   C26   A    
S6    O17   D    
C56   C61   A    
C28   H10   S    
C77   N15   A    
S3    O7    D    
S1    O1    D    
N10   Ni1   S    
C1    H1    S    
C10   H40   S    
C44   C48   A    
C12   C79   S    
C19   C21   A    
C54   C57   A    
