data_mof_unit_49247.cif
_audit_creation_date              2012-12-11T20:37:11-0500
_audit_creation_method            fapswitch 2.2
_symmetry_space_group_name_H-M    P1
_symmetry_Int_Tables_number       1
_space_group_crystal_system       triclinic
_cell_length_a                    8.301025
_cell_length_b                    18.753934
_cell_length_c                    22.831551
_cell_angle_alpha                 97.408955
_cell_angle_beta                  89.810539
_cell_angle_gamma                 93.299187
_cell_volume                      3518.79730291

loop_
_atom_site_label
_atom_site_type_symbol
_atom_type_description
_atom_site_fract_x
_atom_site_fract_y
_atom_site_fract_z
_atom_type_partial_charge
Ba1   Ba    Ba6+2 0.849480 0.533290 0.473010 1.702572
Ba2   Ba    Ba6+2 0.340340 0.466770 0.527000 1.690298
C1    C     C_3   0.612133 0.799665 0.329400 -0.328897
C2    C     C_3   0.589955 0.723301 0.344874 0.292717
C3    C     C_3   0.510152 0.377273 0.348410 0.305281
C4    C     C_3   0.477199 0.366034 0.281916 -0.312816
C5    C     C_3   0.986693 0.301156 0.677040 0.222104
C6    C     C_3   0.942895 0.265670 0.731733 -0.276486
C7    C     C_3   0.474070 0.284089 0.685739 0.327524
C8    C     C_3   0.368454 0.277288 0.740884 0.309930
C9    C     C_R   0.332565 0.527439 0.335222 -0.297702
C10   C     C_R   0.078685 0.568971 0.943370 -0.038051
C11   C     C_R   0.035296 0.564860 0.882970 0.598770
C12   C     C_3   0.090118 0.696935 0.325146 0.302828
C13   C     C_R   0.973776 0.437672 0.878170 0.605227
C14   C     C_R   0.017282 0.439885 0.938523 -0.039576
C15   C     C_R   0.069050 0.506108 0.971312 -0.047763
C16   C     C_R   0.130732 0.634767 0.976626 -0.056740
C17   C     C_R   0.171989 0.638135 0.036345 -0.064672
C18   C     C_R   0.163232 0.575796 0.064936 -0.024503
C19   C     C_R   0.111799 0.509505 0.032228 -0.047796
C20   C     C_R   0.010321 0.377400 0.966956 -0.046435
C21   C     C_R   0.053037 0.380673 0.026629 -0.051638
C22   C     C_R   0.103830 0.446580 0.060100 -0.029995
C23   C     C_3   0.085529 0.730021 0.267932 -0.300758
C24   C     C_R   0.148069 0.450823 0.120545 0.592942
C25   C     C_R   0.204883 0.578427 0.125401 0.586855
C26   C     C_2   0.776343 0.479569 0.771942 -0.053289
C27   C     C_3   0.723887 0.486010 0.708847 -0.061307
C28   C     C_1   0.003795 0.515332 0.686785 0.016063
C29   C     C_2   0.050237 0.518076 0.742985 -0.077096
C30   C     C_2   0.931924 0.497616 0.789138 0.212669
C31   C     C_R   0.395999 0.549211 0.234868 -0.093019
C32   C     C_R   0.440281 0.552627 0.294471 -0.028082
C33   C     C_R   0.183357 0.494594 0.317012 0.061849
C34   C     C_3   0.253822 0.681667 0.683310 0.251001
C35   C     C_R   0.136469 0.493073 0.257167 -0.114755
C36   C     C_R   0.242148 0.520179 0.215314 0.215062
C37   C     C_2   0.866815 0.481539 0.667915 -0.281842
C38   C     C_2   0.387262 0.702396 0.488883 -0.291053
C39   C     C_3   0.250109 0.752073 0.495589 0.147069
C40   C     C_2   0.311780 0.829538 0.492021 -0.047340
C41   C     C_2   0.470620 0.849927 0.501326 -0.046436
C42   C     C_2   0.584297 0.793409 0.511358 -0.091860
C43   C     C_1   0.528235 0.725986 0.511905 0.096285
C44   C     C_R   0.642829 0.067065 0.507928 0.444569
C45   C     C_3   0.229204 0.759357 0.712225 0.668133
C46   C     C_R   0.531545 0.926645 0.503280 0.483997
C47   C     C_R   0.611844 0.191623 0.482198 -0.119784
C48   C     C_R   0.667962 0.263345 0.482233 0.027733
C49   C     C_R   0.905782 0.242589 0.536857 0.010403
C50   C     C_R   0.850598 0.170137 0.537588 -0.144237
C51   C     C_R   0.702504 0.143803 0.509772 -0.063868
C52   C     C_R   0.812220 0.288710 0.510430 -0.257352
C53   C     C_3   0.970344 0.296675 0.346880 0.392077
C54   C     C_3   0.056163 0.227927 0.360278 0.318323
C55   C     C_3   0.683611 0.627541 0.653340 0.317841
C56   C     C_3   0.650876 0.645304 0.719637 -0.311973
H1    H     H_    0.632611 0.723756 0.390975 0.047808
H2    H     H_    0.317885 0.772169 0.748991 -0.073619
H3    H     H_    0.891325 0.314972 0.384643 -0.113230
H4    H     H_    0.140281 0.247732 0.397614 0.057295
H5    H     H_    0.814331 0.620973 0.646295 0.060224
H6    H     H_    0.613328 0.576715 0.636362 0.010028
H7    H     H_    0.741490 0.818489 0.333383 0.130513
H8    H     H_    0.648777 0.704323 0.733171 0.189867
H9    H     H_    0.745825 0.624708 0.745856 0.130750
H10   H     H_    0.533032 0.619693 0.731172 0.040338
H11   H     H_    0.459119 0.706590 0.341646 -0.008544
H12   H     H_    0.540608 0.836176 0.360148 0.082404
H13   H     H_    0.404392 0.401063 0.371404 0.027568
H14   H     H_    0.616401 0.415619 0.357113 0.052916
H15   H     H_    0.518620 0.313772 0.260754 0.177959
H16   H     H_    0.346570 0.367675 0.273122 0.167050
H17   H     H_    0.539888 0.409710 0.260589 0.034849
H18   H     H_    0.570256 0.801437 0.283474 0.139746
H19   H     H_    0.038018 0.688937 0.231885 0.128394
H20   H     H_    0.035292 0.357084 0.691022 0.056631
H21   H     H_    0.873557 0.302682 0.651507 0.013854
H22   H     H_    0.040478 0.275339 0.765142 0.132177
H23   H     H_    0.833476 0.288698 0.752447 0.209233
H24   H     H_    0.919547 0.206741 0.719572 0.134432
H25   H     H_    0.396563 0.297942 0.649823 0.083137
H26   H     H_    0.279789 0.230872 0.732224 0.023696
H27   H     H_    0.299256 0.326289 0.750085 0.014726
H28   H     H_    0.967412 0.673678 0.333034 0.116035
H29   H     H_    0.045777 0.331192 0.046552 0.138166
H30   H     H_    0.971677 0.325543 0.943092 0.154482
H31   H     H_    0.211023 0.689989 0.060110 0.134315
H32   H     H_    0.481339 0.568594 0.203761 0.108100
H33   H     H_    0.139368 0.684158 0.956578 0.146733
H34   H     H_    0.174302 0.533836 0.755726 0.103015
H35   H     H_    0.686129 0.467655 0.804327 0.127137
H36   H     H_    0.019018 0.470530 0.242621 0.104583
H37   H     H_    0.369339 0.529397 0.380834 0.076203
H38   H     H_    0.175912 0.653384 0.320081 -0.002914
H39   H     H_    0.859339 0.448817 0.625018 0.066642
H40   H     H_    0.224594 0.869087 0.486225 0.107642
H41   H     H_    0.709943 0.808549 0.521877 0.135225
H42   H     H_    0.499339 0.173248 0.459831 0.125093
H43   H     H_    0.923222 0.134829 0.558987 0.115336
H44   H     H_    0.370242 0.648132 0.465656 0.050076
H45   H     H_    0.854745 0.344338 0.510256 0.065174
H46   H     H_    0.004938 0.775580 0.272798 0.128780
H47   H     H_    0.208707 0.749811 0.256351 0.144319
H48   H     H_    0.264030 0.647604 0.720728 -0.044337
H49   H     H_    0.369580 0.681454 0.657598 0.025569
N1    N     N_R   0.981536 0.499903 0.850986 -0.434577
N2    N     N_R   0.196035 0.516463 0.153016 -0.423654
N3    N     N_R   0.490294 0.045644 0.489227 -0.234227
N4    N     N_R   0.435709 0.977106 0.487086 -0.231652
N5    N     N_R   0.684241 0.947959 0.521900 -0.216488
N6    N     N_R   0.738680 0.016650 0.524285 -0.224391
O1    O     O_2   0.898140 0.461210 0.359840 -0.492300
O2    O     O_3   0.639369 0.685258 0.625202 -0.595729
O3    O     O_3   0.141445 0.750196 0.371308 -0.628657
O4    O     O_2   0.291560 0.538810 0.640200 -0.501618
O5    O     O_3   0.051160 0.538120 0.569110 -0.461263
O6    O     O_3   0.535440 0.410410 0.602240 -0.467870
O7    O     O_3   0.126367 0.654907 0.642812 -0.579038
O8    O     O_3   0.632100 0.415050 0.468960 -0.487309
O9    O     O_3   0.124670 0.374100 0.572690 -0.472469
O10   O     O_2   0.245936 0.245764 0.541053 -0.488970
O11   O     O_3   0.104464 0.262119 0.644373 -0.631430
O12   O     O_3   0.138540 0.461940 0.430900 -0.474034
O13   O     O_3   0.557600 0.585010 0.531050 -0.497967
O14   O     O_2   0.379790 0.327560 0.468300 -0.440805
O15   O     O_3   0.539977 0.311566 0.368501 -0.608957
O16   O     O_2   0.390438 0.438805 0.706985 -0.517204
O17   O     O_3   0.600141 0.336951 0.699895 -0.616165
O18   O     O_2   0.043886 0.619514 0.859065 -0.530506
O19   O     O_2   0.930233 0.380170 0.849769 -0.564500
O20   O     O_2   0.146564 0.395737 0.143879 -0.600654
O21   O     O_2   0.248625 0.636158 0.153489 -0.608696
O22   O     O_3   0.654260 0.589640 0.397760 -0.489826
O23   O     O_2   0.777400 0.545348 0.292186 -0.502361
O24   O     O_3   0.097008 0.348828 0.341370 -0.621016
O25   O     O_3   0.680820 0.677362 0.305866 -0.600127
O26   O     O_2   0.809910 0.672460 0.531740 -0.439569
O27   O     O_3   0.065030 0.625960 0.427320 -0.495291
O28   O     O_2   0.926300 0.750218 0.454237 -0.490193
P1    P     P_3+3 0.069200 0.440380 0.368230 0.994456
P2    P     P_3+3 0.634560 0.662100 0.548650 1.062153
P3    P     P_3+3 0.092939 0.719831 0.439011 0.969349
P4    P     P_3+3 0.120500 0.559680 0.631780 1.026514
P5    P     P_3+3 0.097193 0.280485 0.571339 0.943281
P6    P     P_3+3 0.639661 0.589276 0.321457 0.935376
P7    P     P_3+3 0.558265 0.326603 0.445398 0.978970
P8    P     P_3+3 0.556575 0.420875 0.679420 0.960507
S1    S     S_3+6 0.268241 0.825029 0.662645 -0.036373
O29   O     O_2   0.149463 0.812568 0.612095 -0.282183
O30   O     O_2   0.251057 0.899409 0.695269 -0.217800
O31   O     O_3   0.457013 0.819785 0.636338 -0.546421
H50   H     H_    0.527155 0.823228 0.671934 0.335900
S2    S     S_3+6 0.033183 0.769588 0.743068 0.000848
O32   O     O_2   0.990198 0.709082 0.778269 -0.284616
O33   O     O_2   0.033445 0.839760 0.783177 -0.228498
O34   O     O_3   0.896687 0.769231 0.688589 -0.489965
H51   H     H_    0.867840 0.820058 0.689396 0.373074
C57   C     C_3   0.868167 0.279278 0.288776 -0.202175
C58   C     C_3   0.877966 0.336119 0.246880 -0.338853
H52   H     H_    0.826069 0.386135 0.267446 0.123726
H53   H     H_    0.004831 0.346115 0.233658 0.208610
H54   H     H_    0.806543 0.316405 0.206394 0.124840
H55   H     H_    0.901882 0.228729 0.262319 0.158339
H56   H     H_    0.740628 0.269414 0.299845 0.105275
S3    S     S_3+6 0.187831 0.190393 0.301767 -0.065200
O35   O     O_2   0.350568 0.180963 0.327678 -0.265381
O36   O     O_2   0.119242 0.117877 0.274079 -0.299469
O37   O     O_3   0.211503 0.244676 0.248751 -0.522596
H57   H     H_    0.215031 0.211746 0.210907 0.369403
C59   C     C_3   0.949600 0.167579 0.383782 -0.297153
C60   C     C_3   0.796908 0.139366 0.348865 -0.363642
H58   H     H_    0.745692 0.090630 0.366802 0.150097
H59   H     H_    0.822253 0.124073 0.301364 0.188327
H60   H     H_    0.703719 0.179634 0.354717 0.141640
H61   H     H_    0.025063 0.121442 0.388600 0.185752
H62   H     H_    0.912446 0.187791 0.428315 0.063485
C61   C     C_3   0.550330 0.213200 0.661241 -0.258175
C62   C     C_3   0.429295 0.149228 0.644459 -0.387133
H63   H     H_    0.492776 0.104314 0.619957 0.156949
H64   H     H_    0.376052 0.129403 0.684373 0.180119
H65   H     H_    0.332019 0.163674 0.615908 0.175682
H66   H     H_    0.619063 0.223182 0.621062 0.100493
H67   H     H_    0.638023 0.197939 0.693125 0.173264
S4    S     S_3+6 0.475999 0.268342 0.807249 -0.024226
O38   O     O_2   0.567605 0.201036 0.799646 -0.241198
O39   O     O_2   0.590783 0.332593 0.823675 -0.264512
O40   O     O_3   0.342113 0.263049 0.862155 -0.453912
H68   H     H_    0.286549 0.308892 0.865305 0.323987

loop_
_geom_bond_atom_site_label_1
_geom_bond_atom_site_label_2
_ccdc_geom_bond_type
C59   H61   S    
O6    P8    S    
C53   C54   S    
C8    H27   S    
S2    O33   D    
C39   C40   S    
C17   C18   A    
C5    O11   S    
O24   P1    S    
C58   H52   S    
Ba2   O5    S    
C23   H47   S    
C4    H17   S    
C55   O2    S    
C60   H58   S    
C42   C43   D    
Ba2   P4    S    
C48   C52   A    
C4    H15   S    
C23   H19   S    
C16   H33   S    
O1    P1    D    
C26   C27   S    
C33   C35   A    
C22   C24   A    
C16   C17   A    
C3    H14   S    
C3    O15   S    
C40   H40   S    
C3    C4    S    
C42   H41   S    
C12   O3    S    
C37   H39   S    
O37   H57   S    
C59   H62   S    
C13   C14   A    
O13   P2    S    
C2    H1    S    
C34   C45   S    
O4    P4    D    
Ba1   Ba2   S    
N3    N4    A    
N5    N6    A    
Ba1   P1    S    
C8    S4    S    
C45   H2    S    
O3    P3    S    
O26   P2    D    
C56   H8    S    
C13   O19   D    
C14   C15   A    
S1    O31   S    
C10   C15   A    
C28   C37   D    
C21   C22   A    
C45   S1    S    
C55   H5    S    
C38   H44   S    
C20   H30   S    
C7    C8    S    
O12   P1    S    
Ba1   O26   S    
C62   H65   S    
O14   P7    D    
Ba2   O14   S    
C60   H59   S    
O7    P4    S    
C21   H29   S    
C54   C59   S    
C34   H49   S    
C1    H7    S    
C11   N1    Am   
C12   H38   S    
C2    H11   S    
C58   H53   S    
Ba2   O4    S    
C62   H64   S    
C4    H16   S    
S3    O37   S    
Ba2   O9    S    
C38   C43   D    
O2    P2    S    
C50   H43   S    
C34   H48   S    
C49   C50   A    
C52   H45   S    
C26   C30   D    
C1    H12   S    
Ba1   O13   S    
C12   H28   S    
C39   P3    S    
S3    O36   D    
O28   P3    D    
S3    O35   D    
O15   P7    S    
C49   P5    S    
C7    O17   S    
O11   P5    S    
C15   C19   A    
C6    H23   S    
C26   H35   S    
C13   N1    Am   
C41   C42   S    
O16   P8    D    
C35   C36   A    
C17   H31   S    
C32   P6    S    
C29   C30   S    
O10   P5    D    
O25   P6    S    
C6    H22   S    
C27   C37   S    
O17   P8    S    
C44   C51   S    
C31   C32   A    
C11   O18   D    
O8    P7    S    
C55   H6    S    
C57   H55   S    
C10   C11   A    
C36   N2    S    
C1    H18   S    
C24   N2    Am   
Ba1   O27   S    
C7    H25   S    
C5    H20   S    
Ba2   O13   S    
C56   H10   S    
C38   C39   S    
C46   N5    A    
C47   C48   A    
C57   H56   S    
C44   N3    A    
C30   N1    S    
O34   H51   S    
S1    O30   D    
Ba1   O1    S    
S4    O39   D    
C1    C2    S    
C58   H54   S    
C59   C60   S    
C28   P4    S    
C5    H21   S    
C61   H66   S    
C41   C46   S    
Ba2   O8    S    
C48   P7    S    
C53   C57   S    
C14   C20   A    
C44   N6    A    
C20   C21   A    
C25   O21   D    
O5    P4    S    
C9    C32   A    
O27   P3    S    
Ba1   O12   S    
C7    C61   S    
Ba2   O6    S    
C23   H46   S    
C61   H67   S    
C18   C25   A    
Ba1   P2    S    
O22   P6    S    
C31   C36   A    
C53   O24   S    
C49   C52   A    
C57   C58   S    
S4    O40   S    
C9    C33   A    
O31   H50   S    
C3    H13   S    
C24   O20   D    
C31   H32   S    
C47   H42   S    
C55   C56   S    
C28   C29   D    
C45   S2    S    
C47   C51   A    
C53   H3    S    
C54   S3    S    
C8    H26   S    
C60   H60   S    
C35   H36   S    
C54   H4    S    
Ba1   O5    S    
O9    P5    S    
C12   C23   S    
O40   H68   S    
C34   O7    S    
Ba1   O8    S    
O23   P6    D    
C5    C6    S    
C33   P1    S    
C27   P8    S    
C61   C62   S    
Ba2   O12   S    
C56   H9    S    
C6    H24   S    
C46   N4    A    
C9    H37   S    
C18   C19   A    
C25   N2    Am   
C29   H34   S    
C40   C41   D    
C19   C22   A    
C10   C16   A    
S2    O32   D    
C43   P2    S    
S1    O29   D    
S4    O38   D    
Ba1   O22   S    
C2    O25   S    
C62   H63   S    
C50   C51   A    
S2    O34   S    
