data_mof_unit_67080.cif
_audit_creation_date              2012-12-11T17:41:23-0500
_audit_creation_method            fapswitch 2.2
_symmetry_space_group_name_H-M    P1
_symmetry_Int_Tables_number       1
_space_group_crystal_system       triclinic
_cell_length_a                    8.236136
_cell_length_b                    12.748766
_cell_length_c                    14.30921
_cell_angle_alpha                 93.208819
_cell_angle_beta                  91.006655
_cell_angle_gamma                 98.579466
_cell_volume                      1482.82182279

loop_
_atom_site_label
_atom_site_type_symbol
_atom_type_description
_atom_site_fract_x
_atom_site_fract_y
_atom_site_fract_z
_atom_type_partial_charge
Ba1   Ba    Ba6+2 0.855630 0.555280 0.454520 1.682773
Ba2   Ba    Ba6+2 0.334200 0.444810 0.545490 1.694211
C1    C     C_3   0.582187 0.941819 0.179668 -0.412722
C2    C     C_R   0.181300 0.499332 0.196682 0.039672
C3    C     C_R   0.336701 0.550080 0.227195 -0.290987
C4    C     C_3   0.132319 0.807314 0.203100 0.311898
C5    C     C_R   0.445193 0.602712 0.165749 0.004867
C6    C     C_R   0.395740 0.611404 0.073214 -0.127326
C7    C     C_R   0.242710 0.559466 0.038308 -0.021369
C8    C     C_R   0.133666 0.501481 0.099648 -0.028023
C9    C     C_R   0.051324 0.508208 0.903785 0.005619
C10   C     C_R   0.939469 0.453570 0.965931 0.029659
C11   C     C_R   0.007718 0.505065 0.805746 0.062160
C12   C     C_3   0.631801 0.857241 0.240438 0.331856
C13   C     C_R   0.853721 0.452074 0.774959 -0.197850
C14   C     C_R   0.741746 0.404058 0.837124 0.069127
C15   C     C_R   0.784776 0.403152 0.931808 -0.080491
C16   C     C_3   0.120077 0.847738 0.105933 -0.268910
C17   C     C_R   0.200692 0.563204 0.942285 0.023061
C18   C     C_R   0.765840 0.177016 0.538333 -0.267127
C19   C     C_R   0.419173 0.816327 0.475864 -0.279198
C20   C     C_R   0.400184 0.995826 0.438024 -0.104165
C21   C     C_R   0.332538 0.889379 0.436854 0.004328
C22   C     C_R   0.571032 0.848905 0.521275 0.023481
C23   C     C_3   0.474264 0.306277 0.260740 0.306346
C24   C     C_R   0.637656 0.959031 0.528892 -0.047061
C25   C     C_R   0.551872 0.032804 0.484376 -0.050651
C26   C     C_R   0.618940 0.141819 0.488466 0.039062
C27   C     C_R   0.853572 0.105823 0.580040 -0.010189
C28   C     C_3   0.120255 0.769680 0.679102 0.273799
C29   C     C_R   0.787344 0.997738 0.577783 -0.099148
C30   C     C_3   0.174790 0.886677 0.709120 0.420819
C31   C     C_3   0.966919 0.239357 0.344438 0.285035
C32   C     C_3   0.932939 0.120237 0.321492 -0.382228
C33   C     C_3   0.567103 0.770060 0.739827 0.376128
C34   C     C_3   0.455150 0.283368 0.155284 -0.388726
C35   C     C_3   0.607466 0.800395 0.842705 0.263974
C36   C     C_3   0.064509 0.221265 0.806248 0.466119
C37   C     C_3   0.092292 0.202177 0.909132 -0.255964
C38   C     C_3   0.577182 0.150150 0.780404 0.385917
C39   C     C_3   0.669949 0.105172 0.857604 -0.406537
C40   C     C_R   0.982365 0.448876 0.061554 -0.030285
H1    H     H_    0.714024 0.896201 0.298696 0.066540
H2    H     H_    0.511401 0.834953 0.710268 -0.166959
H3    H     H_    0.514490 0.996243 0.221650 0.111145
H4    H     H_    0.677417 0.881171 0.850096 0.029805
H5    H     H_    0.492637 0.801033 0.881496 0.036981
H6    H     H_    0.518821 0.816027 0.271674 -0.063742
H7    H     H_    0.502497 0.903225 0.120389 0.117174
H8    H     H_    0.356486 0.326590 0.287524 0.014239
H9    H     H_    0.573220 0.375099 0.274512 0.055452
H10   H     H_    0.353910 0.216584 0.138919 0.132045
H11   H     H_    0.426189 0.354790 0.121309 0.061861
H12   H     H_    0.301244 0.913194 0.686722 -0.060083
H13   H     H_    0.571129 0.261935 0.126645 0.119628
H14   H     H_    0.692696 0.988123 0.150467 0.119101
H15   H     H_    0.120095 0.780678 0.053128 0.159811
H16   H     H_    0.151923 0.291886 0.789872 0.069979
H17   H     H_    0.938044 0.238825 0.795711 -0.172969
H18   H     H_    0.066944 0.271263 0.953600 0.002990
H19   H     H_    0.010013 0.131049 0.929798 0.126229
H20   H     H_    0.221397 0.191970 0.923205 0.180126
H21   H     H_    0.667022 0.189094 0.731177 -0.085907
H22   H     H_    0.501680 0.083525 0.739004 0.083993
H23   H     H_    0.096326 0.934997 0.672790 -0.014299
H24   H     H_    0.732199 0.170554 0.905806 0.087801
H25   H     H_    0.762686 0.060813 0.825615 0.123602
H26   H     H_    0.034258 0.738273 0.208236 0.117897
H27   H     H_    0.585481 0.050994 0.898917 0.160871
H28   H     H_    0.375808 0.545928 0.299318 0.064848
H29   H     H_    0.476967 0.658479 0.028631 0.165024
H30   H     H_    0.696668 0.364104 0.978853 0.047666
H31   H     H_    0.817848 0.451331 0.701774 0.051395
H32   H     H_    0.896689 0.402770 0.105284 0.090489
H33   H     H_    0.286442 0.608369 0.897917 0.129520
H34   H     H_    0.854823 0.266914 0.371393 0.007276
H35   H     H_    0.330981 0.048420 0.403236 0.103531
H36   H     H_    0.853218 0.944856 0.613706 0.089817
H37   H     H_    0.816233 0.260546 0.541002 0.056067
H38   H     H_    0.254126 0.781474 0.212236 -0.063582
H39   H     H_    0.366261 0.733186 0.472208 0.070276
H40   H     H_    0.004979 0.882078 0.098016 0.145760
H41   H     H_    0.224837 0.910666 0.094362 0.112666
H42   H     H_    0.147120 0.756174 0.603929 -0.051097
H43   H     H_    0.988819 0.749882 0.690833 0.120412
H44   H     H_    0.968596 0.940079 0.926473 0.343890
H45   H     H_    0.066189 0.255516 0.398808 0.080639
H46   H     H_    0.752028 0.825290 0.011187 0.306154
H47   H     H_    0.824796 0.101410 0.273140 0.113825
H48   H     H_    0.907509 0.077238 0.385981 0.085492
H49   H     H_    0.041182 0.093142 0.287929 0.155641
H50   H     H_    0.483759 0.695090 0.734795 0.096052
O1    O     O_2   0.887370 0.460630 0.272300 -0.472546
O2    O     O_2   0.197235 0.111936 0.578372 -0.489266
O3    O     O_3   0.089894 0.131767 0.749317 -0.541032
O4    O     O_3   0.129410 0.451380 0.388510 -0.497878
O5    O     O_3   0.575400 0.626570 0.547370 -0.474894
O6    O     O_2   0.344320 0.238700 0.455090 -0.473736
O7    O     O_3   0.514636 0.215930 0.302159 -0.649176
O8    O     O_2   0.404084 0.410043 0.834028 -0.475056
O9    O     O_3   0.471855 0.216437 0.821046 -0.581457
O10   O     O_3   0.670210 0.653170 0.329170 -0.487786
O11   O     O_2   0.784530 0.595594 0.166018 -0.449899
O12   O     O_3   0.708469 0.753719 0.693367 -0.609822
O13   O     O_3   0.012843 0.289693 0.262555 -0.639456
O14   O     O_3   0.718192 0.790250 0.185308 -0.569697
O15   O     O_2   0.845380 0.761330 0.544970 -0.476458
O16   O     O_3   0.088930 0.704860 0.376040 -0.492632
O17   O     O_2   0.993846 0.887031 0.437047 -0.487581
O18   O     O_2   0.199024 0.822264 0.887492 -0.310598
O19   O     O_2   0.282842 0.009835 0.863326 -0.323713
O20   O     O_3   0.972811 0.937575 0.857287 -0.524499
O21   O     O_2   0.620394 0.601686 0.890117 -0.345858
O22   O     O_2   0.878457 0.703918 0.844063 -0.263680
O23   O     O_3   0.111186 0.888884 0.269649 -0.609877
O24   O     O_3   0.769985 0.750140 0.005970 -0.491120
O25   O     O_2   0.302330 0.539400 0.727760 -0.462365
O26   O     O_3   0.060300 0.548700 0.611500 -0.499199
O27   O     O_3   0.519500 0.346920 0.670840 -0.467343
O28   O     O_3   0.205128 0.708248 0.733681 -0.622810
O29   O     O_3   0.614310 0.373510 0.452640 -0.482807
O30   O     O_3   0.100780 0.295230 0.623970 -0.506735
P1    P     P_3+3 0.054400 0.427280 0.286870 0.962725
P2    P     P_3+3 0.668300 0.742890 0.573060 0.987525
P3    P     P_3+3 0.130851 0.843118 0.381656 0.951858
P4    P     P_3+3 0.135310 0.572810 0.713130 1.023115
P5    P     P_3+3 0.059515 0.158119 0.631754 0.967838
P6    P     P_3+3 0.653663 0.657763 0.208861 1.020179
P7    P     P_3+3 0.526843 0.240892 0.423889 0.929656
P8    P     P_3+3 0.535230 0.347355 0.792453 1.011492
S1    S     S_3+6 0.162253 0.913621 0.833140 -0.066468
S2    S     S_3+6 0.722221 0.709582 0.894468 -0.094970

loop_
_geom_bond_atom_site_label_1
_geom_bond_atom_site_label_2
_ccdc_geom_bond_type
O21   S2    D    
C8    C40   A    
C23   H9    S    
C1    H7    S    
C5    C6    A    
C39   H25   S    
O2    P5    D    
C9    C17   A    
C24   C25   A    
C38   H21   S    
C33   C35   S    
C22   C24   A    
C26   P7    S    
O5    P2    S    
O10   P6    S    
C36   C37   S    
O28   P4    S    
C13   C14   A    
O14   P6    S    
C22   P2    S    
O27   P8    S    
O13   P1    S    
Ba1   Ba2   S    
O30   P5    S    
C32   H49   S    
C10   C40   A    
C34   H11   S    
C31   H34   S    
C38   O9    S    
C23   H8    S    
C23   O7    S    
C27   P5    S    
Ba2   O5    S    
C14   C15   A    
C36   O3    S    
O16   P3    S    
C35   H5    S    
C14   P8    S    
O25   P4    D    
C34   H10   S    
C21   P3    S    
C33   H50   S    
C4    H26   S    
C24   C29   A    
C36   H16   S    
O15   P2    D    
C37   H19   S    
C30   H12   S    
Ba2   O25   S    
C7    C17   A    
C16   H41   S    
C18   C27   A    
Ba2   O30   S    
Ba2   O26   S    
C4    C16   S    
C40   H32   S    
O7    P7    S    
C31   O13   S    
C33   O12   S    
Ba1   O5    S    
C3    C5    A    
C6    C7    A    
C12   H6    S    
C18   C26   A    
C1    H3    S    
C2    P1    S    
H46   O24   S    
H44   O20   S    
Ba1   P1    S    
C3    H28   S    
O11   P6    D    
C1    H14   S    
C16   H15   S    
C4    H38   S    
C32   H48   S    
O24   S2    S    
C9    C10   A    
C31   C32   S    
O18   S1    D    
C28   H43   S    
C33   H2    S    
C1    C12   S    
Ba1   O15   S    
C11   P4    S    
Ba2   P4    S    
O19   S1    D    
C38   C39   S    
C13   H31   S    
C19   H39   S    
C20   C25   A    
C11   C13   A    
C5    P6    S    
C2    C8    A    
C29   H36   S    
C39   H27   S    
C17   H33   S    
C7    C8    A    
Ba2   O29   S    
O17   P3    D    
C37   H20   S    
C6    H29   S    
C18   H37   S    
C23   C34   S    
O22   S2    D    
O1    P1    D    
C20   H35   S    
O29   P7    S    
C2    C3    A    
C38   H22   S    
Ba2   O27   S    
C39   H24   S    
O12   P2    S    
O23   P3    S    
C35   S2    S    
C19   C21   A    
C31   H45   S    
C32   H47   S    
C27   C29   A    
C34   H13   S    
O9    P8    S    
C10   C15   A    
C28   C30   S    
C9    C11   A    
C28   O28   S    
Ba1   O4    S    
C37   H18   S    
O6    P7    D    
Ba2   O4    S    
C16   H40   S    
O8    P8    D    
Ba1   O26   S    
O4    P1    S    
O20   S1    S    
C28   H42   S    
Ba1   O29   S    
C4    O23   S    
Ba1   P2    S    
Ba1   O16   S    
C36   H17   S    
O3    P5    S    
C12   O14   S    
Ba2   O6    S    
C15   H30   S    
Ba1   O1    S    
C19   C22   A    
C25   C26   A    
C20   C21   A    
C12   H1    S    
O26   P4    S    
C35   H4    S    
Ba1   O10   S    
C30   S1    S    
C30   H23   S    
