data_mof_unit_26916.cif
_audit_creation_date              2012-12-11T15:27:05-0500
_audit_creation_method            fapswitch 2.2
_symmetry_space_group_name_H-M    P1
_symmetry_Int_Tables_number       1
_space_group_crystal_system       triclinic
_cell_length_a                    13.96214
_cell_length_b                    13.962218
_cell_length_c                    27.406185
_cell_angle_alpha                 90.001041
_cell_angle_beta                  90.000726
_cell_angle_gamma                 120.000345
_cell_volume                      4626.8360392

loop_
_atom_site_label
_atom_site_type_symbol
_atom_type_description
_atom_site_fract_x
_atom_site_fract_y
_atom_site_fract_z
_atom_type_partial_charge
C1    C     C_R   0.233522 0.787804 0.568266 0.539869
C2    C     C_R   0.212199 0.445724 0.568267 0.539864
C3    C     C_R   0.554282 0.766478 0.568266 0.539870
C4    C     C_3   0.711170 0.760333 0.783074 -0.221030
C5    C     C_3   0.239695 0.950797 0.783082 -0.221024
C6    C     C_3   0.049190 0.288859 0.783078 -0.221028
C7    C     C_3   0.691404 0.749987 0.727220 -0.230636
C8    C     C_3   0.250009 0.941406 0.727224 -0.230651
C9    C     C_3   0.058589 0.308586 0.727222 -0.230656
C10   C     C_1   0.720407 0.867606 0.856550 -0.080410
C11   C     C_1   0.132362 0.852794 0.856548 -0.080408
C12   C     C_1   0.147211 0.279585 0.856551 -0.080410
C13   C     C_1   0.641025 0.823118 0.655950 -0.073056
C14   C     C_1   0.176879 0.817906 0.655950 -0.073000
C15   C     C_1   0.182118 0.359021 0.655957 -0.073002
C16   C     C_1   0.608561 0.801384 0.614508 -0.023347
C17   C     C_1   0.198618 0.807179 0.614508 -0.023330
C18   C     C_1   0.192838 0.391468 0.614514 -0.023330
C19   C     C_R   0.106218 0.218877 0.948468 0.549284
C20   C     C_R   0.781120 0.887338 0.948468 0.549282
C21   C     C_R   0.112658 0.893781 0.948466 0.549281
C22   C     C_R   0.614478 0.807275 0.385651 0.025220
C23   C     C_R   0.192715 0.807172 0.385647 0.025226
C24   C     C_R   0.192790 0.385505 0.385654 0.025220
C25   C     C_R   0.608950 0.892055 0.360509 -0.126022
C26   C     C_R   0.108022 0.716820 0.360482 -0.126018
C27   C     C_R   0.283102 0.391035 0.360510 -0.126026
C28   C     C_R   0.637587 0.910831 0.311617 -0.123315
C29   C     C_R   0.089254 0.726684 0.311591 -0.123330
C30   C     C_R   0.273231 0.362382 0.311619 -0.123324
C31   C     C_R   0.674353 0.846747 0.287486 0.036551
C32   C     C_R   0.153250 0.827579 0.287480 0.036558
C33   C     C_R   0.172373 0.325605 0.287491 0.036552
C34   C     C_R   0.233225 0.787543 0.431589 0.542690
C35   C     C_R   0.212450 0.445675 0.431591 0.542690
C36   C     C_R   0.554321 0.766773 0.431590 0.542693
C37   C     C_R   0.690995 0.770109 0.313901 -0.120353
C38   C     C_R   0.229793 0.920885 0.313916 -0.120343
C39   C     C_R   0.079093 0.308960 0.313908 -0.120361
C40   C     C_R   0.660560 0.749943 0.362727 -0.127516
C41   C     C_R   0.249959 0.910611 0.362743 -0.127528
C42   C     C_R   0.089368 0.339405 0.362734 -0.127531
C43   C     C_R   0.655424 0.759502 0.206344 -0.120190
C44   C     C_R   0.240517 0.896038 0.206355 -0.120212
C45   C     C_R   0.104074 0.344562 0.206350 -0.120202
C46   C     C_R   0.676406 0.768027 0.156544 -0.132654
C47   C     C_R   0.232000 0.908497 0.156555 -0.132655
C48   C     C_R   0.091627 0.323596 0.156548 -0.132675
C49   C     C_R   0.754907 0.966991 0.161603 -0.126331
C50   C     C_R   0.033058 0.787790 0.161577 -0.126342
C51   C     C_R   0.212059 0.245057 0.161606 -0.126330
C52   C     C_R   0.735894 0.958707 0.211493 -0.121898
C53   C     C_R   0.041331 0.777056 0.211468 -0.121888
C54   C     C_R   0.222778 0.264054 0.211497 -0.121912
C55   C     C_R   0.688970 0.855250 0.234422 0.035911
C56   C     C_R   0.144768 0.833711 0.234415 0.035924
C57   C     C_R   0.166256 0.310989 0.234427 0.035907
C58   C     C_R   0.729575 0.872190 0.134297 0.022562
C59   C     C_R   0.127845 0.857384 0.134290 0.022553
C60   C     C_R   0.142612 0.270417 0.134299 0.022562
C61   C     C_R   0.106534 0.221435 0.086168 0.546777
C62   C     C_R   0.778570 0.885101 0.086169 0.546795
C63   C     C_R   0.114905 0.893470 0.086168 0.546802
C64   C     C_3   0.560320 0.824465 0.736887 -0.078864
C65   C     C_3   0.175514 0.735846 0.736889 -0.078856
C66   C     C_3   0.264124 0.439738 0.736904 -0.078858
C67   C     C_3   0.766178 0.953428 0.720777 -0.209591
C68   C     C_3   0.046567 0.812770 0.720768 -0.209592
C69   C     C_3   0.187318 0.233887 0.720775 -0.209581
C70   C     C_3   0.784691 0.965598 0.776929 -0.213907
C71   C     C_3   0.034404 0.819168 0.776917 -0.213920
C72   C     C_3   0.180916 0.215316 0.776923 -0.213921
C73   C     C_1   0.742309 0.875572 0.899354 -0.024525
C74   C     C_1   0.124409 0.866734 0.899352 -0.024520
C75   C     C_1   0.133267 0.257684 0.899355 -0.024523
C76   C     C_3   0.664646 0.839045 0.708632 0.088832
C77   C     C_3   0.160945 0.825597 0.708631 0.088834
C78   C     C_3   0.174424 0.335399 0.708638 0.088835
C79   C     C_3   0.582353 0.835613 0.792834 -0.194078
C80   C     C_3   0.164247 0.746662 0.792832 -0.194082
C81   C     C_3   0.253305 0.417641 0.792846 -0.194078
C82   C     C_3   0.700160 0.857742 0.803673 0.063639
C83   C     C_3   0.142224 0.842407 0.803671 0.063623
C84   C     C_3   0.157603 0.299845 0.803675 0.063619
Cr1   Cr    Cr6+3 0.164410 0.584450 0.499910 1.015370
Cr2   Cr    Cr6+3 0.415550 0.579960 0.499910 1.015374
Cr3   Cr    Cr6+3 0.420040 0.835590 0.499910 1.015374
Cr4   Cr    Cr6+3 0.156760 0.076070 0.017830 1.018593
Cr5   Cr    Cr6+3 0.923930 0.080690 0.017830 1.018602
Cr6   Cr    Cr6+3 0.919310 0.843240 0.017830 1.018604
H1    H     H_    0.572484 0.903681 0.808653 0.119221
H2    H     H_    0.096075 0.668736 0.808610 0.119246
H3    H     H_    0.331246 0.427440 0.808628 0.119246
H4    H     H_    0.490672 0.739516 0.729651 0.122717
H5    H     H_    0.260496 0.751203 0.729693 0.122706
H6    H     H_    0.248708 0.509326 0.729709 0.122715
H7    H     H_    0.520342 0.757987 0.811237 0.095020
H8    H     H_    0.241796 0.762152 0.811274 0.095016
H9    H     H_    0.237761 0.479662 0.811289 0.095018
H10   H     H_    0.795079 0.773601 0.791047 0.112697
H11   H     H_    0.226519 0.021487 0.791074 0.112696
H12   H     H_    0.978532 0.204969 0.791060 0.112694
H13   H     H_    0.574136 0.938060 0.377315 0.132448
H14   H     H_    0.062089 0.635975 0.377270 0.132470
H15   H     H_    0.363928 0.425862 0.377313 0.132436
H16   H     H_    0.615521 0.678373 0.223076 0.103760
H17   H     H_    0.321639 0.937359 0.223099 0.103740
H18   H     H_    0.062861 0.384480 0.223083 0.103757
H19   H     H_    0.656143 0.694098 0.135894 0.116695
H20   H     H_    0.305921 0.962260 0.135919 0.116719
H21   H     H_    0.037979 0.343882 0.135896 0.116686
H22   H     H_    0.624098 0.970482 0.292090 0.099582
H23   H     H_    0.029683 0.653518 0.292049 0.099572
H24   H     H_    0.346371 0.375871 0.292090 0.099576
H25   H     H_    0.762610 0.033724 0.232360 0.101317
H26   H     H_    0.966311 0.728647 0.232320 0.101298
H27   H     H_    0.271070 0.237328 0.232364 0.101312
H28   H     H_    0.797032 0.048475 0.145170 0.129674
H29   H     H_    0.951581 0.748330 0.145129 0.129616
H30   H     H_    0.251411 0.202926 0.145172 0.129674
H31   H     H_    0.723082 0.722522 0.296280 0.101298
H32   H     H_    0.277309 0.000590 0.296311 0.101287
H33   H     H_    0.999413 0.276864 0.296288 0.101284
H34   H     H_    0.667156 0.685337 0.381614 0.126188
H35   H     H_    0.314492 0.981839 0.381648 0.126163
H36   H     H_    0.018164 0.332804 0.381622 0.126177
H37   H     H_    0.841307 0.961406 0.702776 0.103974
H38   H     H_    0.038596 0.879908 0.702752 0.103966
H39   H     H_    0.120207 0.158761 0.702753 0.103967
H40   H     H_    0.755373 0.021749 0.706341 0.112218
H41   H     H_    0.978234 0.733638 0.706343 0.112188
H42   H     H_    0.266472 0.244736 0.706353 0.112187
H43   H     H_    0.776022 0.036270 0.790114 0.109388
H44   H     H_    0.963681 0.739870 0.790107 0.109372
H45   H     H_    0.260232 0.223940 0.790118 0.109379
H46   H     H_    0.870560 0.984958 0.785344 0.106358
H47   H     H_    0.015129 0.885741 0.785317 0.106370
H48   H     H_    0.114377 0.129449 0.785317 0.106370
H49   H     H_    0.622875 0.665835 0.718211 0.109313
H50   H     H_    0.334158 0.957046 0.718200 0.109291
H51   H     H_    0.042916 0.377079 0.718203 0.109291
H52   H     H_    0.766532 0.759599 0.708519 0.112681
H53   H     H_    0.240375 0.006925 0.708539 0.112690
H54   H     H_    0.993098 0.233427 0.708527 0.112688
H55   H     H_    0.650276 0.681635 0.801069 0.112088
H56   H     H_    0.318374 0.968505 0.801070 0.112101
H57   H     H_    0.031423 0.349784 0.801068 0.112097
O1    O     O_R   0.137310 0.468260 0.552980 -0.510850
O2    O     O_R   0.531740 0.669050 0.552980 -0.510845
O3    O     O_R   0.330950 0.862690 0.552980 -0.510850
O4    O     O_R   0.180530 0.983530 0.965090 -0.512244
O5    O     O_R   0.016470 0.197000 0.965090 -0.512246
O6    O     O_R   0.803000 0.819470 0.965090 -0.512247
O7    O     O_R   0.174120 0.688790 0.549730 -0.499394
O8    O     O_R   0.311210 0.485330 0.549730 -0.499396
O9    O     O_R   0.514670 0.825880 0.549730 -0.499401
O10   O     O_R   0.139940 0.470480 0.446230 -0.521941
O11   O     O_R   0.529520 0.669460 0.446230 -0.521930
O12   O     O_R   0.330540 0.860060 0.446230 -0.521914
O13   O     O_R   0.176560 0.690850 0.450770 -0.506257
O14   O     O_R   0.309150 0.485710 0.450770 -0.506243
O15   O     O_R   0.514290 0.823440 0.450770 -0.506247
O16   O     O_3   0.333333 0.666667 0.499990 -0.263357
O17   O     O_3   0.000000 0.000000 0.017910 -0.216922
O18   O     O_R   0.149710 0.171070 0.967700 -0.497039
O19   O     O_R   0.828930 0.978640 0.967700 -0.497036
O20   O     O_R   0.021360 0.850290 0.967700 -0.497040
O21   O     O_R   0.178510 0.985930 0.071830 -0.519493
O22   O     O_R   0.014070 0.192580 0.071830 -0.519461
O23   O     O_R   0.807420 0.821490 0.071830 -0.519453
O24   O     O_R   0.147830 0.173300 0.066650 -0.501018
O25   O     O_R   0.826700 0.974530 0.066650 -0.501017
O26   O     O_R   0.025470 0.852170 0.066650 -0.501000
C85   C     C_3   0.520437 0.903881 0.720006 -0.429564
H58   H     H_    0.496238 0.890658 0.680941 0.149215
H59   H     H_    0.446845 0.887741 0.741671 0.107669
H60   H     H_    0.584516 0.991568 0.725817 0.136803
C86   C     C_3   0.096188 0.616553 0.719968 -0.429541
H61   H     H_    0.109730 0.605581 0.680939 0.149153
H62   H     H_    0.112125 0.559071 0.741723 0.107667
H63   H     H_    0.008459 0.592972 0.725617 0.136850
C87   C     C_3   0.383438 0.479795 0.719990 -0.429543
H64   H     H_    0.394405 0.504351 0.680964 0.149131
H65   H     H_    0.440881 0.553215 0.741759 0.107671
H66   H     H_    0.407074 0.415680 0.725625 0.136858

loop_
_geom_bond_atom_site_label_1
_geom_bond_atom_site_label_2
_ccdc_geom_bond_type
C58   C62   S    
C15   C18   T    
Cr3   O16   S    
C2    O8    A    
Cr6   O20   S    
C2    C18   S    
C53   H26   S    
C24   C42   A    
Cr1   O1    S    
C6    C9    S    
C86   H61   S    
C71   H47   S    
C28   H22   S    
C25   C28   A    
Cr6   O26   S    
C45   C57   A    
C35   O14   A    
C50   C59   A    
C21   O4    A    
C52   H25   S    
C37   C40   A    
C4    C7    S    
C5    C83   S    
C10   C73   T    
C23   C26   A    
C15   C78   S    
C65   C86   S    
C27   H15   S    
C2    O1    A    
C39   H33   S    
C12   C84   S    
C45   H18   S    
C14   C77   S    
C87   H64   S    
C26   H14   S    
C85   H58   S    
C19   O5    A    
Cr5   O5    S    
Cr3   O12   S    
Cr4   O21   S    
Cr3   O3    S    
C70   H43   S    
C24   C27   A    
C48   C60   A    
C61   O24   A    
Cr1   O13   S    
C32   C38   A    
C68   H38   S    
Cr5   O17   S    
C79   H1    S    
C44   C47   A    
C36   O11   A    
Cr1   O7    S    
C34   O12   A    
C49   C52   A    
C72   H48   S    
C66   C87   S    
C65   C80   S    
C46   C58   A    
C27   C30   A    
C70   H46   S    
C14   C17   T    
Cr6   O23   S    
C69   C78   S    
Cr1   O10   S    
C71   H44   S    
C80   C83   S    
C40   H34   S    
C9    H54   S    
C63   O26   A    
C39   C42   A    
C85   H59   S    
C62   O23   A    
C5    H11   S    
C3    O2    A    
C24   C35   S    
C65   C77   S    
C20   O6    A    
C50   H29   S    
C50   C53   A    
C41   H35   S    
C6    C84   S    
C38   C41   A    
Cr2   O2    S    
C9    H51   S    
C25   H13   S    
C72   H45   S    
C81   H9    S    
C11   C83   S    
Cr4   O17   S    
C47   C59   A    
C21   C74   S    
C22   C25   A    
C49   C58   A    
C31   C37   A    
C72   C84   S    
Cr6   O17   S    
C60   C61   S    
C43   H16   S    
C80   H2    S    
C68   H41   S    
Cr2   O8    S    
C35   O10   A    
C67   H37   S    
C5    C8    S    
C81   H3    S    
C44   C56   A    
C49   H28   S    
C13   C76   S    
C23   C34   S    
C22   C40   A    
C44   H17   S    
C51   H30   S    
C64   C76   S    
C1    O3    A    
Cr2   O14   S    
C33   C39   A    
Cr6   O6    S    
Cr2   O11   S    
C85   H60   S    
C38   H32   S    
C37   H31   S    
C66   C78   S    
C43   C55   A    
C63   O21   A    
C4    H10   S    
C8    C77   S    
Cr1   O16   S    
C64   C79   S    
C12   C75   T    
C67   H40   S    
C61   O22   A    
C64   C85   S    
C69   H42   S    
C81   C84   S    
C62   O25   A    
C66   H6    S    
C30   H24   S    
C45   C48   A    
C68   C77   S    
C29   H23   S    
C33   C57   S    
C5    H56   S    
C30   C33   A    
C80   H8    S    
C59   C63   S    
C20   O19   A    
C79   H7    S    
C28   C31   A    
Cr5   O25   S    
C69   C72   S    
C11   C74   T    
C21   O20   A    
C79   C82   S    
C86   H62   S    
C52   C55   A    
C7    C76   S    
Cr2   O16   S    
C29   C32   A    
C47   H20   S    
C22   C36   S    
C48   H21   S    
C1    C17   S    
C23   C41   A    
C8    H50   S    
C67   C70   S    
C51   C54   A    
C51   C60   A    
C19   C75   S    
C13   C16   T    
Cr5   O22   S    
C66   C81   S    
C7    H49   S    
C6    H57   S    
C36   O15   A    
C68   C71   S    
C4    H55   S    
C3    O9    A    
Cr4   O4    S    
C10   C82   S    
C20   C73   S    
C8    H53   S    
C9    C78   S    
C6    H12   S    
C32   C56   S    
C1    O7    A    
C70   C82   S    
C43   C46   A    
C87   H65   S    
Cr5   O19   S    
C86   H63   S    
C42   H36   S    
C64   H4    S    
C65   H5    S    
Cr3   O15   S    
C4    C82   S    
C26   C29   A    
C69   H39   S    
Cr4   O18   S    
C54   H27   S    
C46   H19   S    
C53   C56   A    
Cr4   O24   S    
Cr3   O9    S    
C71   C83   S    
C67   C76   S    
C19   O18   A    
C31   C55   S    
C87   H66   S    
C7    H52   S    
C3    C16   S    
C54   C57   A    
C34   O13   A    
