data_mof_unit_62382.cif
_audit_creation_date              2012-10-26T20:59:52-0400
_audit_creation_method            fapswitch 2.2
_symmetry_space_group_name_H-M    P1
_symmetry_Int_Tables_number       1
_space_group_crystal_system       triclinic
_cell_length_a                    14.427423
_cell_length_b                    13.148572
_cell_length_c                    10.756119
_cell_angle_alpha                 90.559029
_cell_angle_beta                  90.018283
_cell_angle_gamma                 90.007813
_cell_volume                      2040.33863815

loop_
_atom_site_label
_atom_site_type_symbol
_atom_type_description
_atom_site_fract_x
_atom_site_fract_y
_atom_site_fract_z
_atom_type_partial_charge
C1    C     C_R   0.328730 0.499995 0.500008 0.561117
C2    C     C_3   0.575804 0.451064 0.959450 0.094960
C3    C     C_3   0.501768 0.597290 0.963566 0.102622
C4    C     C_3   0.498242 0.402710 0.036432 0.102613
C5    C     C_3   0.423538 0.453674 0.955996 0.265148
C6    C     C_3   0.576466 0.546327 0.044005 0.265157
C7    C     C_3   0.501498 0.502158 0.877379 -0.024058
C8    C     C_3   0.498510 0.497845 0.122622 -0.024060
C9    C     C_1   0.500000 0.173638 0.499999 0.112583
C10   C     C_1   0.500000 0.826362 0.500001 0.112583
C11   C     C_1   0.227154 0.499990 0.499997 -0.040451
C12   C     C_R   0.671270 0.500004 0.499992 0.561092
C13   C     C_1   0.772846 0.500010 0.500004 -0.040457
C14   C     C_1   0.142330 0.499993 0.499995 -0.045893
C15   C     C_1   0.857670 0.500007 0.500006 -0.045892
C16   C     C_3   0.280673 0.378276 0.988907 -0.112197
C17   C     C_3   0.719342 0.621692 0.011034 -0.112048
C18   C     C_3   0.285992 0.651376 0.998331 -0.291055
C19   C     C_3   0.714025 0.348632 0.001643 -0.291020
C20   C     C_3   0.512158 0.778984 0.015703 -0.291512
C21   C     C_3   0.487901 0.221015 0.984281 -0.291548
C22   C     C_1   0.042414 0.499998 0.499999 -0.007186
C23   C     C_1   0.957586 0.500002 0.500003 -0.007186
C24   C     C_1   0.500000 0.050682 0.500000 -0.056827
C25   C     C_1   0.500000 0.949318 0.500000 -0.056827
C26   C     C_R   0.498301 0.499326 0.256929 0.592710
C27   C     C_R   0.501707 0.500674 0.743071 0.592702
C28   C     C_3   0.424204 0.548941 0.040548 0.094950
Cu1   Cu    Cu3+1 0.500000 0.592680 0.500000 0.987072
Cu2   Cu    Cu3+1 0.500000 0.407320 0.500000 0.987078
H1    H     H_    0.235963 0.444086 0.012975 0.150103
H2    H     H_    0.318893 0.724029 0.970926 0.167798
H3    H     H_    0.645501 0.357708 0.831622 0.255465
H4    H     H_    0.782853 0.331513 0.960430 0.129727
H5    H     H_    0.681126 0.275971 0.029022 0.167773
H6    H     H_    0.724483 0.396769 0.085901 0.186456
H7    H     H_    0.546200 0.713045 0.845767 0.257460
H8    H     H_    0.497328 0.854542 0.975086 0.126979
H9    H     H_    0.583794 0.779793 0.053217 0.172471
H10   H     H_    0.462682 0.766179 0.092833 0.165293
H11   H     H_    0.453822 0.286939 0.154218 0.257456
H12   H     H_    0.311892 0.346840 0.074794 0.110793
H13   H     H_    0.502750 0.145464 0.024899 0.126993
H14   H     H_    0.537382 0.233842 0.907162 0.165302
H15   H     H_    0.416272 0.220183 0.946746 0.172439
H16   H     H_    0.235257 0.318407 0.948598 0.129371
H17   H     H_    0.688136 0.652739 0.924916 0.110818
H18   H     H_    0.764253 0.555949 0.987379 0.150024
H19   H     H_    0.764552 0.681838 0.051142 0.129285
H20   H     H_    0.354535 0.642349 0.168343 0.255489
H21   H     H_    0.217165 0.668505 0.039545 0.129739
H22   H     H_    0.275529 0.603218 0.914095 0.186488
N1    N     N_1   0.500000 0.268070 0.500000 -0.172723
N2    N     N_1   0.500000 0.731930 0.500000 -0.172723
N3    N     N_2   0.342554 0.599699 0.089101 -0.530226
N4    N     N_2   0.657465 0.400331 0.910890 -0.530182
N5    N     N_2   0.502764 0.701397 0.920250 -0.507298
N6    N     N_2   0.497261 0.298602 0.079741 -0.507315
O1    O     O_R   0.376050 0.578280 0.500000 -0.480671
O2    O     O_3   0.653124 0.594507 0.101247 -0.562511
O3    O     O_R   0.623950 0.421720 0.500000 -0.480682
O4    O     O_R   0.623950 0.578280 0.500000 -0.469877
O5    O     O_R   0.376050 0.421720 0.500000 -0.469867
O6    O     O_R   0.499980 0.578250 0.316850 -0.477203
O7    O     O_R   0.500020 0.421750 0.683150 -0.477189
O8    O     O_R   0.500020 0.578250 0.683150 -0.498470
O9    O     O_R   0.499980 0.421750 0.316850 -0.498461
O10   O     O_3   0.346887 0.405513 0.898716 -0.562494

loop_
_geom_bond_atom_site_label_1
_geom_bond_atom_site_label_2
_ccdc_geom_bond_type
C19   N4    S    
C18   H21   S    
C2    C4    S    
C9    C24   S    
Cu1   Cu2   S    
C27   O7    A    
C6    O2    S    
C21   H13   S    
C5    C28   S    
C12   O4    A    
Cu1   O1    S    
C7    C27   S    
C3    C7    S    
H20   N3    S    
C1    C11   S    
C17   H18   S    
C4    C8    S    
C3    C6    S    
C14   C22   S    
H3    N4    S    
C15   C23   S    
Cu1   O6    S    
C18   H22   S    
C21   N6    S    
C27   O8    A    
C19   H5    S    
Cu2   O5    S    
C24   C25   T    
C16   H1    S    
C12   O3    A    
C2    C6    S    
C18   H2    S    
C18   N3    S    
C5    O10   S    
C16   O10   S    
C26   O9    A    
C1    O5    A    
C10   C25   S    
C3    C28   S    
C11   C14   T    
C28   N3    S    
H11   N6    S    
C6    C8    S    
C21   H15   S    
C19   H6    S    
C1    O1    A    
C13   C15   T    
C8    C26   S    
C10   N2    T    
Cu2   N1    S    
H7    N5    S    
Cu2   O7    S    
C9    N1    T    
Cu1   N2    S    
C17   O2    S    
C4    N6    S    
Cu1   O8    S    
C21   H14   S    
C16   H12   S    
C20   H8    S    
C12   C13   S    
C8    C28   S    
Cu2   O3    S    
C16   H16   S    
C5    C7    S    
C20   H9    S    
C26   O6    A    
Cu1   O4    S    
C2    N4    S    
C2    C7    S    
C20   N5    S    
C22   C23   T    
C20   H10   S    
C17   H19   S    
Cu2   O9    S    
C17   H17   S    
C4    C5    S    
C3    N5    S    
C19   H4    S    
