data_mof_unit_19621.cif
_audit_creation_date              2012-12-10T17:05:17-0500
_audit_creation_method            fapswitch 2.2
_symmetry_space_group_name_H-M    P1
_symmetry_Int_Tables_number       1
_space_group_crystal_system       triclinic
_cell_length_a                    10.029932
_cell_length_b                    10.709448
_cell_length_c                    15.448299
_cell_angle_alpha                 91.014839
_cell_angle_beta                  67.405069
_cell_angle_gamma                 90.926911
_cell_volume                      1531.69333685

loop_
_atom_site_label
_atom_site_type_symbol
_atom_type_description
_atom_site_fract_x
_atom_site_fract_y
_atom_site_fract_z
_atom_type_partial_charge
C1    C     C_R   0.500282 0.737592 0.501878 0.918131
C2    C     C_R   0.735328 0.522289 0.028691 0.178071
C3    C     C_R   0.603111 0.460395 0.080203 0.094939
C4    C     C_R   0.409292 0.497385 0.676265 0.875177
C5    C     C_R   0.829186 0.558648 0.072645 -0.201972
C6    C     C_R   0.786439 0.544978 0.169145 -0.199358
C7    C     C_R   0.561999 0.448672 0.176935 -0.266943
C8    C     C_2   0.586857 0.069975 0.534607 -0.182311
C9    C     C_2   0.481538 0.132405 0.522565 -0.406308
C10   C     C_2   0.572055 0.935911 0.549303 0.272811
C11   C     C_2   0.505247 0.870382 0.502010 -0.422109
C12   C     C_R   0.429793 0.448101 0.906386 0.053823
C13   C     C_2   0.108558 0.434778 0.441224 -0.167544
C14   C     C_2   0.962769 0.447470 0.433258 0.242912
C15   C     C_R   0.496420 0.262632 0.504054 0.955754
C16   C     C_R   0.590748 0.498505 0.323804 0.867938
C17   C     C_R   0.353414 0.468292 0.776182 -0.146691
C18   C     C_R   0.649659 0.495236 0.221700 -0.057714
C19   C     C_R   0.229812 0.321121 0.899780 -0.285508
C20   C     C_R   0.251144 0.370933 0.812262 0.177853
C21   C     C_R   0.429685 0.515749 0.829310 0.100198
C22   C     C_3   0.687790 0.952982 0.665311 -0.813990
C23   C     C_R   0.319969 0.357392 0.946170 0.094917
C24   C     C_3   0.065731 0.377310 0.266892 -0.847325
C25   C     C_3   0.040947 0.371826 0.773092 -0.743301
C26   C     C_3   0.393231 0.738177 0.848580 -0.803516
C27   C     C_R   0.535932 0.467932 0.944972 0.096088
C28   C     C_R   0.510201 0.421681 0.035120 0.057473
C29   C     C_R   0.394680 0.336509 0.076165 -0.234190
C30   C     C_R   0.303927 0.302000 0.030626 -0.203621
C31   C     C_R   0.671185 0.524573 0.893634 -0.186891
C32   C     C_R   0.769940 0.550050 0.934817 -0.276009
H1    H     H_    0.220143 0.232504 0.062063 0.146734
H2    H     H_    0.932360 0.602748 0.033224 0.143102
H3    H     H_    0.684720 0.116882 0.532659 0.180763
H4    H     H_    0.562447 0.805076 0.648961 0.225330
H5    H     H_    0.722121 0.892371 0.710442 0.238401
H6    H     H_    0.605707 0.019329 0.710956 0.243025
H7    H     H_    0.784779 0.004444 0.618267 0.244365
H8    H     H_    0.862800 0.328718 0.367838 0.254362
H9    H     H_    0.028463 0.363663 0.208338 0.253334
H10   H     H_    0.124410 0.292399 0.271720 0.222864
H11   H     H_    0.139002 0.460116 0.251088 0.260674
H12   H     H_    0.378929 0.088465 0.530966 0.159366
H13   H     H_    0.456831 0.411776 0.219806 0.149972
H14   H     H_    0.856447 0.579389 0.203165 0.172842
H15   H     H_    0.170642 0.219894 0.762371 0.218266
H16   H     H_    0.963091 0.353233 0.845583 0.233577
H17   H     H_    0.997216 0.330715 0.722820 0.230677
H18   H     H_    0.053679 0.474161 0.761597 0.244459
H19   H     H_    0.566564 0.651558 0.744172 0.231347
H20   H     H_    0.453358 0.828163 0.838875 0.246525
H21   H     H_    0.330441 0.725533 0.924826 0.257764
H22   H     H_    0.318226 0.741897 0.811249 0.225514
H23   H     H_    0.460615 0.914220 0.456371 0.139048
H24   H     H_    0.377941 0.289421 0.140781 0.144558
H25   H     H_    0.186316 0.370677 0.394000 0.173591
H26   H     H_    0.079846 0.566487 0.539034 0.156368
H27   H     H_    0.863641 0.525764 0.560067 0.133469
H28   H     H_    0.871692 0.595228 0.893914 0.149232
H29   H     H_    0.148967 0.248425 0.928500 0.149584
H30   H     H_    0.705241 0.544889 0.819993 0.159909
N1    N     N_2   0.148330 0.498670 0.499030 -0.202637
N2    N     N_2   0.852680 0.498640 0.499000 -0.216485
N3    N     N_2   0.627433 0.876327 0.610918 -0.273134
N4    N     N_2   0.941926 0.396739 0.353236 -0.259765
N5    N     N_2   0.178429 0.315942 0.757872 -0.283272
N6    N     N_2   0.493993 0.637138 0.811472 -0.314811
O1    O     O_R   0.386950 0.680940 0.500010 -0.608334
O2    O     O_R   0.613110 0.680900 0.499990 -0.588189
O3    O     O_R   0.322330 0.500030 0.632270 -0.582799
O4    O     O_R   0.548480 0.499990 0.632240 -0.633993
O5    O     O_R   0.386890 0.319100 0.500010 -0.604962
O6    O     O_R   0.613050 0.319060 0.499990 -0.630818
O7    O     O_R   0.451520 0.500010 0.367760 -0.608312
O8    O     O_R   0.677670 0.499970 0.367730 -0.599592
Zn1   Zn    Zn3+2 0.349000 0.500030 0.500020 0.941413
Zn2   Zn    Zn3+2 0.651000 0.499970 0.499980 0.935882

loop_
_geom_bond_atom_site_label_1
_geom_bond_atom_site_label_2
_ccdc_geom_bond_type
O2    Zn2   S    
C16   O7    A    
C24   H10   S    
C20   N5    S    
O1    Zn1   S    
C19   C20   A    
C25   N5    S    
C4    O4    A    
C12   C23   A    
H27   N2    S    
C7    H13   S    
C3    C28   A    
O8    Zn2   S    
C3    C7    A    
C5    C6    A    
C13   H25   S    
C22   H6    S    
C17   C20   A    
C2    C32   A    
C25   H18   S    
O4    Zn2   S    
C8    C9    D    
C1    C11   S    
C24   N4    S    
C1    O1    A    
H8    N4    S    
C13   C14   S    
C24   H9    S    
C31   H30   S    
C26   H22   S    
H15   N5    S    
C6    C18   A    
C12   C27   A    
C27   C31   A    
C23   C30   A    
H4    N3    S    
C22   H5    S    
C12   C21   A    
C17   C21   A    
C8    H3    S    
C19   C23   A    
C22   N3    S    
C29   C30   A    
C26   H20   S    
C31   C32   A    
C13   N1    D    
C7    C18   A    
C14   N2    D    
C5    H2    S    
C14   N4    S    
O7    Zn1   S    
C25   H16   S    
C4    C17   S    
C8    C10   S    
C15   O5    A    
C21   N6    S    
C2    C5    A    
C32   H28   S    
C26   H21   S    
O3    Zn1   S    
C11   H23   S    
N1    Zn1   S    
C10   N3    S    
H26   N1    S    
C28   C29   A    
C9    H12   S    
C6    H14   S    
C30   H1    S    
C16   O8    A    
N2    Zn2   S    
C29   H24   S    
C1    O2    A    
C26   N6    S    
C2    C3    A    
C9    C15   S    
C19   H29   S    
C22   H7    S    
H19   N6    S    
C25   H17   S    
C10   C11   D    
C15   O6    A    
C16   C18   S    
O6    Zn2   S    
C27   C28   A    
C24   H11   S    
O5    Zn1   S    
C4    O3    A    
