data_mof_unit_65701.cif
_audit_creation_date              2012-12-10T17:21:12-0500
_audit_creation_method            fapswitch 2.2
_symmetry_space_group_name_H-M    P1
_symmetry_Int_Tables_number       1
_space_group_crystal_system       triclinic
_cell_length_a                    22.013729
_cell_length_b                    22.014036
_cell_length_c                    29.073502
_cell_angle_alpha                 89.988062
_cell_angle_beta                  90.003648
_cell_angle_gamma                 90.083035
_cell_volume                      14089.3244078

loop_
_atom_site_label
_atom_site_type_symbol
_atom_type_description
_atom_site_fract_x
_atom_site_fract_y
_atom_site_fract_z
_atom_type_partial_charge
C1    C     C_R   0.500050 0.120021 0.500044 0.824212
C2    C     C_R   0.718732 0.469957 0.464167 -0.016761
C3    C     C_R   0.193665 0.523858 0.414137 0.086721
C4    C     C_R   0.476168 0.806307 0.585848 0.086720
C5    C     C_R   0.806297 0.522912 0.585895 0.061162
C6    C     C_R   0.523853 0.193652 0.585869 0.086676
C7    C     C_R   0.193714 0.477057 0.585891 0.061156
C8    C     C_R   0.977058 0.693719 0.914141 0.061158
C9    C     C_R   0.306321 0.976199 0.914139 0.086688
C10   C     C_R   0.023097 0.306295 0.914047 0.061780
C11   C     C_R   0.693656 0.023690 0.914099 0.086572
C12   C     C_R   0.976702 0.306241 0.085860 0.062336
C13   C     C_R   0.530037 0.718903 0.464286 -0.015832
C14   C     C_R   0.306294 0.022910 0.085892 0.061150
C15   C     C_R   0.023981 0.693680 0.085874 0.086495
C16   C     C_R   0.693726 0.977166 0.085899 0.061334
C17   C     C_R   0.447584 0.226331 0.378812 0.128126
C18   C     C_R   0.773483 0.447881 0.378757 0.129094
C19   C     C_R   0.552393 0.773713 0.378790 0.128146
C20   C     C_R   0.226498 0.552163 0.378745 0.128853
C21   C     C_R   0.447855 0.773469 0.621235 0.128889
C22   C     C_R   0.773697 0.552377 0.621200 0.128119
C23   C     C_R   0.552150 0.226481 0.621260 0.128917
C24   C     C_R   0.281264 0.530051 0.464157 -0.016677
C25   C     C_R   0.226317 0.447576 0.621200 0.128108
C26   C     C_R   0.947521 0.726299 0.878847 0.128031
C27   C     C_R   0.273485 0.947915 0.878745 0.128901
C28   C     C_R   0.052514 0.273649 0.878743 0.128280
C29   C     C_R   0.726493 0.051895 0.878664 0.128972
C30   C     C_R   0.947210 0.273519 0.121144 0.128102
C31   C     C_R   0.273693 0.052376 0.121197 0.128042
C32   C     C_R   0.052260 0.726541 0.121255 0.128879
C33   C     C_R   0.726331 0.947718 0.121223 0.128250
C34   C     C_R   0.421255 0.281714 0.388989 -0.210632
C35   C     C_R   0.469949 0.718728 0.535827 -0.016685
C36   C     C_R   0.717615 0.421729 0.388633 -0.248281
C37   C     C_R   0.578710 0.718318 0.388968 -0.210763
C38   C     C_R   0.282373 0.578303 0.388615 -0.248669
C39   C     C_R   0.421703 0.717603 0.611361 -0.248740
C40   C     C_R   0.718307 0.578703 0.611021 -0.210810
C41   C     C_R   0.578287 0.282359 0.611388 -0.248701
C42   C     C_R   0.281706 0.421255 0.611024 -0.210787
C43   C     C_R   0.921184 0.781678 0.889027 -0.210708
C44   C     C_R   0.217613 0.921766 0.888613 -0.248749
C45   C     C_R   0.078765 0.218225 0.888930 -0.210823
C46   C     C_R   0.718899 0.530035 0.535706 -0.015822
C47   C     C_R   0.782375 0.078041 0.888492 -0.248828
C48   C     C_R   0.920988 0.218008 0.110953 -0.210722
C49   C     C_R   0.218305 0.078704 0.111017 -0.210525
C50   C     C_R   0.078354 0.782431 0.111370 -0.248693
C51   C     C_R   0.781711 0.921371 0.111057 -0.210539
C52   C     C_R   0.430421 0.308625 0.431530 0.379601
C53   C     C_R   0.690914 0.430663 0.431295 0.397391
C54   C     C_R   0.569555 0.691395 0.431513 0.379629
C55   C     C_R   0.309081 0.569352 0.431279 0.397488
C56   C     C_R   0.430647 0.690907 0.568699 0.397493
C57   C     C_R   0.530045 0.281259 0.535848 -0.016660
C58   C     C_R   0.691389 0.569553 0.568477 0.379636
C59   C     C_R   0.569341 0.309072 0.568724 0.397501
C60   C     C_R   0.308620 0.430422 0.568481 0.379629
C61   C     C_R   0.930383 0.808606 0.931559 0.379562
C62   C     C_R   0.190912 0.930685 0.931277 0.397547
C63   C     C_R   0.069579 0.191323 0.931479 0.380045
C64   C     C_R   0.809083 0.069198 0.931168 0.397748
C65   C     C_R   0.930272 0.191117 0.068428 0.379867
C66   C     C_R   0.191387 0.069554 0.068473 0.379575
C67   C     C_R   0.069387 0.809115 0.068700 0.397523
C68   C     C_R   0.281106 0.469951 0.535704 -0.015816
C69   C     C_R   0.808618 0.930485 0.068504 0.379593
C70   C     C_R   0.969937 0.781104 0.964322 -0.015866
C71   C     C_R   0.218731 0.969966 0.964159 -0.016646
C72   C     C_R   0.030065 0.218864 0.964236 -0.016282
C73   C     C_R   0.879980 0.499951 0.499964 0.824210
C74   C     C_R   0.781265 0.029979 0.964106 -0.016508
C75   C     C_R   0.969830 0.218772 0.035702 -0.016508
C76   C     C_R   0.218897 0.030035 0.035702 -0.015934
C77   C     C_R   0.030082 0.781278 0.035841 -0.016651
C78   C     C_R   0.781107 0.969989 0.035709 -0.015827
C79   C     C_R   0.482921 0.219040 0.459377 -0.011598
C80   C     C_R   0.780963 0.482554 0.459330 -0.028154
C81   C     C_R   0.517080 0.780979 0.459358 -0.011596
C82   C     C_R   0.219030 0.517463 0.459322 -0.028195
C83   C     C_R   0.482548 0.780957 0.540664 -0.028196
C84   C     C_R   0.499951 0.879979 0.500031 0.824232
C85   C     C_R   0.780972 0.517072 0.540634 -0.011608
C86   C     C_R   0.517461 0.219024 0.540684 -0.028165
C87   C     C_R   0.219033 0.482915 0.540631 -0.011596
C88   C     C_R   0.982916 0.719037 0.959397 -0.011533
C89   C     C_R   0.280963 0.982562 0.959324 -0.028213
C90   C     C_R   0.017170 0.280953 0.959301 -0.013510
C91   C     C_R   0.719028 0.017385 0.959290 -0.028239
C92   C     C_R   0.982675 0.280905 0.040619 -0.013538
C93   C     C_R   0.280970 0.017071 0.040631 -0.011576
C94   C     C_R   0.017523 0.719038 0.040689 -0.028317
C95   C     C_R   0.120020 0.500050 0.499960 0.824204
C96   C     C_R   0.719039 0.982967 0.040631 -0.011626
C97   C     C_R   0.499971 0.313050 0.500060 -0.106162
C98   C     C_R   0.686950 0.500021 0.499952 -0.106180
C99   C     C_R   0.500016 0.686950 0.500041 -0.106189
C100  C     C_R   0.313050 0.499976 0.499946 -0.106167
C101  C     C_R   0.999975 0.813054 0.000063 -0.106210
C102  C     C_R   0.186949 0.000021 0.999949 -0.106109
C103  C     C_R   0.999973 0.186944 0.999983 -0.105937
C104  C     C_R   0.813051 0.999970 0.999931 -0.105957
C105  C     C_R   0.500207 0.186411 0.500027 -0.107163
C106  C     C_R   0.000054 0.620022 0.000058 0.823976
C107  C     C_R   0.813589 0.499798 0.499985 -0.107139
C108  C     C_R   0.499800 0.813589 0.500008 -0.107182
C109  C     C_R   0.186411 0.500204 0.499980 -0.107168
C110  C     C_R   0.000226 0.686415 0.000043 -0.107106
C111  C     C_R   0.313588 0.999798 0.999983 -0.107174
C112  C     C_R   0.999910 0.313558 0.999957 -0.108872
C113  C     C_R   0.686412 0.000203 0.999970 -0.107106
C114  C     C_R   0.621291 0.500041 0.499991 1.108557
C115  C     C_R   0.500038 0.621291 0.500006 1.108584
C116  C     C_R   0.378709 0.499957 0.499989 1.108563
C117  C     C_R   0.379979 0.999951 0.999964 0.824231
C118  C     C_R   0.499954 0.378709 0.500014 1.108541
C119  C     C_R   0.121291 0.000038 0.999991 1.108614
C120  C     C_R   1.000000 0.121289 0.999996 1.109644
C121  C     C_R   0.878709 0.999961 0.999986 1.108639
C122  C     C_R   0.999945 0.878710 0.000014 1.108503
C123  C     C_R   0.499998 0.000004 0.414446 0.818569
C124  C     C_R   0.999998 0.500005 0.414448 0.813023
C125  C     C_R   0.500001 0.999995 0.585552 0.813059
C126  C     C_R   0.000003 0.499995 0.585554 0.818555
C127  C     C_R   0.999998 0.499979 0.914446 0.818483
C128  C     C_R   0.999966 0.379970 0.999972 0.827196
C129  C     C_R   0.499992 0.000005 0.914448 0.813067
C130  C     C_R   1.000000 0.500174 0.085553 0.815708
C131  C     C_R   0.499999 0.999994 0.085554 0.818588
C132  C     C_1   0.499995 0.000005 0.363517 -0.165983
C133  C     C_1   0.999993 0.500012 0.363520 -0.151020
C134  C     C_1   0.500004 0.999994 0.636480 -0.151165
C135  C     C_1   0.000002 0.499984 0.636483 -0.166087
C136  C     C_1   0.999994 0.499988 0.863517 -0.165995
C137  C     C_1   0.499992 0.000015 0.863520 -0.151118
C138  C     C_1   0.999994 0.500088 0.136481 -0.158408
C139  C     C_R   0.620021 0.000050 0.999959 0.824181
C140  C     C_1   0.499999 0.999985 0.136483 -0.166000
C141  C     C_1   0.499995 0.000001 0.321171 0.008335
C142  C     C_1   0.999988 0.500009 0.321173 0.032724
C143  C     C_1   0.500003 0.999998 0.678827 0.032559
C144  C     C_1   0.000001 0.499982 0.678828 0.008159
C145  C     C_1   0.999994 0.499989 0.821172 0.008152
C146  C     C_1   0.499994 0.000015 0.821173 0.032574
C147  C     C_1   0.999987 0.500041 0.178827 0.020550
C148  C     C_1   0.499999 0.999985 0.178828 0.008322
C149  C     C_1   0.499996 0.999995 0.271176 0.003627
C150  C     C_R   0.469951 0.281110 0.464304 -0.015815
C151  C     C_1   0.999983 0.500005 0.271176 0.010896
C152  C     C_1   0.500000 0.000005 0.728823 0.010561
C153  C     C_1   0.999998 0.499984 0.728824 0.003408
C154  C     C_1   0.999996 0.499987 0.771176 0.003403
C155  C     C_1   0.499997 0.000010 0.771177 0.010564
C156  C     C_1   0.999983 0.500012 0.228823 0.007086
C157  C     C_1   0.499997 0.999989 0.228823 0.003623
C158  C     C_R   0.477073 0.193728 0.414118 0.061258
C159  C     C_R   0.806319 0.476180 0.414145 0.086708
C160  C     C_R   0.522933 0.806312 0.414098 0.061154
Cl1   Cl    Cl    0.380502 0.368493 0.444209 -0.601814
Cl2   Cl    Cl    0.131094 0.880568 0.944048 -0.602710
Cl3   Cl    Cl    0.119487 0.131453 0.944192 -0.601993
Cl4   Cl    Cl    0.868916 0.119333 0.943854 -0.602276
Cl5   Cl    Cl    0.880354 0.131161 0.055636 -0.602784
Cl6   Cl    Cl    0.131519 0.119483 0.055786 -0.601293
Cl7   Cl    Cl    0.119489 0.868926 0.055885 -0.602828
Cl8   Cl    Cl    0.868469 0.880534 0.055843 -0.601827
Cl9   Cl    Cl    0.631102 0.380547 0.444085 -0.602401
Cl10  Cl    Cl    0.619479 0.631524 0.444196 -0.601879
Cl11  Cl    Cl    0.368902 0.619457 0.444058 -0.602790
Cl12  Cl    Cl    0.380537 0.631094 0.555914 -0.602807
Cl13  Cl    Cl    0.631521 0.619480 0.555791 -0.601887
Cl14  Cl    Cl    0.619449 0.368894 0.555941 -0.602724
Cl15  Cl    Cl    0.368491 0.380504 0.555804 -0.601918
Cl16  Cl    Cl    0.880481 0.868487 0.944241 -0.602055
H1    H     H_    0.392711 0.303742 0.363616 0.188968
H2    H     H_    0.195104 0.893508 0.863281 0.178487
H3    H     H_    0.107284 0.196169 0.863564 0.188822
H4    H     H_    0.804886 0.106245 0.863119 0.178488
H5    H     H_    0.892412 0.195876 0.136293 0.188769
H6    H     H_    0.196280 0.107237 0.136389 0.189135
H7    H     H_    0.106623 0.804959 0.136686 0.178520
H8    H     H_    0.803737 0.892850 0.136447 0.188938
H9    H     H_    0.583623 0.228411 0.687769 0.181533
H10   H     H_    0.515046 0.196822 0.680543 0.204941
H11   H     H_    0.770862 0.534746 0.689242 0.191300
H12   H     H_    0.695107 0.393460 0.363307 0.178816
H13   H     H_    0.842022 0.544276 0.669974 0.218641
H14   H     H_    0.416374 0.771514 0.687739 0.181520
H15   H     H_    0.484966 0.803077 0.680524 0.204945
H16   H     H_    0.229155 0.465186 0.689239 0.191303
H17   H     H_    0.157994 0.455648 0.669968 0.218639
H18   H     H_    0.534776 0.770886 0.310748 0.191293
H19   H     H_    0.544296 0.842043 0.330013 0.218664
H20   H     H_    0.771534 0.416421 0.312251 0.182295
H21   H     H_    0.803108 0.485004 0.319470 0.204548
H22   H     H_    0.465206 0.229171 0.310773 0.191568
H23   H     H_    0.607241 0.696294 0.363593 0.188899
H24   H     H_    0.455651 0.158011 0.330049 0.218691
H25   H     H_    0.228437 0.583646 0.312235 0.181622
H26   H     H_    0.196853 0.515066 0.319463 0.205140
H27   H     H_    0.083759 0.728513 0.187757 0.181533
H28   H     H_    0.015209 0.696856 0.180550 0.205207
H29   H     H_    0.270856 0.034745 0.189239 0.191382
H30   H     H_    0.342017 0.044275 0.169972 0.218642
H31   H     H_    0.964723 0.270805 0.189202 0.192144
H32   H     H_    0.955064 0.341907 0.169890 0.218068
H33   H     H_    0.729193 0.965394 0.189251 0.191879
H34   H     H_    0.304880 0.606577 0.363285 0.178503
H35   H     H_    0.658024 0.955871 0.169996 0.218704
H36   H     H_    0.034981 0.270784 0.810689 0.191239
H37   H     H_    0.044437 0.341949 0.829939 0.218663
H38   H     H_    0.271537 0.916477 0.812233 0.181525
H39   H     H_    0.303116 0.985055 0.819465 0.204949
H40   H     H_    0.965131 0.729096 0.810805 0.191369
H41   H     H_    0.955524 0.657949 0.830103 0.218612
H42   H     H_    0.728431 0.083213 0.812110 0.181538
H43   H     H_    0.696823 0.014662 0.819438 0.204933
H44   H     H_    0.545011 0.131487 0.416697 0.212652
H45   H     H_    0.393426 0.695094 0.636686 0.178481
H46   H     H_    0.470588 0.105540 0.415040 0.204837
H47   H     H_    0.871351 0.541587 0.415872 0.202787
H48   H     H_    0.894465 0.466156 0.415190 0.210383
H49   H     H_    0.455052 0.868612 0.416675 0.212453
H50   H     H_    0.529505 0.894489 0.415036 0.204992
H51   H     H_    0.128621 0.458464 0.415869 0.202851
H52   H     H_    0.105522 0.533902 0.415187 0.210312
H53   H     H_    0.541591 0.871325 0.584121 0.202811
H54   H     H_    0.466165 0.894457 0.584808 0.210290
H55   H     H_    0.868574 0.455010 0.583318 0.212488
H56   H     H_    0.696282 0.607235 0.636393 0.188885
H57   H     H_    0.894478 0.529450 0.584963 0.204938
H58   H     H_    0.458471 0.128598 0.584139 0.202771
H59   H     H_    0.533915 0.105514 0.584815 0.210341
H60   H     H_    0.131446 0.544970 0.583310 0.212485
H61   H     H_    0.105529 0.470533 0.584961 0.204931
H62   H     H_    0.045064 0.631549 0.916713 0.212593
H63   H     H_    0.970674 0.605526 0.915043 0.204910
H64   H     H_    0.371363 0.041595 0.915874 0.202803
H65   H     H_    0.394463 0.966158 0.915192 0.210289
H66   H     H_    0.955359 0.368754 0.916584 0.211991
H67   H     H_    0.606556 0.304863 0.636717 0.178484
H68   H     H_    0.029882 0.394480 0.915019 0.205036
H69   H     H_    0.628582 0.958335 0.915894 0.202888
H70   H     H_    0.605527 0.033788 0.915192 0.210252
H71   H     H_    0.044609 0.368734 0.083392 0.212693
H72   H     H_    0.970176 0.394479 0.084918 0.204700
H73   H     H_    0.368570 0.955007 0.083316 0.212467
H74   H     H_    0.394474 0.029447 0.084963 0.204947
H75   H     H_    0.958726 0.628503 0.084178 0.202436
H76   H     H_    0.034234 0.605574 0.084807 0.210633
H77   H     H_    0.631470 0.045084 0.083286 0.212773
H78   H     H_    0.303734 0.392713 0.636400 0.188890
H79   H     H_    0.605543 0.970655 0.084964 0.204734
H80   H     H_    0.892616 0.803692 0.863663 0.188900
N1    N     N_3   0.558487 0.199878 0.666183 -0.421889
N2    N     N_3   0.297690 0.060489 0.166843 -0.439571
N3    N     N_3   0.938960 0.297495 0.166769 -0.440858
N4    N     N_3   0.702345 0.939643 0.166875 -0.439667
N5    N     N_3   0.060680 0.297637 0.833096 -0.439765
N6    N     N_3   0.300073 0.941607 0.833821 -0.421915
N7    N     N_3   0.939367 0.702297 0.833212 -0.439801
N8    N     N_3   0.699891 0.058135 0.833735 -0.421872
N9    N     N_3   0.501795 0.136441 0.402363 -0.476673
N10   N     N_3   0.864699 0.498228 0.402187 -0.450929
N11   N     N_3   0.498266 0.863630 0.402350 -0.476865
N12   N     N_3   0.797695 0.560490 0.666845 -0.439767
N13   N     N_3   0.135277 0.501830 0.402184 -0.450821
N14   N     N_3   0.498227 0.864679 0.597807 -0.450904
N15   N     N_3   0.863603 0.498221 0.597646 -0.476834
N16   N     N_3   0.501835 0.135259 0.597821 -0.450917
N17   N     N_3   0.136413 0.501752 0.597641 -0.476841
N18   N     N_3   0.001847 0.636465 0.902374 -0.476748
N19   N     N_3   0.364706 0.998237 0.902188 -0.450913
N20   N     N_3   0.998591 0.363685 0.902307 -0.477101
N21   N     N_3   0.635248 0.001686 0.902186 -0.450887
N22   N     N_3   0.001342 0.363641 0.097630 -0.477533
N23   N     N_3   0.441526 0.800048 0.666158 -0.421920
N24   N     N_3   0.363599 0.998218 0.097645 -0.476846
N25   N     N_3   0.002094 0.635245 0.097831 -0.450004
N26   N     N_3   0.636428 0.001877 0.097636 -0.476574
N27   N     N_3   0.202324 0.439445 0.666844 -0.439758
N28   N     N_3   0.560514 0.797718 0.333144 -0.439678
N29   N     N_3   0.800070 0.441561 0.333834 -0.421552
N30   N     N_3   0.439456 0.202344 0.333170 -0.439616
N31   N     N_3   0.199902 0.558504 0.333822 -0.421694
N32   N     N_3   0.058641 0.699952 0.166180 -0.421173
O1    O     O_R   0.551720 0.091610 0.499990 -0.609993
O2    O     O_R   0.408390 0.051720 0.999990 -0.607787
O3    O     O_R   0.948280 0.408390 0.999990 -0.608823
O4    O     O_R   0.591610 0.948280 0.999990 -0.607828
O5    O     O_R   0.051720 0.408390 0.000010 -0.608534
O6    O     O_R   0.408390 0.948280 0.000010 -0.610064
O7    O     O_R   0.948280 0.591610 0.000010 -0.607791
O8    O     O_R   0.591610 0.051720 0.000010 -0.609958
O9    O     O_R   0.551720 0.000010 0.436860 -0.597963
O10   O     O_R   0.999990 0.551720 0.436860 -0.599282
O11   O     O_R   0.448280 0.999990 0.436860 -0.598091
O12   O     O_R   0.908390 0.551720 0.499990 -0.607806
O13   O     O_R   0.000010 0.448280 0.436860 -0.599114
O14   O     O_R   0.551720 0.999990 0.563140 -0.599282
O15   O     O_R   0.999990 0.448280 0.563140 -0.598079
O16   O     O_R   0.448280 0.000010 0.563140 -0.599279
O17   O     O_R   0.000010 0.551720 0.563140 -0.598084
O18   O     O_R   0.051720 0.500010 0.936860 -0.598211
O19   O     O_R   0.499990 0.051720 0.936860 -0.599262
O20   O     O_R   0.948280 0.499990 0.936860 -0.598215
O21   O     O_R   0.500010 0.948280 0.936860 -0.599304
O22   O     O_R   0.051720 0.499990 0.063140 -0.598063
O23   O     O_R   0.448280 0.908390 0.499990 -0.610045
O24   O     O_R   0.499990 0.948280 0.063140 -0.598083
O25   O     O_R   0.948280 0.500010 0.063140 -0.599605
O26   O     O_R   0.500010 0.051720 0.063140 -0.597970
O27   O     O_R   0.591590 0.499990 0.535660 -0.588372
O28   O     O_R   0.500010 0.591590 0.535660 -0.589263
O29   O     O_R   0.408410 0.500010 0.535660 -0.588384
O30   O     O_R   0.499990 0.408410 0.535660 -0.589263
O31   O     O_R   0.591590 0.500010 0.464340 -0.589276
O32   O     O_R   0.500010 0.408410 0.464340 -0.588360
O33   O     O_R   0.408410 0.499990 0.464340 -0.589245
O34   O     O_R   0.091610 0.448280 0.499990 -0.607749
O35   O     O_R   0.499990 0.591590 0.464340 -0.588359
O36   O     O_R   0.091590 0.999990 0.035660 -0.588409
O37   O     O_R   0.000010 0.091590 0.035660 -0.588895
O38   O     O_R   0.908410 0.000010 0.035660 -0.588376
O39   O     O_R   0.999990 0.908410 0.035660 -0.589296
O40   O     O_R   0.091590 0.000010 0.964340 -0.589221
O41   O     O_R   0.000010 0.908410 0.964340 -0.588347
O42   O     O_R   0.908410 0.999990 0.964340 -0.589298
O43   O     O_R   0.999990 0.091590 0.964340 -0.588634
O44   O     O_R   0.551720 0.908390 0.500010 -0.607794
O45   O     O_R   0.908390 0.448280 0.500010 -0.609953
O46   O     O_R   0.448280 0.091610 0.500010 -0.607775
O47   O     O_R   0.091610 0.551720 0.500010 -0.610070
O48   O     O_R   0.051720 0.591610 0.999990 -0.610279
Zn1   Zn    Zn3+2 0.569070 0.000000 0.500000 0.981288
Zn2   Zn    Zn3+2 0.500000 0.500000 0.452400 1.115716
Zn3   Zn    Zn3+2 0.000000 1.000000 0.047600 1.115910
Zn4   Zn    Zn3+2 0.000000 0.000000 0.952400 1.115691
Zn5   Zn    Zn3+2 0.000000 0.569070 0.500000 0.981056
Zn6   Zn    Zn3+2 0.430930 0.000000 0.500000 0.981077
Zn7   Zn    Zn3+2 0.000000 0.430930 0.500000 0.981436
Zn8   Zn    Zn3+2 0.069070 0.500000 0.000000 0.981007
Zn9   Zn    Zn3+2 0.500000 0.069070 0.000000 0.981248
Zn10  Zn    Zn3+2 0.930930 0.500000 0.000000 0.980750
Zn11  Zn    Zn3+2 0.500000 0.930930 0.000000 0.980958
Zn12  Zn    Zn3+2 0.500000 0.500000 0.547600 1.115618

loop_
_geom_bond_atom_site_label_1
_geom_bond_atom_site_label_2
_ccdc_geom_bond_type
C43   H80   S    
C117  O2    A    
C8    C26   A    
C77   C101  A    
C64   Cl4   S    
C15   C32   A    
C2    C98   A    
C63   Cl3   S    
C80   C107  A    
C124  C133  S    
C98   C114  S    
C42   H78   S    
C18   C159  A    
C19   C37   A    
C134  C143  T    
C125  O16   A    
O20   Zn10  S    
H51   N13   S    
C128  O3    A    
C126  O15   A    
C78   C96   A    
O30   Zn12  S    
C97   C150  A    
H13   N12   S    
C48   C65   A    
C40   H56   S    
O41   Zn4   S    
O29   Zn12  S    
C52   Cl1   S    
C46   C98   A    
C130  O25   A    
C75   C103  A    
C122  O41   A    
C40   C58   A    
O17   Zn5   S    
C137  C146  T    
C127  C136  S    
C49   C66   A    
C47   C64   A    
C115  O35   A    
C80   C159  A    
H54   N14   S    
C118  O32   A    
C36   H12   S    
C142  C151  S    
O14   Zn1   S    
C39   C56   A    
C23   N1    S    
C66   C76   A    
C1    O1    A    
O10   Zn5   S    
O38   Zn3   S    
O32   Zn2   S    
C71   C102  A    
C17   C34   A    
C130  C138  S    
C43   C61   A    
C13   C54   A    
C67   Cl7   S    
C120  O43   A    
H28   N32   S    
C24   C100  A    
O11   Zn6   S    
C123  O11   A    
H43   N8    S    
H40   N7    S    
C2    C53   A    
C72   C103  A    
C101  C122  S    
C23   C41   A    
H71   N22   S    
C69   Cl8   S    
H76   N25   S    
O19   Zn9   S    
C27   N6    S    
C127  O20   A    
O27   Zn12  S    
C57   C59   A    
O3    Zn10  S    
C11   C91   A    
C129  C137  S    
C34   H1    S    
C114  O31   A    
C51   C69   A    
C102  C119  S    
C1    C105  S    
H22   N30   S    
C65   Cl5   S    
C123  C132  S    
C129  O19   A    
C67   C77   A    
C14   C31   A    
C106  O7    A    
C79   C158  A    
C70   C101  A    
C118  O30   A    
C133  C142  T    
C29   C47   A    
C19   C160  A    
C30   C48   A    
C21   N23   S    
H48   N10   S    
C139  O8    A    
C121  O38   A    
C119  O40   A    
C77   C94   A    
C124  O13   A    
C27   C44   A    
C21   C39   A    
C113  C139  S    
C131  C140  S    
C25   N27   S    
C50   C67   A    
H25   N31   S    
C14   C93   A    
H72   N22   S    
O18   Zn8   S    
H50   N11   S    
C5    C85   A    
O46   Zn6   S    
C120  O37   A    
C22   C40   A    
H17   N27   S    
C81   C160  A    
C46   C58   A    
H18   N28   S    
H39   N6    S    
C123  O9    A    
C116  O33   A    
H29   N2    S    
C76   C102  A    
H36   N5    S    
C16   C96   A    
O25   Zn10  S    
C38   C55   A    
C78   C104  A    
C82   C109  A    
C126  O17   A    
C44   H2    S    
C129  O21   A    
C26   N7    S    
C127  O18   A    
H37   N5    S    
H19   N28   S    
C8    C88   A    
H74   N24   S    
C13   C99   A    
H70   N21   S    
C68   C100  A    
C47   H4    S    
O37   Zn3   S    
C72   C90   A    
H31   N3    S    
C38   H34   S    
C115  O28   A    
H16   N27   S    
C60   C68   A    
O40   Zn4   S    
C145  C154  S    
H26   N31   S    
C37   C54   A    
O47   Zn5   S    
C124  O10   A    
C74   C104  A    
C130  O22   A    
C132  C141  T    
O7    Zn10  S    
C35   C56   A    
C9    N19   S    
H61   N17   S    
C10   N20   S    
C32   N32   S    
O44   Zn1   S    
C3    N13   S    
H64   N19   S    
C111  C117  S    
O23   Zn6   S    
O48   Zn8   S    
C11   C29   A    
O22   Zn8   S    
C17   N30   S    
O33   Zn2   S    
C149  C157  T    
H11   N12   S    
C62   C71   A    
C31   N2    S    
C148  C157  S    
H30   N2    S    
C81   C108  A    
O35   Zn2   S    
C52   C150  A    
H32   N3    S    
C68   C87   A    
H69   N21   S    
O1    Zn1   S    
H49   N11   S    
C84   O23   A    
H20   N29   S    
C61   C70   A    
H41   N7    S    
C54   Cl10  S    
C103  C120  S    
C100  C116  S    
C59   Cl14  S    
C159  N10   S    
C41   H67   S    
O13   Zn7   S    
C99   C115  S    
C48   H5    S    
C73   C107  S    
H10   N1    S    
C131  O26   A    
C13   C81   A    
C29   N8    S    
C83   C108  A    
H60   N17   S    
H75   N25   S    
H47   N10   S    
C7    C87   A    
C146  C155  S    
O8    Zn9   S    
C53   Cl9   S    
C46   C85   A    
C88   C110  A    
H35   N4    S    
C158  N9    S    
C56   Cl12  S    
C61   Cl16  S    
C31   C49   A    
C55   Cl11  S    
C139  O4    A    
C12   C92   A    
C121  O42   A    
C95   O34   A    
O39   Zn3   S    
C128  O5    A    
H79   N26   S    
H14   N23   S    
O31   Zn2   S    
C51   H8    S    
C9    C89   A    
C35   C83   A    
C92   C112  A    
H59   N16   S    
C94   C110  A    
C20   N31   S    
O15   Zn7   S    
C74   C91   A    
C76   C93   A    
H53   N14   S    
C152  C155  T    
C84   O44   A    
C3    C20   A    
C151  C156  T    
C147  C156  S    
H15   N23   S    
C93   C111  A    
C79   C150  A    
O4    Zn11  S    
H9    N1    S    
C143  C152  S    
C126  C135  S    
C95   C109  S    
O16   Zn6   S    
C96   C113  A    
C58   Cl13  S    
O34   Zn7   S    
H77   N26   S    
C9    C27   A    
C10   C28   A    
C12   C30   A    
O36   Zn3   S    
H38   N6    S    
O42   Zn4   S    
C6    C86   A    
C25   C42   A    
C87   C109  A    
C33   C51   A    
C131  O24   A    
C34   C52   A    
C7    C25   A    
C117  O6    A    
H65   N19   S    
H66   N20   S    
C125  C134  S    
C62   Cl2   S    
C4    C83   A    
C84   C108  S    
O26   Zn9   S    
C112  C128  S    
C15   C94   A    
C63   C72   A    
C10   C90   A    
C60   Cl15  S    
C64   C74   A    
C39   H45   S    
H62   N18   S    
C18   C36   A    
C11   N21   S    
C28   N5    S    
H27   N32   S    
C4    C21   A    
H42   N8    S    
O5    Zn8   S    
C50   H7    S    
C90   C112  A    
C70   C88   A    
C140  C148  T    
C141  C149  S    
C18   N29   S    
C24   C55   A    
C19   N28   S    
H52   N13   S    
C95   O47   A    
C122  O39   A    
O43   Zn4   S    
C144  C153  S    
H24   N30   S    
C57   C86   A    
C79   C105  A    
C97   C118  S    
C24   C82   A    
O24   Zn11  S    
C5    C22   A    
H55   N15   S    
O21   Zn11  S    
C136  C145  T    
C57   C97   A    
C73   O12   A    
C69   C78   A    
C35   C99   A    
C26   C43   A    
O28   Zn12  S    
C4    N14   S    
C28   C45   A    
C5    N15   S    
C66   Cl6   S    
C6    N16   S    
C30   N3    S    
C41   C59   A    
C42   C60   A    
H46   N9    S    
C73   O45   A    
H33   N4    S    
H44   N9    S    
C104  C121  S    
C44   C62   A    
O6    Zn11  S    
C45   C63   A    
C91   C113  A    
C16   C33   A    
C106  O48   A    
C20   C38   A    
C71   C89   A    
C138  C147  T    
O9    Zn1   S    
C3    C82   A    
C17   C158  A    
C32   C50   A    
C36   C53   A    
C75   C92   A    
C125  O14   A    
C135  C144  T    
C15   N25   S    
C86   C105  A    
O12   Zn5   S    
C12   N22   S    
H68   N20   S    
C106  C110  S    
C14   N24   S    
C114  O27   A    
C7    N17   S    
H57   N15   S    
H21   N29   S    
C116  O29   A    
H58   N16   S    
C89   C111  A    
C65   C75   A    
H73   N24   S    
O2    Zn9   S    
C1    O46   A    
C6    C23   A    
C33   N4    S    
C37   H23   S    
C16   N26   S    
C2    C80   A    
C45   H3    S    
C49   H6    S    
C22   N12   S    
O45   Zn7   S    
C160  N11   S    
C119  O36   A    
H63   N18   S    
C153  C154  T    
C85   C107  A    
C8    N18   S    
