data_mof_unit_53703.cif
_audit_creation_date              2012-10-26T19:25:18-0400
_audit_creation_method            fapswitch 2.2
_symmetry_space_group_name_H-M    P1
_symmetry_Int_Tables_number       1
_space_group_crystal_system       triclinic
_cell_length_a                    12.301285
_cell_length_b                    13.429804
_cell_length_c                    19.349576
_cell_angle_alpha                 77.344765
_cell_angle_beta                  101.559268
_cell_angle_gamma                 116.669506
_cell_volume                      2767.98474602

loop_
_atom_site_label
_atom_site_type_symbol
_atom_type_description
_atom_site_fract_x
_atom_site_fract_y
_atom_site_fract_z
_atom_type_partial_charge
C1    C     C_R   0.853149 0.287835 0.504120 0.540368
C2    C     C_R   0.001262 0.501774 0.146172 0.034923
C3    C     C_R   0.257964 0.019440 0.497968 0.268693
C4    C     C_R   0.999668 0.499472 0.632442 0.545773
C5    C     C_R   0.224867 0.832910 0.482551 -0.018010
C6    C     C_R   0.811308 0.088858 0.505842 -0.136694
C7    C     C_R   0.732941 0.975941 0.503559 -0.142766
C8    C     C_R   0.606691 0.940768 0.493952 -0.087069
C9    C     C_R   0.555513 0.018762 0.484125 0.057438
C10   C     C_R   0.634327 0.134963 0.482581 0.025231
C11   C     C_R   0.427086 0.982844 0.480097 0.022697
C12   C     C_R   0.999038 0.498598 0.708489 0.015603
C13   C     C_R   0.380862 0.058738 0.487436 0.036531
C14   C     C_R   0.455848 0.173169 0.477260 -0.117952
C15   C     C_R   0.577088 0.210094 0.467499 -0.138990
C16   C     C_R   0.145043 0.712519 0.488380 0.558235
C17   C     C_R   0.343281 0.877837 0.461181 0.228399
C18   C     C_R   0.183456 0.904125 0.501513 -0.139541
C19   C     C_R   0.764922 0.169785 0.496591 0.001708
C20   C     C_R   0.354253 0.341839 0.621374 0.274536
C21   C     C_R   0.754210 0.641175 0.401764 0.128971
C22   C     C_R   0.651050 0.662187 0.377777 -0.167352
C23   C     C_R   0.000710 0.500976 0.070057 0.347789
C24   C     C_R   0.547656 0.603626 0.413034 -0.146861
C25   C     C_R   0.546411 0.525195 0.474661 -0.004541
C26   C     C_R   0.652850 0.503805 0.496831 0.156006
C27   C     C_R   0.444098 0.468629 0.515363 -0.052733
C28   C     C_R   0.000305 0.500487 0.367565 0.544343
C29   C     C_R   0.450476 0.392947 0.578176 0.045924
C30   C     C_R   0.552848 0.369457 0.597184 -0.161874
C31   C     C_R   0.650640 0.422462 0.557016 -0.137072
C32   C     C_R   0.335830 0.485667 0.497073 0.009536
C33   C     C_R   0.252247 0.366070 0.601068 0.071805
C34   C     C_R   0.999217 0.498840 0.929997 0.347200
C35   C     C_R   0.089912 0.480922 0.759398 -0.129506
C36   C     C_R   0.089790 0.480754 0.831396 -0.116419
C37   C     C_R   0.998692 0.498098 0.853876 0.036139
C38   C     C_R   0.907387 0.515123 0.802923 -0.117350
C39   C     C_R   0.907573 0.515398 0.730904 -0.135941
C40   C     C_3   0.128938 0.104681 0.457264 -0.120324
C41   C     C_3   0.345807 0.752633 0.396005 -0.096222
C42   C     C_3   0.388952 0.318616 0.742172 -0.130957
C43   C     C_1   0.859015 0.705113 0.363096 0.248046
C44   C     C_R   0.093087 0.485598 0.197073 -0.116559
C45   C     C_R   0.092958 0.485439 0.269083 -0.140773
C46   C     C_R   0.000966 0.501402 0.291536 0.017380
C47   C     C_R   0.909560 0.518199 0.240690 -0.114839
C48   C     C_R   0.909675 0.518341 0.168700 -0.113145
Cu1   Cu    Cu3+1 0.098280 0.475420 0.516260 0.917310
Cu2   Cu    Cu3+1 0.901720 0.524580 0.483740 0.938453
H1    H     H_    0.161491 0.467525 0.743697 0.122977
H2    H     H_    0.319628 0.535162 0.448134 0.109370
H3    H     H_    0.470268 0.621726 0.390702 0.083093
H4    H     H_    0.650196 0.723812 0.331153 0.112324
H5    H     H_    0.721931 0.395433 0.574978 0.187648
H6    H     H_    0.835749 0.528493 0.818527 0.135271
H7    H     H_    0.836017 0.528801 0.692878 0.130080
H8    H     H_    0.165109 0.472845 0.181426 0.138442
H9    H     H_    0.164972 0.472803 0.307083 0.120241
H10   H     H_    0.837526 0.530853 0.256440 0.139149
H11   H     H_    0.837713 0.531176 0.130811 0.140525
H12   H     H_    0.419094 0.234626 0.471902 0.161716
H13   H     H_    0.092588 0.870951 0.517456 0.143662
H14   H     H_    0.164508 0.129781 0.404536 0.121191
H15   H     H_    0.108338 0.173346 0.465529 0.150467
H16   H     H_    0.041902 0.026728 0.457025 0.117551
H17   H     H_    0.248811 0.695819 0.381376 0.157978
H18   H     H_    0.385229 0.719178 0.447308 0.108769
H19   H     H_    0.397354 0.757313 0.353653 0.129292
H20   H     H_    0.316547 0.342889 0.748637 0.104241
H21   H     H_    0.478961 0.393625 0.740180 0.111240
H22   H     H_    0.397547 0.258614 0.790102 0.160779
H23   H     H_    0.908949 0.112627 0.515887 0.135025
H24   H     H_    0.549921 0.851478 0.497781 0.118817
H25   H     H_    0.770368 0.914514 0.511629 0.122372
H26   H     H_    0.619370 0.297395 0.445678 0.168195
H27   H     H_    0.177221 0.327087 0.633361 0.135799
H28   H     H_    0.558135 0.309230 0.643736 0.169107
H29   H     H_    0.161320 0.467219 0.869332 0.137321
N1    N     N_R   0.911445 0.515515 0.952051 -0.230640
N2    N     N_R   0.912161 0.516531 0.020708 -0.228659
N3    N     N_R   0.088478 0.484295 0.048004 -0.228814
N4    N     N_R   0.087758 0.483273 0.979346 -0.228679
N5    N     N_R   0.246290 0.438200 0.540910 -0.271984
N6    N     N_R   0.754310 0.561190 0.459520 -0.251513
N7    N     N_1   0.942689 0.757209 0.331520 -0.297647
O1    O     O_R   0.972510 0.318130 0.520450 -0.499044
O2    O     O_3   0.357413 0.861288 0.395669 -0.557823
O3    O     O_3   0.357419 0.264879 0.681470 -0.561773
O4    O     O_R   0.806530 0.359650 0.492990 -0.540687
O5    O     O_R   0.083010 0.479220 0.613590 -0.506300
O6    O     O_R   0.917030 0.520740 0.586130 -0.523727
O7    O     O_R   0.193470 0.640350 0.507010 -0.514513
O8    O     O_R   0.027490 0.681870 0.479550 -0.491967
O9    O     O_R   0.082970 0.479260 0.413870 -0.524711
O10   O     O_R   0.916990 0.520780 0.386410 -0.495583
O11   O     O_3   0.216347 0.091411 0.513435 -0.554122

loop_
_geom_bond_atom_site_label_1
_geom_bond_atom_site_label_2
_ccdc_geom_bond_type
C1    O1    A    
C1    O4    A    
C23   N3    A    
C27   C29   A    
C17   O2    S    
Cu1   O1    S    
C35   C36   A    
C33   H27   S    
C7    C8    A    
C22   H4    S    
C45   C46   A    
C6    C19   A    
C28   C46   S    
C16   O7    A    
C29   C30   A    
C28   O9    A    
Cu1   N5    S    
C36   C37   A    
C10   C15   A    
C38   C39   A    
C18   H13   S    
C5    C17   A    
C39   H7    S    
C42   H20   S    
C3    C18   A    
C32   H2    S    
C5    C16   S    
Cu2   N6    S    
C34   N1    A    
C47   H10   S    
C21   C43   S    
Cu2   O4    S    
C11   C17   A    
C44   H8    S    
C8    C9    A    
C4    C12   S    
C9    C10   A    
C3    C13   A    
C4    O5    A    
C15   H26   S    
C26   C31   A    
C40   H16   S    
C13   C14   A    
Cu1   O5    S    
C42   H22   S    
C41   H18   S    
C20   C29   A    
C32   N5    A    
C21   N6    A    
C1    C19   S    
C24   C25   A    
C41   H17   S    
C2    C44   A    
C40   O11   S    
Cu2   O8    S    
C7    H25   S    
C5    C18   A    
C2    C48   A    
C24   H3    S    
C37   C38   A    
C3    O11   S    
C47   C48   A    
C10   C19   A    
C8    H24   S    
Cu1   O9    S    
C12   C35   A    
C9    C11   A    
C20   C33   A    
Cu2   O6    S    
Cu1   Cu2   S    
C40   H15   S    
C35   H1    S    
C22   C24   A    
C34   N4    A    
C44   C45   A    
C6    H23   S    
C41   H19   S    
C41   O2    S    
C46   C47   A    
C45   H9    S    
C23   N2    A    
C27   C32   A    
C43   N7    T    
N1    N2    A    
C36   H29   S    
C6    C7    A    
C34   C37   S    
C25   C27   A    
C20   O3    S    
C16   O8    A    
C40   H14   S    
C28   O10   A    
C42   O3    S    
C31   H5    S    
C12   C39   A    
C25   C26   A    
C11   C13   A    
Cu2   O10   S    
C48   H11   S    
C30   C31   A    
C26   N6    A    
C42   H21   S    
C33   N5    A    
C30   H28   S    
C38   H6    S    
N3    N4    A    
C2    C23   S    
C14   C15   A    
Cu1   O7    S    
C21   C22   A    
C4    O6    A    
C14   H12   S    
