data_mof_unit_66982.cif
_audit_creation_date              2012-12-11T17:40:59-0500
_audit_creation_method            fapswitch 2.2
_symmetry_space_group_name_H-M    P1
_symmetry_Int_Tables_number       1
_space_group_crystal_system       triclinic
_cell_length_a                    8.416733
_cell_length_b                    12.904773
_cell_length_c                    14.308002
_cell_angle_alpha                 92.961541
_cell_angle_beta                  90.876022
_cell_angle_gamma                 98.91628
_cell_volume                      1532.82067027

loop_
_atom_site_label
_atom_site_type_symbol
_atom_type_description
_atom_site_fract_x
_atom_site_fract_y
_atom_site_fract_z
_atom_type_partial_charge
Ba1   Ba    Ba6+2 0.855630 0.555280 0.454520 1.606639
Ba2   Ba    Ba6+2 0.334200 0.444810 0.545490 1.604056
C1    C     C_3   0.626802 0.942456 0.176788 -0.405565
C2    C     C_R   0.181073 0.496684 0.195638 0.044722
C3    C     C_R   0.336827 0.540957 0.224729 -0.285300
C4    C     C_3   0.137986 0.805800 0.199549 0.356471
C5    C     C_R   0.446804 0.589547 0.162981 0.019911
C6    C     C_R   0.401970 0.595171 0.069264 -0.140550
C7    C     C_R   0.247548 0.549814 0.035535 0.002328
C8    C     C_R   0.136094 0.497881 0.098285 -0.026749
C9    C     C_R   0.058383 0.500114 0.901149 -0.040395
C10   C     C_R   0.947104 0.449479 0.964509 0.001006
C11   C     C_R   0.016767 0.493598 0.802352 0.061423
C12   C     C_3   0.649017 0.846406 0.229845 0.340856
C13   C     C_R   0.872915 0.428962 0.771351 -0.201221
C14   C     C_R   0.755952 0.395222 0.836099 0.008225
C15   C     C_R   0.793259 0.404287 0.931679 -0.162153
C16   C     C_3   0.127828 0.845123 0.101582 -0.373501
C17   C     C_R   0.206196 0.553384 0.939358 -0.047274
C18   C     C_R   0.766361 0.173593 0.521470 -0.271546
C19   C     C_R   0.435341 0.814215 0.456099 -0.195157
C20   C     C_R   0.401155 0.994051 0.433222 -0.116354
C21   C     C_R   0.340323 0.887569 0.426550 0.011187
C22   C     C_R   0.578519 0.847024 0.509862 0.036692
C23   C     C_3   0.458148 0.313849 0.265741 0.307887
C24   C     C_R   0.640492 0.957403 0.517428 -0.059911
C25   C     C_R   0.552586 0.030700 0.475279 -0.055832
C26   C     C_R   0.617336 0.139517 0.478690 0.038705
C27   C     C_R   0.852683 0.104565 0.562671 0.017740
C28   C     C_3   0.174106 0.763180 0.656380 0.313427
C29   C     C_R   0.788741 0.997459 0.563436 -0.089161
C30   C     C_3   0.131369 0.871020 0.681008 -0.339069
C31   C     C_3   0.965361 0.237522 0.338769 0.274350
C32   C     C_3   0.969323 0.121278 0.317176 -0.342947
C33   C     C_3   0.593804 0.753842 0.750848 0.328659
C34   C     C_3   0.457564 0.303129 0.160201 -0.394198
C35   C     C_3   0.535543 0.858290 0.752809 -0.416004
C36   C     C_3   0.646899 0.736524 0.851726 -0.162907
C37   C     C_3   0.761674 0.657112 0.856070 -0.327407
C38   C     C_3   0.419995 0.087485 0.803670 -0.203334
C39   C     C_3   0.461644 0.095518 0.700833 -0.333501
C40   C     C_3   0.829415 0.401562 0.669944 -0.245402
C41   C     C_3   0.380520 0.701523 0.425378 -0.256879
C42   C     C_3   0.984966 0.177422 0.789086 0.343871
C43   C     C_3   0.960986 0.127402 0.882845 -0.388711
C44   C     C_3   0.507460 0.179682 0.863140 0.377355
C45   C     C_3   0.506526 0.151443 0.965359 -0.380870
C46   C     C_R   0.986315 0.448155 0.060811 -0.033879
H1    H     H_    0.736889 0.870489 0.288725 0.080348
H2    H     H_    0.496187 0.690464 0.727247 0.097125
H3    H     H_    0.591102 0.003956 0.225780 0.094918
H4    H     H_    0.634821 0.921601 0.777143 0.110543
H5    H     H_    0.432375 0.853090 0.800502 0.104824
H6    H     H_    0.496378 0.876971 0.683099 0.066302
H7    H     H_    0.530533 0.815273 0.258775 -0.047191
H8    H     H_    0.531161 0.920618 0.121803 0.110964
H9    H     H_    0.334458 0.319234 0.288749 0.034209
H10   H     H_    0.541094 0.387052 0.287675 0.054200
H11   H     H_    0.386887 0.226334 0.136447 0.132186
H12   H     H_    0.211257 0.911204 0.737871 0.109490
H13   H     H_    0.402722 0.366051 0.128779 0.071790
H14   H     H_    0.583954 0.309151 0.137686 0.110586
H15   H     H_    0.740502 0.974196 0.142862 0.127357
H16   H     H_    0.156654 0.784576 0.049240 0.068901
H17   H     H_    0.059505 0.256154 0.801120 0.074942
H18   H     H_    0.864546 0.185916 0.760444 -0.065842
H19   H     H_    0.898372 0.177295 0.930786 0.074066
H20   H     H_    0.886887 0.048380 0.872923 0.110491
H21   H     H_    0.078891 0.119870 0.915397 0.120529
H22   H     H_    0.635741 0.193410 0.843287 -0.028666
H23   H     H_    0.142004 0.918409 0.618373 0.109748
H24   H     H_    0.583900 0.214067 0.007006 0.096953
H25   H     H_    0.558354 0.078272 0.974124 0.076874
H26   H     H_    0.050413 0.732229 0.202822 0.093984
H27   H     H_    0.381827 0.140434 0.991469 0.117646
H28   H     H_    0.375911 0.532412 0.295658 0.042827
H29   H     H_    0.489693 0.632811 0.022816 0.076345
H30   H     H_    0.700545 0.379204 0.980715 0.071712
H31   H     H_    0.899243 0.406105 0.105502 0.101360
H32   H     H_    0.291955 0.596108 0.894654 0.107127
H33   H     H_    0.328771 0.047200 0.404260 0.106961
H34   H     H_    0.006778 0.863539 0.706544 0.145368
H35   H     H_    0.857003 0.946668 0.598632 0.104516
H36   H     H_    0.819476 0.254948 0.518875 0.026925
H37   H     H_    0.261860 0.788888 0.211571 -0.060303
H38   H     H_    0.004479 0.861374 0.086515 0.147308
H39   H     H_    0.215002 0.918337 0.095571 0.107872
H40   H     H_    0.292537 0.769438 0.623601 -0.080879
H41   H     H_    0.085545 0.725497 0.603316 0.117449
H42   H     H_    0.722490 0.592023 0.803821 0.118713
H43   H     H_    0.885214 0.694443 0.839545 0.123583
H44   H     H_    0.763352 0.627090 0.927339 0.114972
H45   H     H_    0.840418 0.249429 0.352151 0.016620
H46   H     H_    0.708073 0.810794 0.887976 0.095067
H47   H     H_    0.537648 0.709603 0.891051 0.061801
H48   H     H_    0.593278 0.101232 0.692315 0.065500
H49   H     H_    0.400775 0.026192 0.658839 0.121818
H50   H     H_    0.419886 0.164777 0.673021 0.200761
H51   H     H_    0.453644 0.016374 0.830379 0.058258
H52   H     H_    0.289438 0.081276 0.813287 0.165485
H53   H     H_    0.774456 0.318002 0.664045 0.038916
H54   H     H_    0.755488 0.458088 0.642767 0.140196
H55   H     H_    0.922717 0.397744 0.620917 0.161732
H56   H     H_    0.044030 0.262894 0.401441 0.067846
H57   H     H_    0.467512 0.650845 0.418385 0.159232
H58   H     H_    0.288641 0.663856 0.472958 0.127972
H59   H     H_    0.346666 0.698483 0.350425 0.044065
H60   H     H_    0.897524 0.094264 0.252518 0.118796
H61   H     H_    0.918797 0.074157 0.375286 0.085062
H62   H     H_    0.095325 0.108165 0.306681 0.136115
O1    O     O_2   0.887370 0.460630 0.272300 -0.459962
O2    O     O_2   0.184765 0.112258 0.562301 -0.492478
O3    O     O_3   0.063510 0.113842 0.728425 -0.610700
O4    O     O_3   0.129410 0.451380 0.388510 -0.508080
O5    O     O_3   0.575400 0.626570 0.547370 -0.503981
O6    O     O_2   0.344320 0.238700 0.455090 -0.469631
O7    O     O_3   0.510084 0.224971 0.300817 -0.643219
O8    O     O_2   0.472471 0.461768 0.827089 -0.472828
O9    O     O_3   0.424932 0.265557 0.853020 -0.578654
O10   O     O_3   0.670210 0.653170 0.329170 -0.497391
O11   O     O_2   0.777839 0.584413 0.166439 -0.485655
O12   O     O_3   0.724520 0.755353 0.692239 -0.616010
O13   O     O_3   0.017855 0.291633 0.260207 -0.638711
O14   O     O_3   0.708483 0.773356 0.168606 -0.596623
O15   O     O_2   0.845380 0.761330 0.544970 -0.456522
O16   O     O_3   0.088930 0.704860 0.376040 -0.497567
O17   O     O_2   0.006769 0.886553 0.438328 -0.485761
O18   O     O_3   0.100693 0.882754 0.265269 -0.601537
O19   O     O_2   0.302330 0.539400 0.727760 -0.453670
O20   O     O_3   0.060300 0.548700 0.611500 -0.530385
O21   O     O_3   0.519500 0.346920 0.670840 -0.483614
O22   O     O_3   0.176603 0.708556 0.738615 -0.651511
O23   O     O_3   0.614310 0.373510 0.452640 -0.487952
O24   O     O_3   0.100780 0.295230 0.623970 -0.497267
P1    P     P_3+3 0.054400 0.427280 0.286870 0.961770
P2    P     P_3+3 0.668300 0.742890 0.573060 0.955277
P3    P     P_3+3 0.133821 0.842163 0.377913 0.941670
P4    P     P_3+3 0.135310 0.572810 0.713130 0.943171
P5    P     P_3+3 0.050673 0.157642 0.615659 0.937045
P6    P     P_3+3 0.649874 0.646831 0.206980 0.948345
P7    P     P_3+3 0.523251 0.242205 0.422471 0.928549
P8    P     P_3+3 0.544286 0.363847 0.795000 0.959774

loop_
_geom_bond_atom_site_label_1
_geom_bond_atom_site_label_2
_ccdc_geom_bond_type
O16   P3    S    
C31   H56   S    
C9    C11   A    
C42   H18   S    
Ba2   O21   S    
C14   P8    S    
C10   C46   A    
C34   H11   S    
C16   H16   S    
C40   H55   S    
C38   H51   S    
C5    C6    A    
C38   C44   S    
C9    C17   A    
C24   C25   A    
C16   H38   S    
C4    H37   S    
C46   H31   S    
C33   C35   S    
Ba1   O15   S    
C41   H57   S    
C36   C37   S    
C34   H14   S    
C12   H1    S    
O5    P2    S    
O22   P4    S    
C13   C14   A    
Ba2   O19   S    
C29   H35   S    
Ba1   Ba2   S    
C1    H8    S    
C19   C41   S    
Ba2   O6    S    
C7    C17   A    
O19   P4    D    
C6    C7    A    
C36   H47   S    
C43   H19   S    
O4    P1    S    
O3    P5    S    
O10   P6    S    
Ba1   P2    S    
C7    C8    A    
C37   H42   S    
C35   H5    S    
C22   P2    S    
C12   H7    S    
C24   C29   A    
O2    P5    D    
C42   H17   S    
C23   H9    S    
C43   H20   S    
C28   H41   S    
Ba1   O23   S    
C40   H54   S    
C37   H43   S    
O14   P6    S    
C4    H26   S    
C30   H23   S    
C18   C27   A    
C27   P5    S    
C4    C16   S    
Ba2   O23   S    
C12   O14   S    
C43   H21   S    
Ba2   P4    S    
C20   H33   S    
C33   C36   S    
Ba1   O16   S    
C45   H25   S    
Ba1   O20   S    
O24   P5    S    
C3    C5    A    
C35   H4    S    
C1    H3    S    
C14   C15   A    
C18   C26   A    
C18   H36   S    
O13   P1    S    
C41   H58   S    
C10   C15   A    
O7    P7    S    
O18   P3    S    
O17   P3    D    
Ba2   O5    S    
C31   H45   S    
C36   H46   S    
C33   H2    S    
C31   C32   S    
C41   H59   S    
O21   P8    S    
O12   P2    S    
C1    C12   S    
C2    P1    S    
C35   H6    S    
O15   P2    D    
C38   C39   S    
C42   O3    S    
C20   C25   A    
C19   C21   A    
C8    C46   A    
C6    H29   S    
C32   H62   S    
C39   H49   S    
Ba1   O4    S    
C30   H12   S    
C2    C8    A    
C34   H13   S    
O20   P4    S    
C40   H53   S    
C37   H44   S    
C42   C43   S    
O11   P6    D    
C32   H61   S    
C44   C45   S    
C39   H50   S    
C21   P3    S    
C33   O12   S    
C13   C40   S    
C22   C24   A    
C2    C3    A    
O8    P8    D    
C23   O7    S    
C38   H52   S    
C9    C10   A    
Ba2   O24   S    
C1    H15   S    
C30   H34   S    
O23   P7    S    
C16   H39   S    
C32   H60   S    
C11   P4    S    
C3    H28   S    
C11   C13   A    
C4    O18   S    
C27   C29   A    
Ba1   O1    S    
C28   C30   S    
Ba2   O4    S    
O1    P1    D    
C5    P6    S    
C28   O22   S    
C15   H30   S    
Ba2   O20   S    
C44   O9    S    
C17   H32   S    
C45   H24   S    
C44   H22   S    
C23   C34   S    
C45   H27   S    
O6    P7    D    
C39   H48   S    
C23   H10   S    
C19   C22   A    
C25   C26   A    
C31   O13   S    
O9    P8    S    
C20   C21   A    
C26   P7    S    
Ba1   O5    S    
Ba1   P1    S    
C28   H40   S    
Ba1   O10   S    
