data_mof_unit_36010.cif
_audit_creation_date              2012-12-10T20:32:00-0500
_audit_creation_method            fapswitch 2.2
_symmetry_space_group_name_H-M    P1
_symmetry_Int_Tables_number       1
_space_group_crystal_system       triclinic
_cell_length_a                    9.943034
_cell_length_b                    10.66769
_cell_length_c                    15.293333
_cell_angle_alpha                 92.159109
_cell_angle_beta                  67.725806
_cell_angle_gamma                 89.164762
_cell_volume                      1499.31129139

loop_
_atom_site_label
_atom_site_type_symbol
_atom_type_description
_atom_site_fract_x
_atom_site_fract_y
_atom_site_fract_z
_atom_type_partial_charge
C1    C     C_R   0.503377 0.739615 0.493882 0.868401
C2    C     C_R   0.404733 0.399305 0.913240 0.078001
C3    C     C_R   0.257808 0.429022 0.971320 0.143068
C4    C     C_R   0.505022 0.370853 0.956002 -0.077066
C5    C     C_R   0.465767 0.408684 0.052351 0.009780
C6    C     C_R   0.317634 0.432255 0.109293 -0.114002
C7    C     C_R   0.214177 0.438045 0.069251 -0.259750
C8    C     C_R   0.640460 0.304673 0.908518 0.509756
C9    C     C_R   0.737599 0.290718 0.954258 -0.314916
C10   C     C_R   0.707620 0.347623 0.043582 0.029209
C11   C     C_R   0.574506 0.414722 0.090386 -0.034703
C12   C     C_R   0.408819 0.488146 0.675797 0.852928
C13   C     C_R   0.807324 0.336544 0.087903 -0.197697
C14   C     C_R   0.775135 0.392095 0.177936 -0.287258
C15   C     C_R   0.555408 0.487527 0.173183 0.472195
C16   C     C_R   0.402169 0.935455 0.463350 0.068626
C17   C     C_R   0.517909 0.869261 0.471172 -0.116304
C18   C     C_R   0.647643 0.930918 0.457877 -0.221314
C19   C     C_R   0.647352 0.061020 0.458507 -0.209007
C20   C     C_R   0.517710 0.127577 0.472059 -0.171434
C21   C     C_R   0.401546 0.064146 0.463032 0.126942
C22   C     C_3   0.243390 0.075187 0.525145 0.358249
C23   C     C_R   0.504204 0.259780 0.494079 0.847717
C24   C     C_3   0.247228 0.933969 0.527249 -0.547609
C25   C     C_R   0.902408 0.597162 0.543879 0.077163
C26   C     C_R   0.960818 0.414112 0.446457 -0.144701
C27   C     C_R   0.104464 0.414420 0.446185 -0.059316
C28   C     C_R   0.044181 0.596533 0.544057 0.049382
C29   C     C_3   0.988575 0.637454 0.646266 -0.132721
C30   C     C_3   0.835292 0.651770 0.644202 0.878321
C31   C     C_R   0.591417 0.496713 0.323377 0.894947
C32   C     C_R   0.350707 0.453499 0.776006 -0.142256
C33   C     C_R   0.647423 0.465881 0.221592 -0.164467
C34   C     C_R   0.156183 0.450167 0.930673 -0.290885
C35   C     C_R   0.200429 0.454707 0.832745 0.212628
C36   C     C_R   0.449110 0.413914 0.815645 -0.241791
H1    H     H_    0.101261 0.456788 0.114607 0.151483
H2    H     H_    0.907091 0.280757 0.054655 0.153473
H3    H     H_    0.744184 0.880668 0.456094 0.194047
H4    H     H_    0.743544 0.108629 0.456723 0.165887
H5    H     H_    0.222633 0.125071 0.594524 0.062952
H6    H     H_    0.238711 0.903717 0.597416 0.183496
H7    H     H_    0.179697 0.885254 0.493621 0.239935
H8    H     H_    0.932654 0.342954 0.404593 0.138096
H9    H     H_    0.183960 0.343976 0.403666 0.186254
H10   H     H_    0.000440 0.559342 0.688140 0.189899
H11   H     H_    0.846982 0.373623 0.214662 0.172360
H12   H     H_    0.837191 0.235764 0.919297 0.166068
H13   H     H_    0.042161 0.463786 0.974926 0.150566
H14   H     H_    0.562048 0.403188 0.770387 0.271281
H15   H     H_    0.279382 0.441366 0.185568 0.192306
N1    N     N_R   0.856900 0.500860 0.500610 -0.102840
N2    N     N_R   0.142540 0.500820 0.500610 -0.099348
O1    O     O_R   0.385310 0.683210 0.499990 -0.577576
O2    O     O_R   0.614650 0.683240 0.500000 -0.623680
O3    O     O_R   0.319830 0.499970 0.632240 -0.585599
O4    O     O_R   0.549170 0.500000 0.632250 -0.569197
O5    O     O_R   0.385350 0.316760 0.500000 -0.620008
O6    O     O_R   0.614690 0.316790 0.500010 -0.618715
O7    O     O_R   0.450830 0.500000 0.367750 -0.562670
O8    O     O_R   0.680170 0.500030 0.367760 -0.627127
Zn1   Zn    Zn3+2 0.346870 0.499980 0.499990 0.985601
Zn2   Zn    Zn3+2 0.653130 0.500020 0.500010 0.964389
O9    O     O_3   0.159581 0.118693 0.475243 -0.592100
C37   C     C_3   0.012546 0.130376 0.537547 -0.293197
H16   H     H_    0.996516 0.207637 0.591634 0.178846
H17   H     H_    0.971751 0.041112 0.572226 0.177255
H18   H     H_    0.946046 0.154204 0.496288 0.178667
O10   O     O_3   0.445807 0.579202 0.208343 -0.612437
C38   C     C_3   0.500758 0.693035 0.167170 -0.315730
H19   H     H_    0.534508 0.685525 0.088867 0.154579
H20   H     H_    0.592975 0.723720 0.186382 0.153434
H21   H     H_    0.413219 0.766705 0.194988 0.202700
N3    N     N_2   0.049541 0.753400 0.665077 -0.280145
H22   H     H_    0.005626 0.835839 0.653167 0.266557
C39   C     C_3   0.081566 0.759759 0.749883 -0.809003
H23   H     H_    0.118157 0.854970 0.760443 0.217154
H24   H     H_    0.170627 0.691689 0.742788 0.268925
H25   H     H_    0.983844 0.740194 0.812996 0.227765
O11   O     O_3   0.733948 0.573982 0.708847 -0.623526
C40   C     C_3   0.713325 0.608556 0.803726 -0.409985
H26   H     H_    0.764659 0.535811 0.831730 0.185591
H27   H     H_    0.755973 0.701574 0.813580 0.176881
H28   H     H_    0.595362 0.613538 0.847438 0.194004
O12   O     O_3   0.788677 0.779481 0.645114 -0.676521
C41   C     C_3   0.636349 0.800442 0.683794 -0.264018
H29   H     H_    0.598155 0.821772 0.761075 0.150840
H30   H     H_    0.575466 0.721817 0.669511 0.216305
H31   H     H_    0.609792 0.884425 0.652175 0.162467
N4    N     N_2   0.092637 0.453910 0.793073 -0.304122
H32   H     H_    0.993167 0.490693 0.838659 0.211519
C42   C     C_3   0.079049 0.333090 0.751293 -0.759433
H33   H     H_    0.060155 0.258977 0.803292 0.220933
H34   H     H_    0.986415 0.337116 0.727716 0.249340
H35   H     H_    0.179338 0.307369 0.689285 0.252783
O13   O     O_3   0.677651 0.247701 0.819473 -0.623141
C43   C     C_3   0.621377 0.126226 0.829147 -0.346976
H36   H     H_    0.500552 0.129551 0.863641 0.165984
H37   H     H_    0.669297 0.066920 0.869030 0.166496
H38   H     H_    0.651104 0.080981 0.757526 0.199862

loop_
_geom_bond_atom_site_label_1
_geom_bond_atom_site_label_2
_ccdc_geom_bond_type
O5    Zn1   S    
C23   O5    A    
C16   C21   A    
C24   H6    S    
C31   O8    A    
C19   C20   A    
C8    O13   S    
C39   H25   S    
C4    C8    A    
C40   H28   S    
C14   C33   A    
C40   H26   S    
C26   H8    S    
O12   C41   S    
C25   C28   A    
C23   O6    A    
C26   C27   A    
N3    C39   S    
C32   C36   A    
C28   C29   S    
C39   H24   S    
C5    C11   A    
C3    C7    A    
C5    C6    A    
C41   H30   S    
C22   H5    S    
C43   H36   S    
C8    C9    A    
O7    Zn1   S    
C34   C35   A    
O8    Zn2   S    
C40   H27   S    
C11   C15   A    
C16   C17   A    
C37   H17   S    
O2    Zn2   S    
C31   C33   S    
C38   H19   S    
C6    H15   S    
C9    C10   A    
C30   O11   S    
C27   H9    S    
C16   C24   S    
C21   C22   S    
C12   C32   S    
C43   H37   S    
O4    Zn2   S    
C6    C7    A    
C15   O10   S    
N3    H22   S    
C32   C35   A    
C39   H23   S    
C19   H4    S    
C41   H29   S    
C18   C19   A    
C29   N3    S    
O1    Zn1   S    
C3    C34   A    
C10   C13   A    
C42   H35   S    
C41   H31   S    
C31   O7    A    
C2    C4    A    
C18   H3    S    
C29   C30   S    
C26   N1    A    
N2    Zn1   S    
N4    C42   S    
C20   C23   S    
C37   H18   S    
O13   C43   S    
C38   H21   S    
C42   H34   S    
C17   C18   A    
C7    H1    S    
C30   O12   S    
C13   H2    S    
C12   O3    A    
C1    O1    A    
C12   O4    A    
O3    Zn1   S    
C43   H38   S    
C36   H14   S    
C2    C36   A    
C25   C30   S    
C34   H13   S    
O6    Zn2   S    
O11   C40   S    
N1    Zn2   S    
C28   N2    A    
C27   N2    A    
C14   H11   S    
C1    C17   S    
C29   H10   S    
O9    C37   S    
C2    C3    A    
C1    O2    A    
C25   N1    A    
N4    H32   S    
C42   H33   S    
C22   C24   S    
O10   C38   S    
C10   C11   A    
C22   O9    S    
C35   N4    S    
C4    C5    A    
C20   C21   A    
C9    H12   S    
C37   H16   S    
C24   H7    S    
C38   H20   S    
C13   C14   A    
C15   C33   A    
