data_mof_unit_20199.cif
_audit_creation_date              2012-12-11T14:46:13-0500
_audit_creation_method            fapswitch 2.2
_symmetry_space_group_name_H-M    P1
_symmetry_Int_Tables_number       1
_space_group_crystal_system       triclinic
_cell_length_a                    10.882685
_cell_length_b                    10.943768
_cell_length_c                    18.804902
_cell_angle_alpha                 90.063723
_cell_angle_beta                  89.554988
_cell_angle_gamma                 120.130678
_cell_volume                      1936.93881902

loop_
_atom_site_label
_atom_site_type_symbol
_atom_type_description
_atom_site_fract_x
_atom_site_fract_y
_atom_site_fract_z
_atom_type_partial_charge
C1    C     C_R   0.864210 0.637852 0.603260 0.537416
C2    C     C_R   0.935898 0.141214 0.709508 -0.003272
C3    C     C_R   0.955741 0.152176 0.784239 0.002829
C4    C     C_R   0.265605 0.629149 0.605286 0.544354
C5    C     C_R   0.749567 0.203524 0.723856 0.019054
C6    C     C_R   0.786007 0.234537 0.795664 0.010944
C7    C     C_R   0.625757 0.204057 0.700716 -0.078682
C8    C     C_R   0.561484 0.261870 0.742668 -0.132636
C9    C     C_R   0.616005 0.316343 0.809211 -0.108225
C10   C     C_R   0.726803 0.301785 0.836075 -0.072733
C11   C     C_R   0.837765 0.174094 0.678464 -0.034465
C12   C     C_R   0.268207 0.548340 0.796539 -0.148409
C13   C     C_R   0.701260 0.634557 0.697385 -0.137658
C14   C     C_R   0.680654 0.654896 0.768665 -0.144350
C15   C     C_R   0.789960 0.688885 0.817526 0.033537
C16   C     C_R   0.859732 0.226442 0.603859 0.532084
C17   C     C_R   0.916789 0.696182 0.796006 -0.118068
C18   C     C_R   0.937442 0.677318 0.725638 -0.115439
C19   C     C_R   0.831760 0.650426 0.676080 0.047258
C20   C     C_R   0.243844 0.539192 0.275929 -0.142008
C21   C     C_R   0.258876 0.554546 0.203300 -0.143458
C22   C     C_R   0.334515 0.689485 0.173771 0.009596
C23   C     C_R   0.252433 0.533454 0.723939 -0.137706
C24   C     C_R   0.383496 0.809740 0.216965 -0.144033
C25   C     C_R   0.367029 0.794924 0.290432 -0.040960
C26   C     C_R   0.301276 0.658403 0.320197 0.016004
C27   C     C_R   0.786010 0.252573 0.275296 -0.112960
C28   C     C_R   0.869726 0.636763 0.395548 0.540645
C29   C     C_R   0.784663 0.236023 0.202665 -0.139619
C30   C     C_R   0.851706 0.167847 0.172552 0.020983
C31   C     C_R   0.931909 0.128501 0.215266 -0.139780
C32   C     C_R   0.935102 0.147356 0.288491 -0.153568
C33   C     C_R   0.857205 0.204223 0.318793 0.035831
C34   C     C_R   0.298319 0.652761 0.680247 0.021848
C35   C     C_R   0.966050 0.714950 0.276238 -0.127610
C36   C     C_R   0.950384 0.715614 0.203686 -0.138678
C37   C     C_R   0.814310 0.650102 0.174646 0.021517
C38   C     C_R   0.694209 0.572016 0.218365 -0.139746
C39   C     C_R   0.710342 0.569083 0.291502 -0.148405
C40   C     C_R   0.267971 0.632118 0.395253 0.547475
C41   C     C_R   0.846090 0.645542 0.320676 0.030466
C42   C     C_R   0.813419 0.109919 0.896873 0.526797
C43   C     C_R   0.393769 0.700835 0.897062 0.534364
C44   C     C_R   0.776232 0.726729 0.889538 0.560084
C45   C     C_R   0.867991 0.183867 0.827700 -0.043626
C46   C     C_R   0.809266 0.108197 0.102059 0.545539
C47   C     C_R   0.393214 0.704260 0.103039 0.548857
C48   C     C_R   0.797617 0.692429 0.104056 0.554345
C49   C     C_R   0.864602 0.235014 0.393967 0.550802
C50   C     C_R   0.352944 0.786860 0.710388 -0.153607
C51   C     C_R   0.371951 0.802366 0.783573 -0.144832
C52   C     C_R   0.334285 0.683179 0.826489 0.015883
C53   C     C_1   0.422988 0.920273 0.333840 0.194534
C54   C     C_R   0.064431 0.132931 0.813214 -0.088257
C55   C     C_R   0.141570 0.090472 0.770584 -0.129300
C56   C     C_R   0.113243 0.067731 0.698335 -0.117389
C57   C     C_R   0.011979 0.093330 0.667792 -0.085876
Cr1   Cr    Cr6+3 0.791660 0.390250 0.499930 1.031870
Cr2   Cr    Cr6+3 0.098520 0.708290 0.500540 1.025733
Cr3   Cr    Cr6+3 0.109770 0.401430 0.499480 1.012663
Cr4   Cr    Cr6+3 0.874790 0.925890 0.000070 1.002916
Cr5   Cr    Cr6+3 0.574120 0.948670 0.999300 1.008239
Cr6   Cr    Cr6+3 0.551420 0.625320 0.000920 1.003322
H1    H     H_    0.383386 0.878931 0.677381 0.115747
H2    H     H_    0.219141 0.460852 0.170547 0.133720
H3    H     H_    0.443013 0.914915 0.194148 0.143252
H4    H     H_    0.423650 0.907844 0.805779 0.146142
H5    H     H_    0.731154 0.303744 0.297381 0.153262
H6    H     H_    0.723861 0.268753 0.170578 0.131672
H7    H     H_    0.984367 0.075209 0.192866 0.142177
H8    H     H_    0.994947 0.114814 0.321401 0.126235
H9    H     H_    0.072685 0.768320 0.297500 0.145803
H10   H     H_    0.044347 0.774693 0.170738 0.131809
H11   H     H_    0.587905 0.520970 0.196769 0.141427
H12   H     H_    0.469524 0.264756 0.723341 0.110352
H13   H     H_    0.617596 0.510461 0.325228 0.128542
H14   H     H_    0.236853 0.455035 0.828744 0.132268
H15   H     H_    0.203057 0.427756 0.702104 0.153661
H16   H     H_    0.223264 0.074592 0.793783 0.108295
H17   H     H_    0.170987 0.031522 0.665692 0.120016
H18   H     H_    0.094376 0.155177 0.868412 0.130889
H19   H     H_    0.991382 0.072030 0.611636 0.129702
H20   H     H_    0.762653 0.337799 0.889674 0.124721
H21   H     H_    0.573468 0.155350 0.651527 0.137728
H22   H     H_    0.568070 0.363667 0.841355 0.130238
H23   H     H_    0.618548 0.611127 0.659058 0.116749
H24   H     H_    0.582189 0.648564 0.785304 0.129098
H25   H     H_    0.001231 0.719274 0.833212 0.137567
H26   H     H_    0.037067 0.685253 0.709549 0.134817
H27   H     H_    0.186250 0.432995 0.297460 0.148966
N1    N     N_1   0.467476 0.020681 0.368616 -0.290638
O1    O     O_R   0.766500 0.250040 0.579790 -0.521201
O2    O     O_R   0.413330 0.603360 0.920440 -0.535091
O3    O     O_R   0.676110 0.626250 0.926750 -0.509572
O4    O     O_R   0.798570 0.516780 0.574780 -0.495336
O5    O     O_R   0.895350 0.809870 0.080950 -0.520388
O6    O     O_R   0.872490 0.049760 0.073800 -0.507320
O7    O     O_R   0.691680 0.088070 0.079070 -0.524090
O8    O     O_R   0.451720 0.825250 0.074050 -0.503897
O9    O     O_R   0.413580 0.606370 0.080960 -0.521103
O10   O     O_R   0.676340 0.629040 0.075550 -0.500723
O11   O     O_3   0.666780 0.833290 0.000090 -0.252748
O12   O     O_R   0.218690 0.701900 0.425960 -0.491808
O13   O     O_R   0.984000 0.732950 0.581090 -0.526632
O14   O     O_R   0.218600 0.700890 0.574760 -0.503574
O15   O     O_R   0.249390 0.515350 0.579940 -0.522236
O16   O     O_R   0.982790 0.280900 0.573700 -0.504276
O17   O     O_R   0.766600 0.251130 0.419260 -0.497232
O18   O     O_R   0.798660 0.517790 0.425980 -0.508229
O19   O     O_R   0.984100 0.734040 0.420570 -0.520891
O20   O     O_R   0.249490 0.516440 0.419420 -0.523684
O21   O     O_R   0.982880 0.281910 0.424890 -0.513030
O22   O     O_3   0.999980 0.499990 0.499980 -0.252276
O23   O     O_R   0.895110 0.806860 0.920430 -0.523033
O24   O     O_R   0.872260 0.046970 0.925000 -0.519843
O25   O     O_R   0.691430 0.085060 0.918550 -0.514479
O26   O     O_R   0.451490 0.822460 0.925250 -0.503958

loop_
_geom_bond_atom_site_label_1
_geom_bond_atom_site_label_2
_ccdc_geom_bond_type
C55   C56   A    
C6    C45   A    
C27   C29   A    
C17   H25   S    
C50   H1    S    
C10   H20   S    
C35   C36   A    
Cr6   O10   S    
C2    C57   A    
C7    C8    A    
C39   C41   A    
C27   C33   A    
C12   C23   A    
Cr2   O14   S    
C20   C26   A    
Cr2   O13   S    
C36   C37   A    
C25   C53   S    
C14   H24   S    
C5    C11   A    
C5    C6    A    
C3    C54   A    
C43   C52   S    
C33   C49   S    
Cr1   O18   S    
C28   C41   S    
Cr2   O19   S    
C47   O8    A    
C56   C57   A    
C18   C19   A    
Cr5   O26   S    
C27   H5    S    
C16   O16   A    
C9    H22   S    
Cr5   O7    S    
C31   H7    S    
C8    C9    A    
C13   H23   S    
Cr4   O24   S    
Cr1   O22   S    
C32   H8    S    
C40   O20   A    
C29   C30   A    
C9    C10   A    
C24   H3    S    
C7    H21   S    
C46   O7    A    
C44   O23   A    
C13   C14   A    
Cr3   O22   S    
Cr6   O11   S    
C2    C11   A    
C12   C52   A    
C50   C51   A    
C49   O17   A    
C29   H6    S    
C38   C39   A    
C4    C34   S    
C1    C19   S    
C34   C50   A    
C13   C19   A    
C51   C52   A    
C24   C25   A    
C36   H10   S    
C5    C7    A    
Cr6   O9    S    
C28   O19   A    
C25   C26   A    
C20   H27   S    
C3    C45   A    
C8    H12   S    
C47   O9    A    
C42   C45   S    
Cr1   O4    S    
Cr5   O25   S    
C37   C38   A    
Cr3   O21   S    
C55   H16   S    
C11   C16   S    
C31   C32   A    
Cr6   O3    S    
C1    O4    A    
C23   C34   A    
C12   H14   S    
C17   C18   A    
C51   H4    S    
C39   H13   S    
C37   C48   S    
C1    O13   A    
Cr3   O16   S    
C43   O26   A    
C49   O21   A    
C53   N1    T    
C42   O25   A    
C46   O6    A    
C35   H9    S    
C16   O1    A    
C22   C24   A    
Cr3   O15   S    
C38   H11   S    
C15   C17   A    
C54   C55   A    
C48   O5    A    
C21   H2    S    
C57   H19   S    
C18   H26   S    
C30   C46   S    
Cr4   O6    S    
Cr2   O22   S    
C15   C44   S    
C28   O18   A    
C4    O14   A    
Cr6   O2    S    
Cr4   O5    S    
C56   H17   S    
Cr2   O12   S    
C32   C33   A    
Cr4   O11   S    
Cr3   O20   S    
C40   O12   A    
C26   C40   S    
C30   C31   A    
C4    O15   A    
C48   O10   A    
C43   O2    A    
C2    C3    A    
Cr1   O17   S    
C23   H15   S    
C35   C41   A    
C22   C47   S    
C44   O3    A    
C6    C10   A    
Cr5   O8    S    
C42   O24   A    
C20   C21   A    
Cr4   O23   S    
C14   C15   A    
C21   C22   A    
Cr1   O1    S    
C54   H18   S    
Cr5   O11   S    
