data_mof_unit_55093.cif
_audit_creation_date              2012-12-10T17:08:44-0500
_audit_creation_method            fapswitch 2.2
_symmetry_space_group_name_H-M    P1
_symmetry_Int_Tables_number       1
_space_group_crystal_system       triclinic
_cell_length_a                    27.760694
_cell_length_b                    11.012183
_cell_length_c                    9.913439
_cell_angle_alpha                 111.370532
_cell_angle_beta                  97.846742
_cell_angle_gamma                 92.821716
_cell_volume                      2779.65964107

loop_
_atom_site_label
_atom_site_type_symbol
_atom_type_description
_atom_site_fract_x
_atom_site_fract_y
_atom_site_fract_z
_atom_type_partial_charge
C1    C     C_R   0.495170 0.253879 0.440064 0.722432
C2    C     C_R   0.502817 0.746409 0.560417 0.745342
C3    C     C_R   0.102480 0.523863 0.503147 -0.053885
C4    C     C_R   0.898521 0.529980 0.498527 -0.050544
C5    C     C_R   0.120487 0.460510 0.371775 -0.015540
C6    C     C_R   0.880308 0.592313 0.629745 -0.017693
C7    C     C_R   0.087647 0.389981 0.243442 -0.114816
C8    C     C_R   0.912973 0.665757 0.757513 -0.113352
C9    C     C_R   0.135679 0.581862 0.635167 -0.096552
C10   C     C_R   0.865459 0.469180 0.366709 -0.099096
C11   C     C_R   0.355168 0.508512 0.502416 -0.163149
C12   C     C_R   0.645053 0.500444 0.497003 -0.196391
C13   C     C_R   0.967469 0.475480 0.363699 -0.021453
C14   C     C_R   0.033579 0.582645 0.637890 -0.021155
C15   C     C_R   0.982510 0.592005 0.633631 0.069934
C16   C     C_R   0.018475 0.466201 0.367733 0.070707
C17   C     C_R   0.949715 0.530911 0.498709 0.038894
C18   C     C_R   0.051324 0.526113 0.502843 0.038992
C19   C     C_R   0.933050 0.437280 0.230603 0.228457
C20   C     C_R   0.067961 0.620380 0.771129 0.229749
C21   C     C_R   0.883093 0.425481 0.233801 -0.155857
C22   C     C_R   0.117995 0.628289 0.767888 -0.157169
C23   C     C_R   0.407768 0.501828 0.501204 0.866958
C24   C     C_R   0.592263 0.499150 0.498739 0.875283
C25   C     C_R   0.037643 0.388462 0.243434 -0.121090
C26   C     C_R   0.963063 0.669736 0.757410 -0.119279
C27   C     C_2   0.490122 0.112700 0.405863 0.288984
C28   C     C_2   0.504784 0.888219 0.595739 0.297901
C29   C     C_2   0.508067 0.069389 0.510309 -0.206799
C30   C     C_2   0.502812 0.930366 0.484571 -0.207731
C31   C     C_2   0.504198 0.512644 0.080815 0.303212
C32   C     C_2   0.495070 0.489459 0.919697 0.300188
C33   C     C_R   0.171130 0.462075 0.373827 0.517262
C34   C     C_R   0.829582 0.585693 0.627944 0.533743
C35   C     C_R   0.186137 0.582701 0.632452 0.629255
C36   C     C_R   0.815058 0.462120 0.369932 0.623016
C37   C     C_R   0.278378 0.580401 0.427537 -0.291317
C38   C     C_R   0.724979 0.444186 0.573000 -0.263625
C39   C     C_R   0.328503 0.572612 0.421601 0.403334
C40   C     C_R   0.674132 0.434210 0.569854 0.441191
C41   C     C_R   0.331206 0.446302 0.578949 -0.418579
C42   C     C_R   0.666623 0.570330 0.423649 -0.346134
C43   C     C_R   0.280609 0.446033 0.575443 0.503977
C44   C     C_R   0.717080 0.579523 0.426483 0.500695
C45   C     C_R   0.254466 0.517356 0.503406 0.225810
C46   C     C_R   0.746336 0.514231 0.499422 0.186911
Cu1   Cu    Cu3+1 0.508480 0.521810 0.644910 1.014717
Cu2   Cu    Cu3+1 0.491520 0.478190 0.355090 0.991197
H1    H     H_    0.351508 0.395628 0.639243 0.218391
H2    H     H_    0.644628 0.621544 0.367800 0.225828
H3    H     H_    0.549344 0.623412 0.928741 0.227829
H4    H     H_    0.452124 0.372488 0.070029 0.204776
H5    H     H_    0.100410 0.331882 0.143431 0.195118
H6    H     H_    0.899975 0.723370 0.857286 0.194423
H7    H     H_    0.748166 0.398025 0.632774 0.178104
H8    H     H_    0.257745 0.635933 0.374010 0.165835
H9    H     H_    0.857814 0.391440 0.130845 0.215295
H10   H     H_    0.143211 0.661180 0.870913 0.211470
H11   H     H_    0.014532 0.319919 0.146687 0.187718
H12   H     H_    0.985970 0.739641 0.853630 0.187648
H13   H     H_    0.495776 0.861369 0.371349 0.220379
H14   H     H_    0.525510 0.137757 0.618270 0.211804
N1    N     N_R   0.202848 0.522520 0.503076 -0.441055
N2    N     N_R   0.798123 0.519604 0.499468 -0.445280
N3    N     N_2   0.478780 0.445430 0.137360 -0.302813
N4    N     N_2   0.521220 0.554570 0.862640 -0.280215
O1    O     O_R   0.504520 0.332330 0.577400 -0.548526
O2    O     O_R   0.495480 0.667670 0.422600 -0.557445
O3    O     O_R   0.490210 0.295500 0.332650 -0.573447
O4    O     O_R   0.509790 0.704500 0.667350 -0.575198
O5    O     O_R   0.437420 0.518430 0.622370 -0.546577
O6    O     O_R   0.562580 0.481570 0.377630 -0.535799
O7    O     O_R   0.423110 0.481600 0.377610 -0.558137
O8    O     O_R   0.576890 0.518400 0.622390 -0.529968
O9    O     O_2   0.188549 0.401813 0.248033 -0.555433
O10   O     O_2   0.811815 0.645798 0.753093 -0.534142
O11   O     O_2   0.783197 0.398203 0.244636 -0.507317
O12   O     O_2   0.218251 0.642802 0.758095 -0.534818
O13   O     O_3   0.513552 0.978303 0.740184 -0.594708
C47   C     C_3   0.474759 0.968052 0.816402 0.106216
H15   H     H_    0.486656 0.035526 0.932497 0.169969
H16   H     H_    0.468555 0.869885 0.822114 0.163940
C48   C     C_3   0.427002 0.012157 0.758851 -0.415306
H17   H     H_    0.410036 0.071939 0.853515 0.206879
H18   H     H_    0.434914 0.074566 0.696843 0.271576
C49   C     C_3   0.389917 0.896116 0.660624 -0.833112
H19   H     H_    0.405184 0.834695 0.563696 0.267912
H20   H     H_    0.356310 0.932594 0.621608 0.258659
H21   H     H_    0.379908 0.835089 0.722542 0.249116
O14   O     O_3   0.467701 0.024408 0.268246 -0.608718
C50   C     C_3   0.417627 0.042884 0.240906 0.044021
H22   H     H_    0.402634 0.973954 0.127345 0.173614
H23   H     H_    0.412676 0.142968 0.242610 0.146771
C51   C     C_3   0.388100 0.012669 0.347769 -0.381437
H24   H     H_    0.397684 0.919600 0.358331 0.245081
H25   H     H_    0.397289 0.092355 0.458170 0.221922
C52   C     C_3   0.333215 0.001266 0.295935 -0.908196
H26   H     H_    0.322516 0.095201 0.289652 0.258591
H27   H     H_    0.313502 0.978157 0.375214 0.251915
H28   H     H_    0.322519 0.921263 0.186350 0.263473
Br1   Br    Br    0.442347 0.359114 0.798315 -0.634924
Br2   Br    Br    0.555419 0.647824 0.203015 -0.566287
O15   O     O_3   0.257130 0.387192 0.654085 -0.592459
C53   C     C_3   0.253796 0.248902 0.585733 0.032847
H29   H     H_    0.252082 0.208533 0.672826 0.187004
H30   H     H_    0.286297 0.212414 0.534756 0.133462
C54   C     C_3   0.206952 0.196982 0.471757 -0.355248
H31   H     H_    0.175356 0.241908 0.521041 0.240033
H32   H     H_    0.210580 0.224627 0.376273 0.237219
C55   C     C_3   0.196986 0.048050 0.417754 -0.862703
H33   H     H_    0.227222 0.000685 0.363229 0.253703
H34   H     H_    0.162534 0.014569 0.336966 0.273124
H35   H     H_    0.193007 0.017180 0.510928 0.259325
O16   O     O_3   0.737615 0.648800 0.353239 -0.567137
C56   C     C_3   0.749280 0.780855 0.450052 0.033030
H36   H     H_    0.775146 0.788266 0.549887 0.162373
H37   H     H_    0.715530 0.825726 0.483508 0.142598
C57   C     C_3   0.773691 0.857304 0.371799 -0.296132
H38   H     H_    0.806721 0.811345 0.334425 0.240924
H39   H     H_    0.747884 0.853399 0.273792 0.238924
C58   C     C_3   0.788707 0.000337 0.472804 -0.895775
H40   H     H_    0.756262 0.048429 0.511476 0.245183
H41   H     H_    0.805607 0.053497 0.412024 0.269916
H42   H     H_    0.815768 0.006588 0.569250 0.268931
O17   O     O_3   0.652427 0.366359 0.643495 -0.577722
C59   C     C_3   0.658964 0.231223 0.584937 0.062993
H43   H     H_    0.645205 0.186383 0.658129 0.191713
H44   H     H_    0.698118 0.214275 0.586755 0.126280
C60   C     C_3   0.629741 0.161358 0.429264 -0.403760
H45   H     H_    0.591752 0.187924 0.427493 0.218868
H46   H     H_    0.646395 0.193718 0.350541 0.223795
C61   C     C_3   0.628758 0.012601 0.379249 -0.814489
H47   H     H_    0.666454 0.983644 0.375767 0.248451
H48   H     H_    0.606851 0.965407 0.267466 0.284824
H49   H     H_    0.611817 0.976937 0.455063 0.262772
O18   O     O_3   0.353526 0.637358 0.350694 -0.617486
C62   C     C_3   0.328640 0.614031 0.207827 0.068776
H50   H     H_    0.303146 0.689920 0.213732 0.159609
H51   H     H_    0.307756 0.514513 0.154967 0.161138
C63   C     C_3   0.366235 0.623776 0.111952 -0.344653
H52   H     H_    0.389364 0.719129 0.164494 0.231504
H53   H     H_    0.390365 0.544442 0.100831 0.241632
C64   C     C_3   0.341677 0.610871 0.959501 -0.824777
H54   H     H_    0.319635 0.514065 0.903419 0.295989
H55   H     H_    0.370055 0.618734 0.893383 0.265930
H56   H     H_    0.317621 0.689984 0.967228 0.268289
Br3   Br    Br    0.948047 0.435049 0.045207 -0.472657
Br4   Br    Br    0.052658 0.626988 0.957779 -0.478513

loop_
_geom_bond_atom_site_label_1
_geom_bond_atom_site_label_2
_ccdc_geom_bond_type
C64   H56   S    
C59   H43   S    
C37   C45   A    
C27   C29   D    
C8    C26   A    
C14   C18   A    
C63   C64   S    
Cu2   O3    S    
C53   H30   S    
C52   H26   S    
C62   H51   S    
C3    C18   A    
C19   C21   A    
C63   H53   S    
C2    O2    A    
C36   O11   S    
C49   H20   S    
C9    C22   A    
C64   H54   S    
C27   O14   S    
C64   H55   S    
Cu1   O1    S    
C11   C23   S    
C28   O13   S    
C57   H38   S    
C58   H42   S    
C12   C42   A    
C55   H33   S    
C37   H8    S    
C33   O9    S    
C38   H7    S    
C31   C32   S    
C61   H47   S    
C56   H37   S    
C5    C33   A    
Cu1   Cu2   S    
C54   H31   S    
C20   Br4   S    
Cu2   N3    S    
Cu1   N4    S    
C60   C61   S    
C1    C27   S    
C35   N1    A    
C44   O16   S    
C41   C43   A    
C51   C52   S    
C42   C44   A    
C23   O7    A    
C47   C48   S    
C41   H1    S    
C53   H29   S    
C52   H27   S    
C44   C46   A    
O16   C56   S    
C55   H34   S    
C39   O18   S    
C10   C21   A    
C62   C63   S    
C58   H41   S    
C13   C19   A    
C43   O15   S    
C31   Br2   S    
C14   C20   A    
C63   H52   S    
C4    C6    A    
C8    H6    S    
C50   H22   S    
C5    C7    A    
C49   H19   S    
O18   C62   S    
C15   C26   A    
C6    C8    A    
C59   C60   S    
C45   N1    S    
C1    O3    A    
C6    C34   A    
C46   N2    S    
H3    N4    S    
C12   C40   A    
C11   C39   A    
Cu1   O4    S    
C21   H9    S    
C29   C30   S    
C3    C9    A    
C23   O5    A    
C50   H23   S    
C48   H17   S    
C33   N1    A    
C56   C57   S    
C34   N2    A    
C16   C18   A    
Cu2   O2    S    
C51   H25   S    
C43   C45   A    
C55   H35   S    
Cu1   O5    S    
C58   H40   S    
C42   H2    S    
C4    C17   A    
C47   H16   S    
C48   H18   S    
C20   C22   A    
O17   C59   S    
C54   C55   S    
C30   H13   S    
Cu2   O6    S    
C4    C10   A    
C52   H28   S    
C24   O6    A    
C32   N4    D    
C60   H45   S    
C16   C25   A    
C31   N3    D    
C29   H14   S    
C59   H44   S    
C14   C15   A    
Cu2   O7    S    
Cu1   O8    S    
C47   H15   S    
C3    C5    A    
C49   H21   S    
C22   H10   S    
C10   C36   A    
C15   C17   A    
C62   H50   S    
C12   C24   S    
C35   O12   S    
C7    C25   A    
C13   C17   A    
C19   Br3   S    
C37   C39   A    
C36   N2    A    
C50   C51   S    
C38   C40   A    
C24   O8    A    
O14   C50   S    
C54   H32   S    
C61   H49   S    
C40   O17   S    
C28   C30   D    
C1    O1    A    
C11   C41   A    
C51   H24   S    
C57   H39   S    
C38   C46   A    
O13   C47   S    
C48   C49   S    
C61   H48   S    
C13   C16   A    
O15   C53   S    
C9    C35   A    
C7    H5    S    
C32   Br1   S    
C2    C28   S    
C25   H11   S    
C2    O4    A    
C26   H12   S    
C57   C58   S    
C53   C54   S    
H4    N3    S    
C56   H36   S    
C34   O10   S    
C60   H46   S    
