data_mof_unit_24354.cif
_audit_creation_date              2012-12-10T16:53:10-0500
_audit_creation_method            fapswitch 2.2
_symmetry_space_group_name_H-M    P1
_symmetry_Int_Tables_number       1
_space_group_crystal_system       triclinic
_cell_length_a                    10.860245
_cell_length_b                    10.940658
_cell_length_c                    9.667438
_cell_angle_alpha                 89.957523
_cell_angle_beta                  89.012359
_cell_angle_gamma                 89.922615
_cell_volume                      1148.49584255

loop_
_atom_site_label
_atom_site_type_symbol
_atom_type_description
_atom_site_fract_x
_atom_site_fract_y
_atom_site_fract_z
_atom_type_partial_charge
C1    C     C_R   0.501819 0.265310 0.500093 0.841479
C2    C     C_R   0.058175 0.477792 0.633346 0.045779
C3    C     C_R   0.126501 0.504468 0.509202 -0.107889
C4    C     C_R   0.064428 0.519179 0.384428 -0.197364
C5    C     C_R   0.937804 0.509389 0.380578 -0.195256
C6    C     C_R   0.871022 0.475240 0.499188 -0.115531
C7    C     C_2   0.509271 0.933008 0.386799 -0.151428
C8    C     C_2   0.494187 0.866611 0.502373 -0.317785
C9    C     C_2   0.505484 0.066976 0.386463 -0.163042
C10   C     C_2   0.507747 0.133427 0.502757 -0.318534
C11   C     C_2   0.552428 0.416757 0.921301 -0.074021
C12   C     C_R   0.261629 0.503952 0.502431 0.805009
C13   C     C_2   0.558078 0.420658 0.076788 -0.076337
C14   C     C_R   0.499032 0.734697 0.500069 0.862004
C15   C     C_R   0.737185 0.489047 0.499229 0.797168
C16   C     C_R   0.106610 0.484852 0.768700 -0.266883
C17   C     C_R   0.042500 0.436215 0.883219 0.504556
C18   C     C_R   0.928022 0.382652 0.864435 -0.207324
C19   C     C_R   0.874287 0.385537 0.734931 -0.237507
C20   C     C_R   0.933470 0.444702 0.621902 0.106792
Cu1   Cu    Cu3+1 0.500020 0.500020 0.638630 0.932488
Cu2   Cu    Cu3+1 0.499980 0.499980 0.361370 0.930496
H1    H     H_    0.113590 0.542189 0.289601 0.192956
H2    H     H_    0.516551 0.092714 0.604035 0.144290
H3    H     H_    0.598683 0.341444 0.869387 0.143149
H4    H     H_    0.459165 0.573033 0.894683 0.190579
H5    H     H_    0.614959 0.352908 0.127125 0.150071
H6    H     H_    0.439795 0.559206 0.107172 0.186275
H7    H     H_    0.878491 0.342742 0.951502 0.140697
H8    H     H_    0.892079 0.530449 0.284707 0.185316
H9    H     H_    0.523525 0.888226 0.287529 0.166217
N1    N     N_2   0.498640 0.498660 0.846910 -0.288078
N2    N     N_2   0.498610 0.498630 0.153040 -0.290288
O1    O     O_R   0.500020 0.321960 0.617040 -0.589817
O2    O     O_R   0.499980 0.321920 0.382900 -0.585583
O3    O     O_R   0.319670 0.500020 0.617100 -0.592213
O4    O     O_R   0.319630 0.499980 0.382950 -0.588482
O5    O     O_R   0.500020 0.678080 0.617100 -0.580083
O6    O     O_R   0.499980 0.678040 0.382960 -0.573461
O7    O     O_R   0.680370 0.500020 0.617050 -0.568625
O8    O     O_R   0.680330 0.499980 0.382900 -0.576288
H10   H     H_    0.189009 0.534960 0.791485 0.175452
O9    O     O_3   0.084867 0.452243 0.016033 -0.635683
C21   C     C_3   0.189535 0.378166 0.038333 0.021492
H11   H     H_    0.248557 0.426844 0.112841 0.187872
H12   H     H_    0.247746 0.362454 0.943707 0.141078
C22   C     C_3   0.150280 0.255958 0.102241 -0.344553
H13   H     H_    0.089704 0.272984 0.194135 0.235035
H14   H     H_    0.097573 0.202590 0.025516 0.208173
C23   C     C_3   0.261736 0.181693 0.146781 -0.903422
H15   H     H_    0.324207 0.163813 0.056836 0.248598
H16   H     H_    0.230800 0.092881 0.190718 0.256067
H17   H     H_    0.312689 0.232090 0.227253 0.276500
H18   H     H_    0.786073 0.341289 0.724331 0.159949
H19   H     H_    0.476233 0.907338 0.602559 0.145215
H20   H     H_    0.502484 0.111614 0.286206 0.164723

loop_
_geom_bond_atom_site_label_1
_geom_bond_atom_site_label_2
_ccdc_geom_bond_type
C1    O1    A    
C23   H16   S    
O9    C21   S    
C17   O9    S    
H4    N1    S    
Cu1   O1    S    
C14   O5    A    
C6    C20   A    
C9    C10   D    
C19   C20   A    
C21   C22   S    
C12   O3    A    
C2    C3    A    
C6    C15   S    
C7    C8    D    
C22   H14   S    
C9    H20   S    
Cu1   Cu2   S    
C13   N2    D    
Cu2   O2    S    
C11   C13   S    
C15   O8    A    
C16   C17   A    
Cu1   O7    S    
Cu2   O6    S    
C8    H19   S    
C21   H12   S    
C11   N1    D    
C23   H15   S    
C22   C23   S    
C7    C9    S    
C5    C6    A    
Cu1   N1    S    
C15   O7    A    
Cu2   O8    S    
C7    H9    S    
H6    N2    S    
C11   H3    S    
C18   H7    S    
C3    C4    A    
C23   H17   S    
C16   H10   S    
Cu1   O5    S    
C2    C16   A    
C21   H11   S    
C1    O2    A    
C17   C18   A    
C18   C19   A    
C5    H8    S    
C12   O4    A    
Cu1   O3    S    
Cu2   N2    S    
C13   H5    S    
C19   H18   S    
C8    C14   S    
C3    C12   S    
C10   H2    S    
C14   O6    A    
Cu2   O4    S    
C2    C20   A    
C4    H1    S    
C1    C10   S    
C22   H13   S    
C4    C5    A    
