data_mof_unit_42750.cif
_audit_creation_date              2012-12-11T15:34:57-0500
_audit_creation_method            fapswitch 2.2
_symmetry_space_group_name_H-M    P1
_symmetry_Int_Tables_number       1
_space_group_crystal_system       triclinic
_cell_length_a                    31.218564
_cell_length_b                    7.292387
_cell_length_c                    28.157146
_cell_angle_alpha                 90.000089
_cell_angle_beta                  115.291779
_cell_angle_gamma                 89.999848
_cell_volume                      5795.73874198

loop_
_atom_site_label
_atom_site_type_symbol
_atom_type_description
_atom_site_fract_x
_atom_site_fract_y
_atom_site_fract_z
_atom_type_partial_charge
O1    O     O_R   0.295360 0.592990 0.320420 -0.533442
O2    O     O_R   0.704640 0.407010 0.679580 -0.510224
O3    O     O_R   0.204640 0.092990 0.179580 -0.533429
O4    O     O_R   0.795360 0.907010 0.820420 -0.510224
O5    O     O_R   0.294060 0.265620 0.213230 -0.531466
O6    O     O_R   0.705940 0.734380 0.786770 -0.537257
O7    O     O_R   0.205940 0.765620 0.286770 -0.531451
O8    O     O_R   0.794060 0.234380 0.713230 -0.537257
C1    C     C_R   0.305714 0.430295 0.200661 0.773238
C2    C     C_R   0.695167 0.567503 0.799711 0.801873
C3    C     C_R   0.194286 0.930295 0.299339 0.773382
C4    C     C_R   0.804833 0.067503 0.700289 0.801873
O9    O     O_R   0.300850 0.263360 0.322080 -0.513549
O10   O     O_R   0.699150 0.736640 0.677920 -0.534969
O11   O     O_R   0.199150 0.763360 0.177920 -0.513541
O12   O     O_R   0.800850 0.236640 0.822080 -0.534969
O13   O     O_R   0.211480 0.091820 0.289210 -0.540568
O14   O     O_R   0.788520 0.908180 0.710790 -0.542061
O15   O     O_R   0.288520 0.591820 0.210790 -0.540559
O16   O     O_R   0.711480 0.408180 0.789210 -0.542061
C5    C     C_R   0.311353 0.431947 0.344519 0.725681
C6    C     C_R   0.688672 0.568699 0.655495 0.718872
C7    C     C_R   0.188647 0.931947 0.155480 0.725736
C8    C     C_R   0.811328 0.068699 0.844505 0.718886
O17   O     O_3   0.220670 0.426670 0.239090 -0.384056
O18   O     O_3   0.779330 0.573330 0.760910 -0.383956
O19   O     O_3   0.279330 0.926670 0.260910 -0.384079
O20   O     O_3   0.720670 0.073330 0.739090 -0.383957
V1    V     V_3+5 0.255440 0.152290 0.252020 1.591637
V2    V     V_3+5 0.744560 0.847710 0.747980 1.586072
V3    V     V_3+5 0.244560 0.652290 0.247980 1.591661
V4    V     V_3+5 0.755440 0.347710 0.752020 1.586073
C9    C     C_R   0.849510 0.058906 0.901135 -0.097818
C10   C     C_R   0.150290 0.946437 0.098892 -0.091266
C11   C     C_R   0.650489 0.558906 0.598865 -0.097832
C12   C     C_R   0.349710 0.446437 0.401108 -0.091304
C13   C     C_R   0.870978 0.049136 0.998970 -0.046893
C14   C     C_R   0.129136 0.950420 0.001121 -0.047511
C15   C     C_R   0.629021 0.549136 0.501030 -0.046761
C16   C     C_R   0.370864 0.450420 0.498879 -0.047537
C17   C     C_R   0.836834 0.060532 0.944523 -0.172191
C18   C     C_R   0.163087 0.938980 0.055556 -0.179369
C19   C     C_R   0.663165 0.560532 0.555477 -0.172161
C20   C     C_R   0.336913 0.438980 0.444444 -0.179321
C21   C     C_R   0.897529 0.045338 0.910523 -0.023430
C22   C     C_R   0.102873 0.984488 0.089638 -0.005020
C23   C     C_R   0.602471 0.545338 0.589477 -0.023311
C24   C     C_R   0.397127 0.484488 0.410361 -0.005224
C25   C     C_R   0.933438 0.025217 0.963225 0.018674
C26   C     C_R   0.066720 0.984895 0.036556 0.009781
C27   C     C_R   0.566562 0.525217 0.536775 0.018613
C28   C     C_R   0.433280 0.484895 0.463444 0.009761
C29   C     C_R   0.919622 0.031618 0.006762 0.070282
C30   C     C_R   0.080454 0.967664 0.992962 0.060999
C31   C     C_R   0.580378 0.531618 0.493238 0.069792
C32   C     C_R   0.419546 0.467664 0.507038 0.061070
C33   C     C_R   0.983006 0.000932 0.974178 0.058535
C34   C     C_R   0.017242 0.995816 0.025334 0.053853
C35   C     C_R   0.516994 0.500932 0.525822 0.058256
C36   C     C_R   0.482758 0.495816 0.474666 0.053105
C37   C     C_R   0.000304 0.005451 0.063483 -0.083219
C38   C     C_R   0.999157 0.967760 0.935554 -0.138840
C39   C     C_R   0.499696 0.505445 0.436516 -0.080375
C40   C     C_R   0.500843 0.467761 0.564446 -0.138659
C41   C     C_R   0.955486 0.014777 0.056450 -0.230597
C42   C     C_R   0.044520 0.949392 0.943081 -0.159694
C43   C     C_R   0.544514 0.514773 0.443550 -0.230661
C44   C     C_R   0.455480 0.449393 0.556919 -0.159701
H1    H     H_    0.949821 0.017201 0.090659 0.191950
H2    H     H_    0.050054 0.868231 0.914491 0.165003
H3    H     H_    0.550177 0.516994 0.409338 0.191937
H4    H     H_    0.449946 0.368235 0.585509 0.164986
H5    H     H_    0.200376 0.924024 0.064881 0.154066
H6    H     H_    0.799504 0.071489 0.935287 0.153360
H7    H     H_    0.299624 0.424024 0.435119 0.154063
H8    H     H_    0.700495 0.571489 0.564713 0.153345
H9    H     H_    0.017185 0.910224 0.100817 0.116563
H10   H     H_    0.978210 0.899449 0.900860 0.134201
H11   H     H_    0.482821 0.407343 0.399169 0.115300
H12   H     H_    0.521790 0.399452 0.599141 0.134180
C45   C     C_R   0.092530 0.980065 0.480245 0.598252
C46   C     C_R   0.907568 0.045336 0.519799 0.594382
C47   C     C_R   0.407470 0.480065 0.019755 0.598264
C48   C     C_R   0.592432 0.545336 0.980201 0.594382
N1    N     N_R   0.072657 0.975867 0.425033 -0.508249
N2    N     N_R   0.926833 0.027242 0.574972 -0.504015
N3    N     N_R   0.427343 0.475867 0.074967 -0.508255
N4    N     N_R   0.573167 0.527242 0.925028 -0.504014
C49   C     C_R   0.022346 0.987162 0.403634 0.573866
C50   C     C_R   0.976698 0.007486 0.596571 0.610745
C51   C     C_R   0.477654 0.487162 0.096366 0.573839
C52   C     C_R   0.523301 0.507486 0.903428 0.610745
C53   C     C_R   0.993430 0.013569 0.430198 -0.154939
C54   C     C_R   0.006479 0.006650 0.570249 -0.158613
C55   C     C_R   0.506569 0.513570 0.069801 -0.154926
C56   C     C_R   0.493521 0.506650 0.929751 -0.158612
C57   C     C_R   0.014382 0.994085 0.485560 -0.113896
C58   C     C_R   0.985515 0.004800 0.514692 -0.120095
C59   C     C_R   0.485618 0.494085 0.014440 -0.113896
C60   C     C_R   0.514485 0.504800 0.985308 -0.120096
C61   C     C_R   0.064700 0.971366 0.511914 -0.173093
C62   C     C_R   0.935092 0.020112 0.488122 -0.176926
C63   C     C_R   0.435300 0.471366 0.988086 -0.173094
C64   C     C_R   0.564908 0.520112 0.011878 -0.176926
C65   C     C_R   0.942263 0.041150 0.401527 0.405489
C66   C     C_R   0.057883 0.993723 0.598965 0.404167
C67   C     C_R   0.557737 0.541150 0.098473 0.405489
C68   C     C_R   0.442117 0.493723 0.901035 0.404168
C69   C     C_R   0.913790 0.023388 0.430452 0.368260
C70   C     C_R   0.085750 0.956462 0.569567 0.360673
C71   C     C_R   0.586210 0.523389 0.069548 0.368258
C72   C     C_R   0.414249 0.456462 0.930433 0.360672
O21   O     O_2   0.138987 0.012496 0.506664 -0.538161
O22   O     O_2   0.862982 0.106867 0.494242 -0.536783
O23   O     O_2   0.361013 0.512496 0.993336 -0.538161
O24   O     O_2   0.637018 0.606867 0.005758 -0.536782
O25   O     O_2   0.993149 0.926434 0.356915 -0.506846
O26   O     O_2   0.002260 0.960723 0.643419 -0.516773
O27   O     O_2   0.506851 0.426433 0.143085 -0.506857
O28   O     O_2   0.497740 0.460723 0.856581 -0.516773
C73   C     C_R   0.914975 0.031931 0.664344 -0.089423
C74   C     C_R   0.082482 0.976615 0.336659 -0.091827
C75   C     C_R   0.585025 0.531931 0.835656 -0.089424
C76   C     C_R   0.417518 0.476614 0.163341 -0.091589
C77   C     C_R   0.887322 0.033270 0.694183 0.331281
C78   C     C_R   0.106445 0.945972 0.304474 0.326771
C79   C     C_R   0.612677 0.533270 0.805817 0.331282
C80   C     C_R   0.393554 0.445975 0.195525 0.326605
C81   C     C_R   0.835973 0.057637 0.668573 -0.181012
C82   C     C_R   0.160283 0.932239 0.329366 -0.134164
C83   C     C_R   0.664027 0.557637 0.831427 -0.181013
C84   C     C_R   0.339717 0.432242 0.170634 -0.134378
C85   C     C_R   0.814643 0.065210 0.611899 -0.133230
C86   C     C_R   0.184474 0.933727 0.387323 -0.136853
C87   C     C_R   0.685357 0.565210 0.888101 -0.133232
C88   C     C_R   0.315526 0.433727 0.112676 -0.136741
C89   C     C_R   0.844001 0.051553 0.583334 -0.162443
C90   C     C_R   0.155844 0.944195 0.416612 -0.155247
C91   C     C_R   0.655999 0.551553 0.916666 -0.162442
C92   C     C_R   0.344156 0.444195 0.083388 -0.155249
H13   H     H_    0.824177 0.046777 0.541593 0.231451
H14   H     H_    0.175610 0.929690 0.458271 0.231309
H15   H     H_    0.675823 0.546777 0.958407 0.231451
H16   H     H_    0.324390 0.429690 0.041728 0.231304
C93   C     C_R   0.895853 0.036367 0.607094 0.200526
C94   C     C_R   0.103772 0.966551 0.393385 0.197714
C95   C     C_R   0.604147 0.536367 0.892906 0.200527
C96   C     C_R   0.396228 0.466551 0.106615 0.197653
C97   C     C_2   0.761616 0.086677 0.580580 0.772953
O29   O     O_2   0.734524 0.090786 0.601624 -0.565705
O30   O     O_R   0.743208 0.104178 0.526305 -0.645761
H17   H     H_    0.707829 0.124226 0.509545 0.314257
C98   C     C_2   0.238311 0.915116 0.419231 0.769444
O31   O     O_2   0.265465 0.911150 0.398286 -0.564865
O32   O     O_R   0.256813 0.898998 0.473622 -0.646358
H18   H     H_    0.292134 0.877216 0.490391 0.314972
C99   C     C_2   0.738383 0.586677 0.919419 0.772956
O33   O     O_2   0.765476 0.590786 0.898376 -0.565703
O34   O     O_R   0.756792 0.604178 0.973695 -0.645760
H19   H     H_    0.792171 0.624226 0.990455 0.314262
C100  C     C_2   0.261689 0.415116 0.080769 0.769445
O35   O     O_2   0.234535 0.411150 0.101714 -0.564851
O36   O     O_R   0.243187 0.398998 0.026378 -0.646363
H20   H     H_    0.207866 0.377216 0.009609 0.314972
C101  C     C_2   0.095644 0.987424 0.138332 0.655356
O37   O     O_2   0.082025 0.122006 0.154587 -0.557580
O38   O     O_R   0.107762 0.822880 0.163939 -0.684984
H21   H     H_    0.100159 0.820112 0.192518 0.324063
C102  C     C_2   0.905320 0.034219 0.862485 0.680179
O39   O     O_2   0.924167 0.158618 0.848909 -0.536528
O40   O     O_R   0.885726 0.883507 0.831810 -0.676166
H22   H     H_    0.891793 0.898300 0.802412 0.336160
C103  C     C_2   0.404356 0.487424 0.361667 0.655824
O41   O     O_2   0.417975 0.622005 0.345412 -0.557462
O42   O     O_R   0.392237 0.322880 0.336061 -0.685079
H23   H     H_    0.399841 0.320108 0.307482 0.323899
C104  C     C_2   0.594680 0.534219 0.637515 0.680158
O43   O     O_2   0.575833 0.658618 0.651091 -0.536532
O44   O     O_R   0.614274 0.383507 0.668190 -0.676171
H24   H     H_    0.608207 0.398300 0.697588 0.336162
C105  C     C_2   0.855787 0.051694 0.046048 0.778560
O45   O     O_2   0.813836 0.050292 0.036053 -0.537148
O46   O     O_R   0.887944 0.054460 0.100202 -0.688268
H25   H     H_    0.877164 0.018448 0.128271 0.297337
C106  C     C_2   0.144039 0.949155 0.954092 0.780684
O47   O     O_2   0.186014 0.943732 0.963565 -0.537166
O48   O     O_R   0.110503 0.961442 0.900449 -0.681670
H26   H     H_    0.122074 0.981248 0.872175 0.298265
C107  C     C_2   0.644213 0.551694 0.453952 0.778542
O49   O     O_2   0.686164 0.550292 0.463947 -0.537152
O50   O     O_R   0.612055 0.554460 0.399797 -0.688265
H27   H     H_    0.622836 0.518449 0.371729 0.297327
C108  C     C_2   0.355961 0.449155 0.545908 0.780676
O51   O     O_2   0.313986 0.443732 0.536435 -0.537165
O52   O     O_R   0.389497 0.461443 0.599551 -0.681671
H28   H     H_    0.377926 0.481249 0.627825 0.298266
O53   O     O_3   0.917153 0.056345 0.345469 -0.530611
C109  C     C_3   0.931291 0.197467 0.318599 0.191973
H29   H     H_    0.923755 0.148024 0.278569 0.155731
H30   H     H_    0.968236 0.240725 0.339521 0.154370
C110  C     C_3   0.907810 0.379300 0.314492 -0.443725
H31   H     H_    0.869727 0.356969 0.295401 0.227649
H32   H     H_    0.917221 0.431233 0.354615 0.201563
C111  C     C_3   0.921699 0.523064 0.283129 -0.694468
H33   H     H_    0.960382 0.549335 0.301920 0.281670
H34   H     H_    0.903474 0.654342 0.282426 0.258286
H35   H     H_    0.911095 0.478194 0.241921 0.215995
O54   O     O_3   0.082388 0.989670 0.654992 -0.529017
C112  C     C_3   0.075168 0.141108 0.684743 0.212972
H36   H     H_    0.080068 0.087736 0.723766 0.152958
H37   H     H_    0.041563 0.218411 0.665370 0.154291
C113  C     C_3   0.107388 0.299698 0.693000 -0.447339
H38   H     H_    0.143612 0.247510 0.711322 0.229131
H39   H     H_    0.100414 0.355928 0.654014 0.198299
C114  C     C_3   0.100957 0.453188 0.727512 -0.735588
H40   H     H_    0.064553 0.510335 0.709464 0.264475
H41   H     H_    0.125546 0.567343 0.730905 0.245469
H42   H     H_    0.108859 0.403118 0.767692 0.226961
O55   O     O_3   0.582847 0.556345 0.154531 -0.530611
C115  C     C_3   0.568709 0.697467 0.181401 0.191968
H43   H     H_    0.576245 0.648024 0.221431 0.155727
H44   H     H_    0.531763 0.740724 0.160479 0.154366
C116  C     C_3   0.592190 0.879300 0.185508 -0.443716
H45   H     H_    0.630273 0.856969 0.204599 0.227648
H46   H     H_    0.582779 0.931233 0.145385 0.201562
C117  C     C_3   0.578301 0.023064 0.216870 -0.694477
H47   H     H_    0.539618 0.049335 0.198080 0.281671
H48   H     H_    0.596526 0.154342 0.217574 0.258284
H49   H     H_    0.588905 0.978194 0.258079 0.215997
O56   O     O_3   0.417612 0.489670 0.845008 -0.529016
C118  C     C_3   0.424832 0.641108 0.815257 0.212972
H50   H     H_    0.419932 0.587737 0.776234 0.152959
H51   H     H_    0.458437 0.718411 0.834630 0.154291
C119  C     C_3   0.392611 0.799698 0.807000 -0.447339
H52   H     H_    0.356388 0.747510 0.788678 0.229130
H53   H     H_    0.399586 0.855928 0.845986 0.198299
C120  C     C_3   0.399043 0.953188 0.772488 -0.735587
H54   H     H_    0.435447 0.010335 0.790535 0.264475
H55   H     H_    0.374454 0.067343 0.769095 0.245469
H56   H     H_    0.391141 0.903118 0.732308 0.226961
O57   O     O_3   0.864829 0.037912 0.400241 -0.539881
C121  C     C_3   0.836684 0.896125 0.408189 0.184573
H57   H     H_    0.801417 0.955664 0.400134 0.171365
H58   H     H_    0.851754 0.838650 0.448059 0.130605
C122  C     C_3   0.829415 0.728121 0.373131 -0.405066
H59   H     H_    0.815353 0.772441 0.331863 0.225683
H60   H     H_    0.864221 0.662432 0.383498 0.200980
C123  C     C_3   0.795654 0.584134 0.378763 -0.732137
H61   H     H_    0.809237 0.535218 0.419830 0.255976
H62   H     H_    0.793028 0.463373 0.353588 0.243562
H63   H     H_    0.759681 0.642131 0.366837 0.233777
O58   O     O_3   0.134785 0.935072 0.599731 -0.543428
C124  C     C_3   0.156253 0.775972 0.588596 0.187430
H64   H     H_    0.194011 0.809723 0.598792 0.169876
H65   H     H_    0.139512 0.732780 0.547281 0.129123
C125  C     C_3   0.155346 0.604562 0.619642 -0.422507
H66   H     H_    0.170840 0.637904 0.661817 0.228558
H67   H     H_    0.117989 0.565739 0.607320 0.195344
C126  C     C_3   0.181936 0.438556 0.610902 -0.726902
H68   H     H_    0.166306 0.399293 0.568921 0.256878
H69   H     H_    0.179245 0.317571 0.633585 0.252331
H70   H     H_    0.219937 0.471330 0.623648 0.236542
O59   O     O_3   0.635171 0.537912 0.099759 -0.539882
C127  C     C_3   0.663316 0.396125 0.091811 0.184575
H71   H     H_    0.698583 0.455664 0.099866 0.171365
H72   H     H_    0.648246 0.338650 0.051941 0.130605
C128  C     C_3   0.670585 0.228121 0.126869 -0.405066
H73   H     H_    0.684647 0.272441 0.168136 0.225683
H74   H     H_    0.635779 0.162432 0.116502 0.200979
C129  C     C_3   0.704346 0.084134 0.121237 -0.732138
H75   H     H_    0.690763 0.035218 0.080170 0.255977
H76   H     H_    0.706972 0.963373 0.146411 0.243563
H77   H     H_    0.740319 0.142131 0.133163 0.233777
O60   O     O_3   0.365215 0.435072 0.900268 -0.543428
C130  C     C_3   0.343747 0.275972 0.911403 0.187428
H78   H     H_    0.305989 0.309723 0.901208 0.169876
H79   H     H_    0.360488 0.232780 0.952719 0.129123
C131  C     C_3   0.344654 0.104562 0.880358 -0.422507
H80   H     H_    0.329160 0.137904 0.838183 0.228558
H81   H     H_    0.382011 0.065739 0.892680 0.195343
C132  C     C_3   0.318064 0.938555 0.889098 -0.726902
H82   H     H_    0.333693 0.899293 0.931079 0.256878
H83   H     H_    0.320755 0.817572 0.866415 0.252331
H84   H     H_    0.280062 0.971330 0.876352 0.236542
C133  C     C_2   0.964484 0.007764 0.696252 0.839844
O61   O     O_2   0.979986 0.848105 0.699487 -0.540014
O62   O     O_R   0.992550 0.153245 0.726147 -0.659048
H85   H     H_    0.025505 0.114860 0.752015 0.272833
C134  C     C_2   0.032489 0.989562 0.305636 0.838574
O63   O     O_2   0.010275 0.844832 0.290391 -0.524046
O64   O     O_R   0.011149 0.158647 0.284869 -0.690450
H86   H     H_    0.979814 0.144630 0.252575 0.266021
C135  C     C_2   0.535516 0.507764 0.803748 0.839843
O65   O     O_2   0.520014 0.348105 0.800513 -0.540013
O66   O     O_R   0.507450 0.653245 0.773853 -0.659048
H87   H     H_    0.474495 0.614860 0.747984 0.272832
C136  C     C_2   0.467510 0.489561 0.194364 0.838684
O67   O     O_2   0.489725 0.344832 0.209609 -0.524043
O68   O     O_R   0.488851 0.658647 0.215131 -0.690454
H88   H     H_    0.520186 0.644629 0.247425 0.266014
O69   O     O_3   0.911042 0.043642 0.749199 -0.560500
C137  C     C_3   0.949625 0.915138 0.778979 0.032279
H89   H     H_    0.974526 0.977336 0.816227 0.175838
H90   H     H_    0.970215 0.875381 0.763976 0.194417
C138  C     C_3   0.940732 0.704048 0.779344 -0.442415
H91   H     H_    0.915521 0.655294 0.793905 0.239368
H92   H     H_    0.925497 0.647492 0.738662 0.225178
C139  C     C_3   0.986468 0.596560 0.812039 -0.686559
H93   H     H_    0.012061 0.609481 0.794477 0.246910
H94   H     H_    0.978240 0.448971 0.812712 0.273401
H95   H     H_    0.002762 0.647666 0.852900 0.214205
O70   O     O_3   0.089228 0.838283 0.262364 -0.598016
C140  C     C_3   0.043727 0.887693 0.214946 0.112268
H96   H     H_    0.017606 0.910951 0.175105 0.077365
H97   H     H_    0.029857 0.993696 0.227103 0.127019
C141  C     C_3   0.042725 0.666483 0.210866 -0.130080
H98   H     H_    0.060607 0.604530 0.187907 0.183917
H99   H     H_    0.058046 0.569874 0.246382 0.233170
C142  C     C_3   0.993611 0.595265 0.180300 -0.803236
H100  H     H_    0.970040 0.633001 0.198734 0.263002
H101  H     H_    0.993633 0.444537 0.175845 0.236170
H102  H     H_    0.978709 0.653778 0.140382 0.219030
O71   O     O_3   0.588958 0.543642 0.750801 -0.560500
C143  C     C_3   0.550375 0.415138 0.721021 0.032278
H103  H     H_    0.525474 0.477336 0.683773 0.175834
H104  H     H_    0.529785 0.375381 0.736024 0.194418
C144  C     C_3   0.559267 0.204048 0.720656 -0.442415
H105  H     H_    0.584479 0.155294 0.706095 0.239367
H106  H     H_    0.574503 0.147492 0.761338 0.225178
C145  C     C_3   0.513532 0.096560 0.687961 -0.686564
H107  H     H_    0.487939 0.109481 0.705523 0.246911
H108  H     H_    0.521760 0.948971 0.687288 0.273401
H109  H     H_    0.497238 0.147666 0.647099 0.214202
O72   O     O_3   0.410836 0.338291 0.237623 -0.598129
C146  C     C_3   0.456234 0.387653 0.284999 0.113602
H110  H     H_    0.482586 0.411093 0.324501 0.077169
H111  H     H_    0.470125 0.493724 0.272892 0.126461
C147  C     C_3   0.457274 0.166483 0.289138 -0.130672
H112  H     H_    0.439393 0.104526 0.312090 0.183938
H113  H     H_    0.441966 0.069872 0.253613 0.233298
C148  C     C_3   0.506390 0.095248 0.319701 -0.803446
H114  H     H_    0.529960 0.132996 0.301266 0.263034
H115  H     H_    0.506367 0.944538 0.324155 0.236296
H116  H     H_    0.521275 0.153837 0.359620 0.218928

loop_
_geom_bond_atom_site_label_1
_geom_bond_atom_site_label_2
_ccdc_geom_bond_type
C59   C63   A    
C85   C89   A    
C99   O33   D    
N3    C51   A    
C9    C21   A    
O64   H86   S    
C10   C18   A    
C88   C92   A    
C11   C23   A    
C116  C117  S    
O69   C137  S    
C132  H84   S    
C87   C91   A    
C66   O54   S    
C55   C59   A    
C125  C126  S    
C60   C64   A    
O60   C130  S    
C2    C83   S    
C17   H6    S    
C1    O15   A    
C116  H45   S    
C2    O16   A    
C143  H103  S    
O2    C6    A    
C121  H58   S    
C139  H95   S    
C34   C37   A    
C65   O53   S    
C56   C68   A    
C35   C36   A    
C122  H59   S    
C82   C86   A    
C119  H53   S    
C100  O36   S    
C123  H62   S    
C105  O46   S    
C121  C122  S    
N3    C96   S    
O50   H27   S    
N2    C50   A    
C146  H111  S    
C61   C70   A    
C58   C62   A    
C141  H98   S    
C119  C120  S    
C114  H40   S    
O42   H23   S    
C44   H4    S    
C13   C105  S    
O9    C5    A    
C103  O42   S    
C67   O55   S    
O6    V2    S    
C81   C85   A    
C129  H76   S    
C12   C20   A    
N2    C93   S    
C89   C93   A    
C18   H5    S    
C48   N4    A    
C126  H69   S    
C133  O62   S    
C42   H2    S    
C143  C144  S    
C25   C29   A    
C118  C119  S    
C27   C31   A    
C74   C94   A    
C79   C83   A    
O52   H28   S    
C37   C41   A    
C144  H105  S    
C113  H38   S    
C108  O51   D    
C122  C123  S    
O32   H18   S    
C54   C58   A    
C62   C69   A    
C109  H30   S    
O58   C124  S    
O17   V3    S    
C142  H101  S    
O18   V4    S    
C87   C99   S    
C22   C101  S    
O19   V1    S    
C57   C58   A    
C110  H32   S    
C45   C61   A    
C73   C77   A    
C47   C63   A    
C141  C142  S    
C40   C44   A    
C97   O30   S    
C124  H64   S    
C15   C107  S    
C128  C129  S    
C106  O48   S    
C86   C98   S    
O1    V3    S    
C25   C33   A    
O70   C140  S    
O2    V4    S    
O57   C121  S    
O3    V1    S    
C28   C36   A    
C91   H15   S    
C37   H9    S    
C127  H71   S    
C104  O44   S    
C125  H67   S    
C10   C22   A    
C79   O71   S    
C29   C41   A    
C78   O70   S    
O8    C4    A    
C77   O69   S    
O71   C143  S    
C48   O24   S    
C120  H54   S    
C146  H110  S    
C136  O68   S    
O56   C118  S    
C115  H43   S    
C139  H94   S    
C112  H36   S    
C16   C108  S    
C148  H115  S    
C137  H90   S    
C38   C42   A    
C47   O23   S    
C130  C131  S    
C114  H42   S    
C144  H106  S    
O72   C146  S    
C70   O58   S    
C32   C44   A    
C145  H109  S    
O44   H24   S    
O5    C1    A    
C135  O65   D    
C77   C81   A    
C75   C79   A    
C113  C114  S    
C24   C28   A    
C84   C88   A    
C7    C10   S    
C134  O63   D    
C46   C62   A    
C49   O25   S    
C104  O43   D    
C147  H113  S    
C48   C64   A    
C51   O27   S    
C75   C135  S    
C53   C57   A    
O16   V4    S    
O55   C115  S    
C65   C69   A    
C67   C71   A    
C38   H10   S    
C111  H34   S    
C21   C102  S    
C124  C125  S    
C128  H73   S    
C116  H46   S    
O11   V3    S    
C30   C42   A    
O12   V4    S    
C147  C148  S    
O10   C6    A    
C52   O28   S    
C33   C34   A    
C90   C94   A    
C127  C128  S    
C56   C60   A    
C12   C24   A    
C73   C93   A    
C13   C17   A    
O53   C109  S    
C51   C55   A    
C16   C20   A    
C111  H33   S    
C143  H104  S    
C117  H47   S    
C120  H56   S    
C131  H80   S    
C115  C116  S    
C45   N1    A    
C47   N3    A    
O13   V1    S    
C130  H78   S    
O15   V3    S    
C100  O35   D    
O59   C127  S    
C105  O45   D    
C76   C96   A    
C26   C30   A    
C145  H108  S    
C50   O26   S    
O9    V1    S    
C72   O60   S    
O4    C8    A    
C78   C82   A    
C112  C113  S    
C141  H99   S    
C110  H31   S    
C15   C31   A    
O54   C112  S    
C16   C32   A    
C131  C132  S    
O30   H17   S    
C98   O32   S    
C76   C80   A    
C99   O34   S    
C40   H12   S    
C129  H77   S    
C50   C54   A    
C88   C100  S    
C4    C81   S    
C26   C34   A    
C102  O39   D    
C90   H14   S    
O66   H87   S    
N1    C49   A    
C68   O56   S    
C46   N2    A    
C68   C72   A    
O68   H88   S    
C133  O61   D    
C144  C145  S    
O34   H19   S    
C14   C30   A    
C111  H35   S    
C69   O57   S    
C121  H57   S    
C118  H51   S    
C73   C133  S    
C55   C67   A    
C113  H39   S    
C122  H60   S    
C132  H83   S    
C119  H52   S    
C14   C106  S    
C3    C82   S    
O38   H21   S    
C123  H61   S    
C1    C84   S    
C19   H8    S    
C89   H13   S    
C3    O13   A    
C92   H16   S    
O6    C2    A    
C146  C147  S    
C23   C27   A    
C106  O47   D    
C8    C9    S    
C9    C17   A    
O48   H26   S    
C97   O29   D    
C145  H107  S    
C128  H74   S    
C140  H96   S    
C41   H1    S    
N4    C95   S    
C43   H3    S    
C107  O49   D    
C140  H97   S    
C142  H100  S    
C127  H72   S    
C138  H91   S    
C45   O21   S    
C129  H75   S    
C63   C72   A    
O40   H22   S    
O1    C5    A    
C101  O37   D    
C136  O67   D    
O3    C7    A    
O36   H20   S    
C52   C56   A    
O46   H25   S    
C126  H70   S    
C92   C96   A    
C115  H44   S    
C33   C38   A    
C5    C12   S    
C39   H11   S    
C103  O41   D    
O7    C3    A    
C6    C11   S    
C137  C138  S    
C91   C95   A    
C35   C40   A    
C36   C39   A    
C130  H79   S    
C14   C18   A    
C83   C87   A    
C114  H41   S    
C107  O50   S    
C53   C65   A    
N4    C52   A    
C108  O52   S    
C109  H29   S    
O14   V2    S    
C21   C25   A    
C123  H63   S    
C135  O66   S    
O11   C7    A    
C142  H102  S    
O12   C8    A    
C49   C53   A    
C74   C134  S    
O10   V2    S    
C80   C84   A    
C134  O64   S    
O5    V1    S    
C39   C43   A    
O7    V3    S    
O8    V4    S    
C85   C97   S    
N1    C94   S    
C46   O22   S    
C124  H65   S    
C140  C141  S    
C15   C19   A    
C138  H92   S    
C132  H82   S    
C74   C78   A    
C20   H7    S    
C59   C60   A    
C138  C139  S    
C125  H66   S    
C109  C110  S    
C80   O72   S    
C71   O59   S    
C75   C95   A    
C117  H48   S    
C120  H55   S    
O62   H85   S    
C110  C111  S    
C131  H81   S    
C27   C35   A    
C126  H68   S    
C11   C19   A    
C139  H93   S    
C24   C103  S    
C66   C70   A    
C148  H116  S    
C137  H89   S    
C54   C66   A    
C86   C90   A    
C64   C71   A    
C31   C43   A    
C117  H49   S    
C22   C26   A    
O20   V2    S    
C13   C29   A    
C23   C104  S    
C112  H37   S    
O4    V2    S    
C101  O38   S    
C147  H112  S    
C4    O14   A    
C118  H50   S    
C148  H114  S    
C98   O31   D    
C57   C61   A    
C76   C136  S    
C28   C32   A    
C102  O40   S    
