data_mof_unit_39414.cif
_audit_creation_date              2013-03-05T16:09:45-0500
_audit_creation_method            fapswitch 2.2
_symmetry_space_group_name_H-M    P1
_symmetry_Int_Tables_number       1
_space_group_crystal_system       triclinic
_cell_length_a                    12.852487
_cell_length_b                    10.71009
_cell_length_c                    9.963204
_cell_angle_alpha                 92.762377
_cell_angle_beta                  101.665462
_cell_angle_gamma                 94.659075
_cell_volume                      1335.74584772

loop_
_atom_site_label
_atom_site_type_symbol
_atom_site_description
_atom_site_fract_x
_atom_site_fract_y
_atom_site_fract_z
_atom_type_partial_charge
O1    O     O_R   0.499990 0.316750 0.614620 -0.588408
O2    O     O_R   0.500010 0.683250 0.385380 -0.574786
O3    O     O_R   0.499990 0.316780 0.385290 -0.541792
O4    O     O_R   0.500010 0.683220 0.614710 -0.551811
C1    C     C_R   0.508418 0.260712 0.498643 0.981020
C2    C     C_R   0.489999 0.738831 0.500113 0.967361
O5    O     O_R   0.346360 0.499970 0.595710 -0.558543
O6    O     O_R   0.653640 0.500030 0.404290 -0.572551
O7    O     O_R   0.346360 0.499990 0.366380 -0.562000
O8    O     O_R   0.653640 0.500010 0.633620 -0.550259
C3    C     C_R   0.297036 0.505129 0.468963 0.936717
C4    C     C_R   0.702765 0.495109 0.531923 0.943288
Zn1   Zn    Zn3+2 0.500000 0.499980 0.653120 1.162016
Zn2   Zn    Zn3+2 0.500000 0.500020 0.346880 1.162829
C5    C     C_R   0.817634 0.485065 0.559654 -0.315426
C6    C     C_R   0.181546 0.513311 0.445718 -0.317066
C7    C     C_R   0.002553 0.435032 0.327873 0.413547
C8    C     C_R   0.996093 0.561693 0.681439 0.400337
C9    C     C_R   0.111310 0.453991 0.329290 0.185264
C10   C     C_R   0.886834 0.541366 0.679476 0.189398
C11   C     C_R   0.140134 0.569149 0.551889 0.306997
C12   C     C_R   0.859933 0.427518 0.456333 0.307350
C13   C     C_R   0.034136 0.534051 0.560797 -0.159312
C14   C     C_R   0.965397 0.463571 0.448193 -0.161293
C15   C     C_R   0.489266 0.053763 0.369302 0.350082
C16   C     C_R   0.504851 0.946232 0.623898 0.350125
C17   C     C_R   0.460579 0.926764 0.372557 0.213357
C18   C     C_R   0.542175 0.071273 0.621085 0.197503
C19   C     C_R   0.477401 0.871882 0.499977 -0.349728
C20   C     C_R   0.520336 0.127441 0.494620 -0.342661
C21   C     C_R   0.571238 0.578957 0.095383 0.269544
C22   C     C_R   0.437597 0.411702 0.905893 0.256864
C23   C     C_R   0.564599 0.587732 0.951532 0.241432
C24   C     C_R   0.429124 0.419165 0.046502 0.236498
N1    N     N_R   0.499970 0.499970 0.857200 -0.200910
N2    N     N_R   0.500030 0.500030 0.142800 -0.200556
N3    N     N_R   0.804963 0.314139 0.382626 0.238022
O9    O     O_R   0.846611 0.208259 0.403664 -0.263437
O10   O     O_R   0.721040 0.316917 0.285138 -0.264614
N4    N     N_R   0.198241 0.678016 0.631254 0.237103
O11   O     O_R   0.164040 0.787800 0.609702 -0.264323
O12   O     O_R   0.276595 0.667437 0.734316 -0.260551
N5    N     N_R   0.848811 0.569280 0.802321 0.271100
O13   O     O_R   0.876818 0.677811 0.870134 -0.209256
O14   O     O_R   0.804495 0.478901 0.860341 -0.234316
N6    N     N_R   0.148292 0.416768 0.209486 0.263506
O15   O     O_R   0.121063 0.303043 0.154588 -0.206291
O16   O     O_R   0.181677 0.503317 0.136884 -0.236245
Cl1   Cl    Cl    0.914010 0.390397 0.168573 -0.268801
Cl2   Cl    Cl    0.083865 0.603926 0.841461 -0.278805
Cl3   Cl    Cl    0.493253 0.113765 0.207511 -0.290038
Cl4   Cl    Cl    0.470202 0.891581 0.774960 -0.278498
N7    N     N_R   0.404938 0.855350 0.248820 0.271682
O17   O     O_R   0.315440 0.788900 0.248329 -0.296249
O18   O     O_R   0.446343 0.849005 0.140100 -0.212272
N8    N     N_R   0.611239 0.138282 0.740289 0.265698
O19   O     O_R   0.686667 0.220935 0.723064 -0.314900
O20   O     O_R   0.612247 0.104096 0.864031 -0.175158
N9    N     N_R   0.658948 0.645967 0.190281 0.260663
O21   O     O_R   0.646617 0.751370 0.252762 -0.280154
O22   O     O_R   0.755196 0.616904 0.189861 -0.279075
N10   N     N_R   0.384528 0.306419 0.816946 0.256387
O23   O     O_R   0.407986 0.194163 0.848226 -0.250302
O24   O     O_R   0.295599 0.318131 0.731315 -0.295685
N11   N     N_R   0.624319 0.692760 0.908581 0.272523
O25   O     O_R   0.663637 0.683885 0.799470 -0.294671
O26   O     O_R   0.644041 0.798738 0.982634 -0.194843
N12   N     N_R   0.340741 0.345040 0.081079 0.276571
O27   O     O_R   0.343402 0.307140 0.202624 -0.286293
O28   O     O_R   0.255050 0.312179 0.987716 -0.202904

loop_
_geom_bond_atom_site_label_1
_geom_bond_atom_site_label_2
_geom_bond_distance
_ccdc_geom_bond_type
N10   O24   1.299703 A    
C13   C14   1.420631 A    
C17   N7    1.442211 S    
N3    O9    1.300972 A    
C12   N3    1.441466 S    
C16   Cl4   1.766273 S    
C16   C19   1.402275 A    
C17   C19   1.409076 A    
N5    O14   1.301161 A    
C3    C6    1.465816 S    
C16   C18   1.388896 A    
C4    C5    1.459874 S    
O6    C4    1.306012 A    
O7    Zn2   2.022884 S    
C10   N5    1.434071 S    
N10   O23   1.300181 A    
C15   Cl3   1.772536 S    
C18   N8    1.449662 S    
C9    N6    1.422656 S    
C23   N11   1.441022 S    
N9    O21   1.299314 A    
N3    O10   1.300781 A    
O2    C2    1.297667 A    
N7    O17   1.301557 A    
O5    C3    1.299343 A    
O7    C3    1.308346 A    
C6    C11   1.406512 A    
C11   N4    1.439919 S    
O8    C4    1.298840 A    
O3    Zn2   2.017496 S    
C6    C9    1.405862 A    
O1    C1    1.304398 A    
C18   C20   1.409161 A    
N4    O11   1.300749 A    
C23   N1    1.388913 A    
N8    O20   1.300773 A    
Zn1   N1    2.033374 S    
C24   N2    1.392553 A    
N7    O18   1.301155 A    
C11   C13   1.405018 A    
Zn2   N2    2.033374 S    
N5    O13   1.301985 A    
O2    Zn2   1.981306 S    
C12   C14   1.398365 A    
N9    O22   1.300641 A    
C7    C14   1.406568 A    
C15   C17   1.383715 A    
C21   C23   1.426554 A    
C22   N10   1.433993 S    
C8    C13   1.413624 A    
N6    O16   1.300813 A    
O3    C1    1.293921 A    
O5    Zn1   1.941558 S    
C2    C19   1.447199 S    
O1    Zn1   1.981305 S    
N8    O19   1.302071 A    
C8    Cl2   1.771828 S    
C8    C10   1.399465 A    
O4    C2    1.301338 A    
N11   O25   1.290800 A    
C1    C20   1.447371 S    
C21   N9    1.432455 S    
C15   C20   1.411839 A    
N12   O28   1.301253 A    
C21   N2    1.364920 A    
N12   O27   1.290464 A    
O6    Zn2   1.941557 S    
C7    C9    1.393161 A    
N6    O15   1.301657 A    
C24   N12   1.441327 S    
C5    C10   1.412057 A    
C5    C12   1.398112 A    
C7    Cl1   1.775012 S    
C22   N1    1.360171 A    
O4    Zn1   2.017496 S    
N4    O12   1.301126 A    
N11   O26   1.301471 A    
O8    Zn1   2.022883 S    
C22   C24   1.425877 A    
