data_mof_unit_10568.cif
_audit_creation_date              2012-12-10T20:45:31-0500
_audit_creation_method            fapswitch 2.2
_symmetry_space_group_name_H-M    P1
_symmetry_Int_Tables_number       1
_space_group_crystal_system       triclinic
_cell_length_a                    10.784625
_cell_length_b                    10.731271
_cell_length_c                    9.864399
_cell_angle_alpha                 90.146886
_cell_angle_beta                  90.354968
_cell_angle_gamma                 90.385458
_cell_volume                      1141.58224244

loop_
_atom_site_label
_atom_site_type_symbol
_atom_type_description
_atom_site_fract_x
_atom_site_fract_y
_atom_site_fract_z
_atom_type_partial_charge
C1    C     C_R   0.500689 0.260085 0.499748 0.915984
C2    C     C_R   0.831608 0.571970 0.972259 0.235775
C3    C     C_R   0.811265 0.454084 0.030597 -0.254395
C4    C     C_R   0.260351 0.504653 0.499277 0.865077
C5    C     C_R   0.832972 0.343899 0.957077 0.257378
C6    C     C_R   0.873741 0.352860 0.822635 -0.183299
C7    C     C_R   0.887742 0.469214 0.760904 0.063340
C8    C     C_R   0.478982 0.064066 0.620011 -0.008050
C9    C     C_R   0.492223 0.128186 0.498541 -0.082598
C10   C     C_R   0.492152 0.063499 0.375162 -0.212934
C11   C     C_R   0.489276 0.935229 0.375282 -0.266917
C12   C     C_R   0.223799 0.729478 0.036423 -0.118420
C13   C     C_R   0.486707 0.871384 0.499000 -0.069375
C14   C     C_R   0.473861 0.936323 0.620503 0.039683
C15   C     C_3   0.548606 0.925561 0.748391 -0.586272
C16   C     C_R   0.498349 0.739850 0.499976 0.869963
C17   C     C_3   0.557919 0.067461 0.745959 0.431572
C18   C     C_R   0.466560 0.395036 0.070934 0.164062
C19   C     C_R   0.533113 0.603189 0.072267 -0.140491
C20   C     C_R   0.535181 0.602475 0.928696 -0.105427
C21   C     C_R   0.465823 0.395460 0.927842 0.175520
C22   C     C_3   0.340880 0.335397 0.921476 -0.590732
C23   C     C_R   0.933952 0.546172 0.387700 -0.260448
C24   C     C_3   0.341718 0.334589 0.075224 0.332981
C25   C     C_R   0.740291 0.501800 0.501301 0.874082
C26   C     C_R   0.242828 0.780510 0.165312 -0.140854
C27   C     C_R   0.190705 0.723561 0.279159 -0.089718
C28   C     C_R   0.119723 0.613945 0.264560 0.145571
C29   C     C_R   0.100638 0.563758 0.134569 -0.160902
C30   C     C_R   0.152491 0.621316 0.021043 -0.135500
C31   C     C_3   0.713273 0.194555 0.091397 -0.737267
C32   C     C_3   0.759934 0.058561 0.645029 -0.327822
C33   C     C_3   0.228457 0.172318 0.163441 -0.328072
C34   C     C_R   0.873274 0.507882 0.505165 -0.087726
C35   C     C_3   0.832963 0.804007 0.997759 -0.817815
C36   C     C_R   0.941188 0.479927 0.623956 0.028578
C37   C     C_R   0.067951 0.476366 0.616724 -0.268419
C38   C     C_R   0.128326 0.512163 0.498510 -0.089218
C39   C     C_R   0.061555 0.554352 0.384389 -0.004515
C40   C     C_R   0.867439 0.578178 0.835614 -0.161676
H1    H     H_    0.264408 0.773666 0.948563 0.125888
H2    H     H_    0.297661 0.864441 0.176628 0.127263
H3    H     H_    0.564416 0.684916 0.875241 0.147936
H4    H     H_    0.269338 0.397848 0.878294 0.170852
H5    H     H_    0.342847 0.241244 0.874803 0.207556
H6    H     H_    0.273008 0.396511 0.123955 0.110894
H7    H     H_    0.205551 0.764678 0.378388 0.102215
H8    H     H_    0.048358 0.478176 0.121810 0.129747
H9    H     H_    0.137755 0.581824 0.921238 0.129589
H10   H     H_    0.881771 0.576279 0.300540 0.161330
H11   H     H_    0.119554 0.448968 0.706306 0.155811
H12   H     H_    0.785583 0.448515 0.136015 0.161599
H13   H     H_    0.884433 0.666886 0.787090 0.136072
H14   H     H_    0.859437 0.151878 0.963694 0.234741
H15   H     H_    0.720488 0.099887 0.135855 0.219048
H16   H     H_    0.633967 0.195047 0.019328 0.255939
H17   H     H_    0.696269 0.260776 0.175636 0.246430
H18   H     H_    0.714677 0.011851 0.557181 0.178345
H19   H     H_    0.812629 0.990162 0.706478 0.161179
H20   H     H_    0.827777 0.125558 0.602294 0.172326
H21   H     H_    0.164878 0.173120 0.074075 0.165454
H22   H     H_    0.190219 0.229989 0.247116 0.170347
H23   H     H_    0.897539 0.269603 0.766959 0.143059
H24   H     H_    0.233921 0.075255 0.200725 0.187812
H25   H     H_    0.770639 0.673814 0.141560 0.218289
H26   H     H_    0.824988 0.875173 0.079116 0.239897
H27   H     H_    0.756636 0.818044 0.923837 0.230987
H28   H     H_    0.924330 0.817526 0.948463 0.249381
H29   H     H_    0.502437 0.110894 0.279410 0.227106
H30   H     H_    0.497505 0.886883 0.279322 0.167915
H31   H     H_    0.490737 0.891127 0.833475 0.165294
H32   H     H_    0.635399 0.872610 0.734065 0.197254
H33   H     H_    0.507884 0.110274 0.831953 0.087684
H34   H     H_    0.557490 0.687554 0.126400 0.149295
N1    N     N_R   0.499160 0.499140 0.142800 -0.138544
N2    N     N_R   0.499160 0.499180 0.857150 -0.100121
N3    N     N_2   0.827001 0.224958 0.021368 -0.316215
N4    N     N_2   0.824538 0.680719 0.056173 -0.304518
O1    O     O_R   0.500020 0.316790 0.614690 -0.597354
O2    O     O_3   0.348593 0.212980 0.128350 -0.606475
O3    O     O_R   0.500000 0.316760 0.385350 -0.614577
O4    O     O_R   0.316770 0.500030 0.614670 -0.629844
O5    O     O_R   0.316750 0.499990 0.385330 -0.617460
O6    O     O_R   0.500000 0.683240 0.614650 -0.626177
O7    O     O_R   0.499980 0.683210 0.385310 -0.635619
O8    O     O_R   0.683250 0.500010 0.614670 -0.597077
O9    O     O_R   0.683230 0.499970 0.385330 -0.644686
O10   O     O_3   0.676846 0.124697 0.728855 -0.582708
Zn1   Zn    Zn3+2 0.500010 0.500020 0.653130 0.964296
Zn2   Zn    Zn3+2 0.499990 0.499980 0.346870 0.941843

loop_
_geom_bond_atom_site_label_1
_geom_bond_atom_site_label_2
_ccdc_geom_bond_type
C18   N1    A    
C18   C21   A    
C7    C36   S    
C19   C20   A    
C32   H18   S    
C11   H30   S    
C15   H32   S    
C21   N2    A    
C26   C27   A    
C37   C38   A    
O4    Zn1   S    
C18   C24   S    
C28   C29   A    
C38   C39   A    
C37   H11   S    
C1    O3    A    
C17   O10   S    
C25   O9    A    
C20   N2    A    
N1    Zn2   S    
C24   O2    S    
C22   H4    S    
C8    C9    A    
C7    C40   A    
C31   H16   S    
C29   C30   A    
C9    C10   A    
C25   C34   S    
H14   N3    S    
C13   C14   A    
C17   H33   S    
C31   N3    S    
C29   H8    S    
C1    C9    S    
C33   H22   S    
C23   H10   S    
C28   C39   S    
C16   O6    A    
C12   C26   A    
C6    H23   S    
C12   H1    S    
C2    N4    S    
C35   H27   S    
O7    Zn2   S    
C23   C34   A    
O3    Zn2   S    
C30   H9    S    
C4    C38   S    
C16   O7    A    
C1    O1    A    
C22   C24   S    
C13   C16   S    
O6    Zn1   S    
C32   H20   S    
C5    N3    S    
C20   H3    S    
C26   H2    S    
C27   H7    S    
C15   C17   S    
O5    Zn2   S    
C36   C37   A    
C8    C14   A    
H25   N4    S    
C12   C30   A    
C19   H34   S    
C3    C5    A    
O8    Zn1   S    
C3    H12   S    
C33   O2    S    
C6    C7    A    
C15   H31   S    
N2    Zn1   S    
C35   N4    S    
C8    C17   S    
C35   H26   S    
C24   H6    S    
C31   H17   S    
C19   N1    A    
C2    C3    A    
C11   C13   A    
C5    C6    A    
C4    O5    A    
C35   H28   S    
C33   H24   S    
C23   C39   A    
C25   O8    A    
C34   C36   A    
O1    Zn1   S    
C10   C11   A    
C10   H29   S    
C2    C40   A    
C22   H5    S    
C4    O4    A    
C33   H21   S    
C40   H13   S    
O9    Zn2   S    
C27   C28   A    
C14   C15   S    
C32   H19   S    
C31   H15   S    
C21   C22   S    
C32   O10   S    
