data_mof_unit_53746.cif
_audit_creation_date              2012-12-10T18:47:42-0500
_audit_creation_method            fapswitch 2.2
_symmetry_space_group_name_H-M    P1
_symmetry_Int_Tables_number       1
_space_group_crystal_system       triclinic
_cell_length_a                    9.865726
_cell_length_b                    10.705596
_cell_length_c                    15.429649
_cell_angle_alpha                 89.899775
_cell_angle_beta                  67.422327
_cell_angle_gamma                 89.990815
_cell_volume                      1504.75648987

loop_
_atom_site_label
_atom_site_type_symbol
_atom_type_description
_atom_site_fract_x
_atom_site_fract_y
_atom_site_fract_z
_atom_type_partial_charge
C1    C     C_R   0.500105 0.740046 0.499893 0.875159
C2    C     C_R   0.500394 0.259980 0.499360 0.897047
C3    C     C_R   0.356751 0.357525 0.092554 0.558927
C4    C     C_R   0.678727 0.468796 0.887094 0.501961
C5    C     C_R   0.254361 0.340846 0.051469 -0.179573
C6    C     C_R   0.780934 0.489696 0.927426 -0.190727
C7    C     C_R   0.606067 0.936026 0.522097 -0.172270
C8    C     C_R   0.395344 0.064073 0.476089 -0.147206
C9    C     C_R   0.606204 0.063980 0.521900 -0.183611
C10   C     C_R   0.395091 0.936090 0.476406 -0.187591
C11   C     C_R   0.500761 0.127525 0.498984 0.010604
C12   C     C_R   0.500392 0.872535 0.499479 -0.005158
C13   C     C_R   0.954004 0.406483 0.457082 -0.025476
C14   C     C_R   0.045761 0.593208 0.543320 -0.035886
C15   C     C_R   0.097805 0.406699 0.456842 0.005634
C16   C     C_R   0.902065 0.593115 0.543373 -0.042894
C17   C     C_R   0.407115 0.493834 0.676362 0.909587
C18   C     C_R   0.592690 0.502076 0.323076 0.923596
C19   C     C_R   0.345924 0.468636 0.777690 -0.243946
C20   C     C_R   0.652235 0.498422 0.219623 -0.240455
C21   C     C_R   0.184057 0.360899 0.918127 -0.242682
C22   C     C_R   0.841577 0.517986 0.063322 -0.264373
C23   C     C_R   0.220444 0.392342 0.823566 0.357940
C24   C     C_R   0.800684 0.523528 0.160704 0.473618
C25   C     C_R   0.432611 0.504573 0.826254 -0.223321
C26   C     C_R   0.551792 0.468126 0.178916 -0.239719
C27   C     C_R   0.415465 0.447265 0.911071 0.106988
C28   C     C_R   0.594102 0.454724 0.082352 0.099441
C29   C     C_R   0.282418 0.385436 0.961426 0.016732
C30   C     C_R   0.739344 0.486849 0.024233 -0.003499
C31   C     C_R   0.528512 0.448455 0.945924 -0.132454
C32   C     C_R   0.491990 0.420775 0.042061 -0.108774
H1    H     H_    0.153600 0.290585 0.089921 0.180717
H2    H     H_    0.893107 0.511069 0.883039 0.162776
H3    H     H_    0.437198 0.461907 0.223416 0.243082
H4    H     H_    0.521653 0.569581 0.793353 0.210678
H5    H     H_    0.086055 0.306847 0.955548 0.189206
H6    H     H_    0.953111 0.540554 0.017288 0.186926
H7    H     H_    0.687349 0.887184 0.540677 0.149163
H8    H     H_    0.314091 0.112980 0.457512 0.150182
H9    H     H_    0.687509 0.112775 0.540424 0.150722
H10   H     H_    0.313648 0.887266 0.458046 0.155655
H11   H     H_    0.920544 0.331588 0.422679 0.152440
H12   H     H_    0.078916 0.667629 0.578282 0.122629
H13   H     H_    0.172919 0.332161 0.422015 0.135274
H14   H     H_    0.826857 0.667513 0.578329 0.129780
N1    N     N_R   0.142780 0.500030 0.500020 -0.070431
N2    N     N_R   0.857220 0.499970 0.499980 -0.090511
O1    O     O_R   0.385370 0.683250 0.500010 -0.639715
O2    O     O_R   0.614630 0.316750 0.499990 -0.648896
O3    O     O_R   0.614700 0.683220 0.500000 -0.620373
O4    O     O_R   0.385300 0.316780 0.500000 -0.588117
O5    O     O_R   0.319830 0.500020 0.632250 -0.567868
O6    O     O_R   0.680170 0.499980 0.367750 -0.530676
O7    O     O_R   0.549160 0.499990 0.632240 -0.609238
O8    O     O_R   0.450840 0.500010 0.367760 -0.632120
Zn1   Zn    Zn3+2 0.346870 0.500020 0.500000 1.004970
Zn2   Zn    Zn3+2 0.653130 0.499980 0.500000 0.993613
S1    S     S_3+6 0.936714 0.568993 0.203367 0.013218
O9    O     O_2   0.973925 0.458758 0.250497 -0.324570
O10   O     O_2   0.073606 0.612350 0.124309 -0.309749
O11   O     O_3   0.872872 0.686333 0.280885 -0.544820
H15   H     H_    0.938968 0.688773 0.315617 0.376818
S2    S     S_3+6 0.123382 0.314426 0.763541 0.009213
O12   O     O_2   0.228718 0.230791 0.690619 -0.281173
O13   O     O_2   0.003367 0.235108 0.831035 -0.331368
O14   O     O_3   0.049016 0.414700 0.710173 -0.512751
H16   H     H_    0.054909 0.498186 0.735857 0.333718
O15   O     O_3   0.325808 0.302914 0.179345 -0.618014
C33   C     C_3   0.394647 0.185076 0.165956 -0.332534
H17   H     H_    0.516159 0.193633 0.131497 0.175858
H18   H     H_    0.352440 0.122052 0.124678 0.176441
H19   H     H_    0.369041 0.141257 0.235684 0.196190
O16   O     O_3   0.730533 0.464684 0.789991 -0.624860
C34   C     C_3   0.728531 0.339854 0.760639 -0.133059
H20   H     H_    0.615719 0.308735 0.772089 0.133612
H21   H     H_    0.777326 0.273844 0.796219 0.206317
H22   H     H_    0.794440 0.334422 0.684122 0.204029

loop_
_geom_bond_atom_site_label_1
_geom_bond_atom_site_label_2
_ccdc_geom_bond_type
C10   H10   S    
C15   N1    A    
C16   N2    A    
C3    O15   S    
C24   S1    S    
C27   C29   A    
C22   H6    S    
O1    Zn1   S    
O8    Zn1   S    
C34   H21   S    
C2    O2    A    
C20   C24   A    
C5    H1    S    
C33   H17   S    
C14   C16   A    
C17   O7    A    
C4    O16   S    
C18   O8    A    
S1    O9    D    
C3    C32   A    
C1    C12   S    
C2    C11   S    
C10   C12   A    
C5    C29   A    
C7    C12   A    
S1    O10   D    
O16   C34   S    
C27   C31   A    
O14   H16   S    
O2    Zn2   S    
S2    O14   S    
C28   C32   A    
C4    C6    A    
C16   H14   S    
O5    Zn1   S    
C21   C29   A    
C6    H2    S    
S2    O13   D    
C19   C23   A    
C34   H20   S    
O11   H15   S    
N1    Zn1   S    
C1    O3    A    
C31   C32   A    
C33   H19   S    
O3    Zn2   S    
C9    C11   A    
C2    O4    A    
C23   S2    S    
C6    C30   A    
C13   C15   A    
C22   C24   A    
C15   H13   S    
C17   O5    A    
C13   H11   S    
C14   H12   S    
O6    Zn2   S    
C7    C9    A    
S1    O11   S    
C22   C30   A    
C26   C28   A    
C3    C5    A    
C13   N2    A    
N2    Zn2   S    
C14   N1    A    
C25   C27   A    
C9    H9    S    
S2    O12   D    
C21   C23   A    
C20   C26   A    
C8    C11   A    
C28   C30   A    
C17   C19   S    
C18   C20   S    
O15   C33   S    
C19   C25   A    
C34   H22   S    
C4    C31   A    
O4    Zn1   S    
C18   O6    A    
C25   H4    S    
C26   H3    S    
C21   H5    S    
C8    C10   A    
O7    Zn2   S    
C7    H7    S    
C33   H18   S    
C8    H8    S    
C1    O1    A    
