data_mof_unit_10904.cif
_audit_creation_date              2012-12-11T15:39:21-0500
_audit_creation_method            fapswitch 2.2
_symmetry_space_group_name_H-M    P1
_symmetry_Int_Tables_number       1
_space_group_crystal_system       triclinic
_cell_length_a                    14.309755
_cell_length_b                    14.742722
_cell_length_c                    33.213013
_cell_angle_alpha                 97.844623
_cell_angle_beta                  90.746527
_cell_angle_gamma                 118.666552
_cell_volume                      6065.50539324

loop_
_atom_site_label
_atom_site_type_symbol
_atom_type_description
_atom_site_fract_x
_atom_site_fract_y
_atom_site_fract_z
_atom_type_partial_charge
C1    C     C_R   0.616344 0.910105 0.436710 0.608843
C2    C     C_R   0.710969 0.434808 0.949699 0.532146
C3    C     C_R   0.583247 0.744620 0.762187 0.051920
C4    C     C_R   0.592276 0.772698 0.723351 0.397206
C5    C     C_R   0.645465 0.741214 0.694476 0.063584
C6    C     C_R   0.689175 0.677535 0.703567 0.024053
C7    C     C_R   0.682984 0.649991 0.743233 0.105623
C8    C     C_R   0.632666 0.686738 0.772899 0.070639
C9    C     C_R   0.574859 0.708355 0.621109 -0.023137
C10   C     C_R   0.576446 0.745835 0.583928 -0.037058
C11   C     C_R   0.716323 0.918994 0.615055 -0.136760
C12   C     C_2   0.544171 0.307343 0.087447 0.346733
C13   C     C_R   0.737391 0.718909 0.944817 0.576720
C14   C     C_2   0.820380 0.364228 0.451913 0.351148
C15   C     C_2   0.252623 0.745115 0.178417 0.348610
C16   C     C_2   0.192257 0.684450 0.376055 0.419787
C17   C     C_2   0.199414 0.026933 0.413681 0.340245
C18   C     C_2   0.167869 0.043074 0.195528 0.361336
C19   C     C_2   0.103836 0.997419 0.108894 0.264105
C20   C     C_2   0.191363 0.046065 0.327689 0.336170
C21   C     C_2   0.853479 0.040394 0.196992 0.326197
C22   C     C_2   0.464820 0.718125 0.294748 0.374548
C23   C     C_2   0.849351 0.333992 0.825425 0.302767
C24   C     C_R   0.834746 0.458574 0.167568 -0.042489
C25   C     C_2   0.509103 0.339130 0.616206 0.398728
C26   C     C_2   0.484327 0.297964 0.910010 0.407184
C27   C     C_2   0.104055 0.597623 0.900789 0.408710
C28   C     C_2   0.679840 0.141875 0.283009 0.315470
C29   C     C_2   0.285522 0.769994 0.700033 0.353623
C30   C     C_2   0.262976 0.020087 0.689691 0.328106
C31   C     C_2   0.089769 0.591413 0.811911 0.306116
C32   C     C_2   0.096634 0.681377 0.551046 0.321682
C33   C     C_2   0.703398 0.178389 0.197789 0.321864
C34   C     C_2   0.811909 0.954791 0.682486 0.345358
C35   C     C_R   0.834870 0.488519 0.129891 0.371916
C36   C     C_2   0.526072 0.782250 0.791311 0.385485
C37   C     C_2   0.740091 0.641290 0.670949 0.339135
C38   C     C_2   0.736346 0.590301 0.754554 0.361762
C39   C     C_2   0.487297 0.602195 0.625780 0.266137
C40   C     C_2   0.518146 0.670225 0.545884 0.270503
C41   C     C_R   0.715666 0.263177 0.231149 -0.023818
C42   C     C_R   0.705547 0.245989 0.272267 -0.027932
C43   C     C_R   0.721459 0.329868 0.303282 0.055582
C44   C     C_R   0.752272 0.429379 0.294017 0.477353
C45   C     C_R   0.761373 0.445986 0.253956 0.419664
C46   C     C_R   0.740411 0.363422 0.222381 0.004269
C47   C     C_R   0.740152 0.384135 0.180397 0.035880
C48   C     C_R   0.582562 0.255606 0.350297 0.386135
C49   C     C_R   0.593431 0.205206 0.456617 0.551892
C50   C     C_R   0.551374 0.229336 0.388194 0.394709
C51   C     C_R   0.738511 0.323228 0.416437 -0.060662
C52   C     C_R   0.768825 0.348810 0.377592 0.440618
C53   C     C_R   0.690997 0.311597 0.344553 0.035285
C54   C     C_R   0.628586 0.258691 0.421098 -0.112568
C55   C     C_R   0.231861 0.872838 0.394222 -0.066538
C56   C     C_R   0.214582 0.953527 0.382441 -0.005802
C57   C     C_R   0.203634 0.959157 0.340448 -0.047458
C58   C     C_R   0.726275 0.880250 0.650093 0.001819
C59   C     C_R   0.202982 0.880515 0.310813 0.024018
C60   C     C_R   0.200333 0.791914 0.322677 0.419391
C61   C     C_R   0.291610 0.891033 0.434773 0.553442
C62   C     C_R   0.210464 0.785115 0.364224 -0.011881
C63   C     C_R   0.207058 0.806689 0.162407 0.009989
C64   C     C_R   0.168936 0.781078 0.121089 0.392017
C65   C     C_R   0.129919 0.925747 0.127728 -0.099575
C66   C     C_R   0.166819 0.951347 0.169852 -0.008481
C67   C     C_R   0.197265 0.886302 0.187589 -0.016207
C68   C     C_1   0.202720 0.890235 0.231533 0.148223
C69   C     C_R   0.651802 0.775558 0.654141 0.046424
C70   C     C_1   0.203347 0.887720 0.267734 0.177329
C71   C     C_R   0.121185 0.833475 0.104046 0.007054
C72   C     C_R   0.634635 0.879506 0.394344 -0.046797
C73   C     C_R   0.615435 0.903363 0.550649 0.591181
C74   C     C_R   0.547893 0.803687 0.366591 0.345616
C75   C     C_R   0.557535 0.795100 0.324207 -0.067415
C76   C     C_R   0.655726 0.863010 0.310047 -0.112364
C77   C     C_R   0.744331 0.930973 0.337677 0.471327
C78   C     C_R   0.734367 0.938904 0.379464 0.382957
C79   C     C_R   0.770882 0.941082 0.171792 -0.048410
C80   C     C_R   0.639446 0.854579 0.582723 0.025158
C81   C     C_R   0.784431 0.921065 0.130217 0.269865
C82   C     C_R   0.618865 0.755540 0.121713 0.379905
C83   C     C_R   0.604037 0.775225 0.162612 0.403918
C84   C     C_R   0.681901 0.864321 0.188199 -0.076899
C85   C     C_R   0.590388 0.200313 0.571004 0.607843
C86   C     C_1   0.673779 0.867922 0.231358 0.138118
C87   C     C_1   0.666332 0.866460 0.267259 0.103878
C88   C     C_R   0.712638 0.824999 0.105650 -0.027380
C89   C     C_R   0.623409 0.249062 0.614646 -0.048310
C90   C     C_R   0.571088 0.298894 0.636612 -0.011237
C91   C     C_R   0.053654 0.782258 0.064042 0.579859
C92   C     C_R   0.578351 0.311696 0.679502 0.319247
C93   C     C_R   0.640752 0.280572 0.700443 -0.028454
C94   C     C_R   0.701159 0.242246 0.679139 0.386381
C95   C     C_R   0.693212 0.226892 0.636709 0.385818
C96   C     C_R   0.756194 0.331820 0.845816 -0.046425
C97   C     C_R   0.289150 0.887380 0.548518 0.557175
C98   C     C_R   0.768084 0.362615 0.888277 0.311030
C99   C     C_R   0.580827 0.319548 0.887964 -0.035961
C100  C     C_R   0.570044 0.292202 0.845211 0.430469
C101  C     C_R   0.658075 0.303483 0.824155 -0.020792
C102  C     C_R   0.744121 0.485531 0.065765 0.539030
C103  C     C_1   0.647964 0.292748 0.780405 0.204794
C104  C     C_1   0.643136 0.287166 0.743937 0.206564
C105  C     C_R   0.683992 0.365607 0.909234 -0.067156
C106  C     C_R   0.073160 0.754483 0.908667 -0.064428
C107  C     C_R   0.085043 0.843044 0.893124 0.421645
C108  C     C_R   0.098386 0.849487 0.852182 0.508339
C109  C     C_R   0.739718 0.443090 0.103750 -0.063676
C110  C     C_R   0.096673 0.766336 0.825537 -0.016551
C111  C     C_R   0.093598 0.680103 0.840900 -0.066551
C112  C     C_R   0.090242 0.678452 0.883382 -0.082228
C113  C     C_R   0.742553 0.790143 0.066237 0.601433
C114  C     C_R   0.190254 0.771927 0.762566 0.368523
C115  C     C_R   0.198888 0.779875 0.721088 -0.035205
C116  C     C_R   0.124593 0.798150 0.700020 -0.038655
C117  C     C_R   0.038572 0.799182 0.719213 0.482222
C118  C     C_R   0.028166 0.786504 0.759905 0.405376
C119  C     C_R   0.104633 0.774254 0.781878 -0.030892
C120  C     C_R   0.219209 0.930660 0.655082 -0.035044
C121  C     C_R   0.643697 0.363568 0.115683 -0.038726
C122  C     C_R   0.260319 0.949111 0.617424 0.307321
C123  C     C_R   0.142352 0.765902 0.587291 -0.056306
C124  C     C_R   0.023680 0.732888 0.947682 0.568884
C125  C     C_R   0.102061 0.747020 0.625434 0.403708
C126  C     C_R   0.143680 0.827269 0.659333 -0.004265
C127  C     C_R   0.226666 0.866758 0.584157 -0.064256
C128  C     C_R   0.706373 0.708873 0.900880 -0.121185
C129  C     C_R   0.615442 0.619298 0.879973 0.345682
C130  C     C_R   0.590935 0.610451 0.838116 0.469287
C131  C     C_R   0.657079 0.690484 0.816684 -0.052906
C132  C     C_R   0.747655 0.778715 0.837138 0.389070
C133  C     C_R   0.644855 0.335902 0.154626 0.450027
C134  C     C_R   0.772963 0.787626 0.878504 0.358580
Cr1   Cr    Cr6+3 0.424820 0.846020 0.489780 1.133781
Cr2   Cr    Cr6+3 0.657880 0.078580 0.505700 1.162549
Cr3   Cr    Cr6+3 0.417280 0.075360 0.504550 1.172667
Cr4   Cr    Cr6+3 0.903360 0.812540 0.006510 1.177589
Cr5   Cr    Cr6+3 0.914630 0.587050 0.006280 1.207464
Cr6   Cr    Cr6+3 0.673560 0.582680 0.008540 1.170572
F1    F     F_    0.445600 0.167639 0.391679 -0.609585
F2    F     F_    0.543853 0.665187 0.098565 -0.520644
F3    F     F_    0.864106 0.394307 0.908919 -0.620996
F4    F     F_    0.873486 0.407271 0.371336 -0.509243
F5    F     F_    0.764342 0.214799 0.699445 -0.532322
F6    F     F_    0.748784 0.183340 0.617476 -0.567097
F7    F     F_    0.474072 0.256021 0.823655 -0.486241
F8    F     F_    0.524945 0.354758 0.700931 -0.554291
F9    F     F_    0.081009 0.922887 0.917366 -0.485492
F10   F     F_    0.026497 0.649360 0.630554 -0.543535
F11   F     F_    0.267411 0.766441 0.784764 -0.540678
F12   F     F_    0.176301 0.702029 0.097569 -0.560036
F13   F     F_    0.109980 0.936359 0.838142 -0.442150
F14   F     F_    0.968175 0.817873 0.698991 -0.560048
F15   F     F_    0.945659 0.789845 0.778375 -0.539663
F16   F     F_    0.339584 0.046824 0.614121 -0.642632
F17   F     F_    0.550570 0.540121 0.899743 -0.524318
F18   F     F_    0.863689 0.873870 0.896325 -0.467456
F19   F     F_    0.551429 0.834099 0.713553 -0.610351
F20   F     F_    0.502785 0.524417 0.818492 -0.446624
F21   F     F_    0.811582 0.857287 0.816843 -0.461234
F22   F     F_    0.553751 0.263042 0.167892 -0.538962
F23   F     F_    0.187569 0.711895 0.293318 -0.528763
F24   F     F_    0.766699 0.509151 0.323765 -0.531880
F25   F     F_    0.785104 0.542074 0.245606 -0.562318
F26   F     F_    0.506898 0.222359 0.318517 -0.564977
F27   F     F_    0.927891 0.566322 0.119993 -0.587125
F28   F     F_    0.870289 0.993661 0.114292 -0.617136
F29   F     F_    0.839881 0.993489 0.324008 -0.485337
F30   F     F_    0.821386 0.009066 0.405164 -0.517870
F31   F     F_    0.452123 0.742965 0.380532 -0.537473
F32   F     F_    0.516473 0.703163 0.177986 -0.549894
H1    H     H_    0.908263 0.496214 0.187520 0.194263
H2    H     H_    0.236696 0.125122 0.344332 0.170260
H3    H     H_    0.925692 0.091713 0.183987 0.195157
H4    H     H_    0.469458 0.717745 0.262174 0.163896
H5    H     H_    0.926078 0.365945 0.842814 0.185297
H6    H     H_    0.443119 0.342891 0.630578 0.202628
H7    H     H_    0.484805 0.290637 0.942056 0.105674
H8    H     H_    0.061256 0.516269 0.886484 0.168648
H9    H     H_    0.631279 0.070139 0.261958 0.103537
H10   H     H_    0.306291 0.795288 0.670720 0.084975
H11   H     H_    0.333737 0.093069 0.686760 0.190015
H12   H     H_    0.767081 0.001307 0.613517 0.193377
H13   H     H_    0.045568 0.568035 0.782139 0.125386
H14   H     H_    0.115728 0.699618 0.520664 0.116151
H15   H     H_    0.649413 0.096830 0.199260 0.113291
H16   H     H_    0.856469 0.037237 0.679824 0.175015
H17   H     H_    0.508610 0.843016 0.784805 0.215007
H18   H     H_    0.777364 0.688741 0.647582 0.165696
H19   H     H_    0.806172 0.596725 0.740030 0.157765
H20   H     H_    0.409504 0.570344 0.609239 0.121250
H21   H     H_    0.445875 0.597150 0.546693 0.111901
H22   H     H_    0.547299 0.311418 0.055117 0.105775
H23   H     H_    0.796160 0.357326 0.482652 0.118410
H24   H     H_    0.238374 0.671230 0.160891 0.218907
H25   H     H_    0.170335 0.667727 0.406385 0.129244
H26   H     H_    0.226399 0.107303 0.409861 0.145334
H27   H     H_    0.111475 0.068907 0.187844 0.140286
H28   H     H_    0.026246 0.969535 0.093096 0.205435
O1    O     O_R   0.318160 0.824460 0.443680 -0.510211
O2    O     O_R   0.668160 0.499860 0.053480 -0.505609
O3    O     O_R   0.689170 0.693840 0.050110 -0.434960
O4    O     O_R   0.525040 0.857250 0.449830 -0.421541
O5    O     O_R   0.803860 0.812940 0.962540 -0.401863
O6    O     O_R   0.982950 0.787950 0.964120 -0.442698
O7    O     O_R   0.007050 0.649970 0.960540 -0.465241
O8    O     O_R   0.807910 0.482370 0.965590 -0.427386
O9    O     O_R   0.643310 0.460980 0.963840 -0.514291
O10   O     O_R   0.666140 0.657800 0.967020 -0.418239
O11   O     O_3   0.830520 0.660760 0.007110 -0.351569
O12   O     O_R   0.645130 0.163230 0.552140 -0.441362
O13   O     O_R   0.684760 0.998800 0.456360 -0.440204
O14   O     O_R   0.647540 0.166310 0.470260 -0.520815
O15   O     O_R   0.500960 0.181750 0.467450 -0.429318
O16   O     O_R   0.331100 0.981120 0.457080 -0.448562
O17   O     O_R   0.315560 0.821140 0.532010 -0.540458
O18   O     O_R   0.522630 0.854180 0.531710 -0.477403
O19   O     O_R   0.682160 0.995480 0.544690 -0.464055
O20   O     O_2   0.457218 0.254746 0.099762 -0.330641
O21   O     O_2   0.915874 0.407053 0.447464 -0.360626
O22   O     O_2   0.309227 0.777182 0.210550 -0.456130
O23   O     O_R   0.498360 0.178430 0.555780 -0.449462
O24   O     O_2   0.198293 0.617553 0.351938 -0.281311
O25   O     O_2   0.152908 0.996671 0.443728 -0.449328
O26   O     O_2   0.233878 0.092636 0.224788 -0.381120
O27   O     O_2   0.169996 0.089901 0.111395 -0.386126
O28   O     O_2   0.128597 0.029574 0.298810 -0.403795
O29   O     O_2   0.842045 0.067420 0.232151 -0.439031
O30   O     O_2   0.382201 0.653038 0.306275 -0.289585
O31   O     O_2   0.841885 0.298256 0.789431 -0.411955
O32   O     O_2   0.534056 0.373012 0.584195 -0.463812
O33   O     O_2   0.402775 0.286763 0.892712 -0.268435
O34   O     O_R   0.328690 0.978040 0.538950 -0.416132
O35   O     O_2   0.166526 0.622486 0.930826 -0.380043
O36   O     O_2   0.714045 0.135075 0.315692 -0.445903
O37   O     O_2   0.332791 0.730107 0.714629 -0.354582
O38   O     O_2   0.220077 0.015100 0.721441 -0.395998
O39   O     O_2   0.139368 0.547108 0.819987 -0.382348
O40   O     O_2   0.036178 0.590393 0.554439 -0.371582
O41   O     O_2   0.755264 0.198805 0.168223 -0.459858
O42   O     O_2   0.835859 0.926012 0.711808 -0.360823
O43   O     O_2   0.494793 0.744377 0.822145 -0.420201
O44   O     O_2   0.736672 0.556391 0.668531 -0.467058
O45   O     O_3   0.499990 0.999990 0.500010 -0.309334
O46   O     O_2   0.702377 0.532275 0.779956 -0.495035
O47   O     O_2   0.499779 0.549138 0.648165 -0.459499
O48   O     O_2   0.553779 0.687022 0.512858 -0.440079
O49   O     O_R   0.828710 0.851830 0.052170 -0.454212
O50   O     O_R   0.005980 0.823990 0.047210 -0.544478
O51   O     O_R   0.031900 0.688850 0.050170 -0.367476
O52   O     O_R   0.830940 0.518420 0.048680 -0.425696

loop_
_geom_bond_atom_site_label_1
_geom_bond_atom_site_label_2
_ccdc_geom_bond_type
C14   H23   S    
C25   O32   D    
C93   C94   A    
C98   F3    S    
C34   O42   D    
C41   C42   A    
Cr1   O45   S    
C14   O21   D    
C33   O41   D    
Cr5   O52   S    
C9    C39   S    
C97   C127  S    
Cr4   O49   S    
C133  F22   S    
C129  F17   S    
C114  C115  A    
Cr4   O6    S    
Cr6   O10   S    
C7    C8    A    
Cr1   O1    S    
Cr2   O19   S    
C91   O51   A    
C77   C78   A    
C23   C96   S    
C117  F14   S    
C19   H28   S    
C50   C54   A    
C98   C105  A    
C64   F12   S    
C102  O52   A    
C132  F21   S    
C130  F20   S    
C84   C86   S    
C129  C130  A    
Cr6   O2    S    
C79   C84   A    
C120  C126  A    
C123  C125  A    
C4    F19   S    
C92   F8    S    
C106  C107  A    
C88   C113  S    
C100  F7    S    
C49   C54   S    
Cr1   O17   S    
C55   C62   A    
Cr4   O11   S    
C78   F30   S    
C60   F23   S    
C113  O49   A    
C116  C117  A    
C73   O19   A    
C10   C40   S    
C30   H11   S    
C64   C71   A    
C122  C127  A    
Cr5   O8    S    
C19   O27   D    
C110  C111  A    
C100  C101  A    
C72   C78   A    
C18   O26   D    
C61   O1    A    
C118  C119  A    
C13   C128  S    
C17   O25   D    
C43   C53   S    
C20   H2    S    
C108  F13   S    
C14   C51   S    
C21   H3    S    
C96   C98   A    
Cr2   O45   S    
C5    C69   S    
C107  C108  A    
C19   C65   S    
C61   O16   A    
C11   C58   A    
C9    C10   A    
C114  C119  A    
C35   C109  A    
C50   F1    S    
C82   F2    S    
C26   C99   S    
C94   F5    S    
C48   C50   A    
C37   H18   S    
C29   C115  S    
C59   C60   A    
C101  C103  S    
C37   O44   D    
Cr2   O12   S    
C96   C101  A    
C47   C133  A    
C31   O39   D    
C24   C47   A    
C32   C123  S    
C21   C79   S    
C11   H12   S    
C95   F6    S    
C16   C62   S    
C22   C75   S    
C30   O38   D    
C24   H1    S    
C93   C104  S    
C29   O37   D    
C40   O48   D    
Cr4   O5    S    
C120  C122  A    
Cr6   O9    S    
Cr2   O14   S    
C40   H21   S    
C48   C53   A    
C99   C105  A    
C63   C67   A    
C24   C35   A    
C74   C75   A    
C12   C121  S    
C67   C68   S    
C1    C72   S    
C118  F15   S    
C27   H8    S    
C128  C129  A    
C72   C74   A    
C3    C8    A    
C29   H10   S    
Cr6   O3    S    
C79   C81   A    
C85   C89   S    
C86   C87   T    
C106  C112  A    
C32   O40   D    
Cr5   O11   S    
C26   H7    S    
Cr1   O18   S    
C49   O14   A    
C31   C111  S    
C36   H17   S    
C89   C95   A    
C75   C76   A    
C128  C134  A    
Cr3   O45   S    
C123  C127  A    
C83   C84   A    
C22   O30   D    
C41   C46   A    
C21   O29   D    
C83   F32   S    
C31   H13   S    
C55   C56   A    
C25   C90   S    
C6    C37   S    
C71   C91   S    
C17   H26   S    
C33   H15   S    
C52   F4    S    
C76   C77   A    
C34   H16   S    
C85   O23   A    
C17   C56   S    
C74   F31   S    
C6    C7    A    
Cr5   O7    S    
C28   O36   D    
C132  C134  A    
C39   O47   D    
C15   H24   S    
C26   O33   D    
C77   F29   S    
C134  F18   S    
C27   C112  S    
C65   C66   A    
Cr3   O34   S    
C43   C44   A    
C1    O13   A    
C125  C126  A    
C13   O5    A    
C16   O24   D    
C35   F27   S    
C2    O8    A    
C56   C57   A    
C3    C4    A    
C85   O12   A    
C18   H27   S    
C52   C53   A    
Cr2   O13   S    
C8    C131  S    
C49   O15   A    
C46   C47   S    
C2    O9    A    
C10   C80   A    
C111  C112  A    
C124  O6    A    
C25   H6    S    
C36   O43   D    
C122  F16   S    
C13   O10   A    
C125  F10   S    
Cr5   O51   S    
C44   C45   A    
C9    C69   A    
C4    C5    A    
Cr4   O50   S    
C131  C132  A    
C110  C119  S    
C76   C87   S    
Cr3   O16   S    
C58   C69   A    
C7    C38   S    
Cr1   O4    S    
C27   O35   D    
C18   C66   S    
C81   F28   S    
Cr3   O23   S    
C2    C105  S    
C20   O28   D    
C99   C100  A    
C32   H14   S    
Cr3   O15   S    
C51   C54   A    
C33   C41   S    
C15   O22   D    
C130  C131  A    
C20   C57   S    
C51   C52   A    
C124  O7    A    
C65   C71   A    
C117  C118  A    
C60   C62   A    
C39   H20   S    
C109  C121  A    
C5    C6    A    
C30   C120  S    
C3    C36   S    
C28   H9    S    
C82   C88   A    
C97   O34   A    
C55   C61   S    
C28   C42   S    
C92   C93   A    
C90   C92   A    
C73   C80   S    
C108  C110  A    
C73   O18   A    
C66   C67   A    
C97   O17   A    
C113  O3    A    
C102  O2    A    
C94   C95   A    
C22   H4    S    
C23   H5    S    
C81   C88   A    
C57   C59   A    
C11   C80   A    
C59   C70   S    
C63   C64   A    
C107  F9    S    
C45   C46   A    
C48   F26   S    
C68   C70   T    
C82   C83   A    
C42   C43   A    
C106  C124  S    
C103  C104  T    
C34   C58   S    
C15   C63   S    
C102  C109  S    
C116  C126  S    
C44   F24   S    
C121  C133  A    
C89   C90   A    
C1    O4    A    
C45   F25   S    
C12   O20   D    
C38   H19   S    
C23   O31   D    
C16   H25   S    
C115  C116  A    
Cr6   O11   S    
C12   H22   S    
C114  F11   S    
C91   O50   A    
C38   O46   D    
