data_mof_unit_22551.cif
_audit_creation_date              2013-03-05T15:43:10-0500
_audit_creation_method            fapswitch 2.2
_symmetry_space_group_name_H-M    P1
_symmetry_Int_Tables_number       1
_space_group_crystal_system       triclinic
_cell_length_a                    6.955097
_cell_length_b                    13.771065
_cell_length_c                    17.926432
_cell_angle_alpha                 112.446622
_cell_angle_beta                  95.512392
_cell_angle_gamma                 89.894414
_cell_volume                      1578.4202211

loop_
_atom_site_label
_atom_site_type_symbol
_atom_site_description
_atom_site_fract_x
_atom_site_fract_y
_atom_site_fract_z
_atom_type_partial_charge
O1    O     O_R   0.484560 0.544530 0.414330 -0.551299
O2    O     O_R   0.197040 0.638810 0.585080 -0.567758
O3    O     O_R   0.026800 0.455470 0.585670 -0.571235
C1    C     C_R   0.373397 0.678554 0.610257 0.844156
O4    O     O_R   0.155000 0.556150 0.414940 -0.539986
O5    O     O_R   0.984450 0.372220 0.414320 -0.531779
C2    C     C_R   0.317484 0.565286 0.386766 0.911667
O6    O     O_R   0.526900 0.627780 0.585680 -0.562470
O7    O     O_3   0.339170 0.439750 0.499990 -0.262434
V1    V     V_3+5 0.064350 0.511180 0.500000 1.173663
O8    O     O_R   0.654880 0.361190 0.414920 -0.518065
C3    C     C_R   0.817484 0.325512 0.385822 0.897834
O9    O     O_R   0.696930 0.443850 0.585060 -0.572604
C4    C     C_R   0.873348 0.433898 0.612497 0.815962
V2    V     V_3+5 0.564340 0.488820 0.500000 1.183006
O10   O     O_3   0.839390 0.560250 0.500010 -0.283532
C5    C     C_R   0.040424 0.862108 0.823327 -0.096272
C6    C     C_R   0.906748 0.398116 0.680176 -0.094087
C7    C     C_R   0.926331 0.823012 0.682928 -0.047217
C8    C     C_R   0.974566 0.789599 0.746106 -0.090805
C9    C     C_R   0.050902 0.969858 0.837756 -0.117987
C10   C     C_R   0.999277 0.006398 0.774333 0.054033
C11   C     C_R   0.938975 0.929963 0.696113 0.041717
C12   C     C_R   0.004005 0.115403 0.785537 0.031901
C13   C     C_R   0.945095 0.145450 0.718536 0.020503
C14   C     C_R   0.888107 0.065428 0.642237 -0.095743
C15   C     C_R   0.889174 0.960252 0.631290 -0.078088
C16   C     C_R   0.066270 0.195277 0.861283 -0.091766
C17   C     C_R   0.072752 0.300305 0.871495 -0.109914
C18   C     C_R   0.016814 0.330644 0.807077 0.045255
C19   C     C_R   0.949675 0.254357 0.729634 0.056731
C20   C     C_R   0.030060 0.437443 0.819756 -0.055308
C21   C     C_R   0.977361 0.470646 0.756743 -0.085570
C22   C     C_R   0.893051 0.290763 0.666515 -0.120032
H1    H     H_    0.849140 0.901622 0.571047 0.130839
H2    H     H_    0.841433 0.238279 0.605869 0.076201
H3    H     H_    0.993685 0.553231 0.767639 0.053672
H4    H     H_    0.123970 0.358646 0.930681 0.081882
H5    H     H_    0.876538 0.764977 0.623510 0.124183
H6    H     H_    0.960074 0.706767 0.734654 0.052543
H7    H     H_    0.096020 0.022503 0.899113 0.052867
H8    H     H_    0.845111 0.081039 0.588746 0.112685
H9    H     H_    0.113925 0.179314 0.914227 0.086669
H10   H     H_    0.083993 0.495489 0.878569 0.109791
H11   H     H_    0.826444 0.034416 0.184509 0.104206
C23   C     C_2   0.132797 0.030992 0.192893 -0.192123
C24   C     C_2   0.960926 0.069210 0.221173 -0.044310
C25   C     C_2   0.815711 0.232711 0.309057 0.025491
C26   C     C_2   0.936663 0.152933 0.301784 0.170494
C27   C     C_R   0.406597 0.786944 0.673956 -0.095371
C28   C     C_R   0.541910 0.474958 0.824540 -0.099548
C29   C     C_R   0.515996 0.890671 0.814230 -0.057331
C30   C     C_R   0.459556 0.794702 0.752977 -0.113490
C31   C     C_R   0.414576 0.879298 0.655758 0.070000
C32   C     C_R   0.453808 0.982280 0.721026 0.050065
C33   C     C_R   0.511865 0.983548 0.799763 0.028548
C34   C     C_R   0.442656 0.083664 0.713473 0.035495
C35   C     C_R   0.506559 0.179718 0.781260 0.027706
C36   C     C_R   0.569982 0.172747 0.855727 -0.092604
C37   C     C_R   0.568872 0.077367 0.864867 -0.104092
C38   C     C_R   0.355798 0.094247 0.643157 -0.068586
C39   C     C_R   0.355041 0.189617 0.633792 -0.106369
C40   C     C_R   0.426090 0.281801 0.696965 0.034193
C41   C     C_R   0.498867 0.280135 0.772971 0.060411
C42   C     C_R   0.414600 0.376594 0.685202 -0.051438
C43   C     C_R   0.470800 0.471741 0.748136 -0.081991
C44   C     C_R   0.556220 0.379486 0.837095 -0.118723
H12   H     H_    0.615935 0.076970 0.924205 0.089524
H13   H     H_    0.608440 0.385752 0.897366 0.051481
H14   H     H_    0.454857 0.543588 0.737393 0.048143
H15   H     H_    0.287999 0.192166 0.577564 0.126473
H16   H     H_    0.561992 0.892401 0.874215 0.118219
H17   H     H_    0.462979 0.725046 0.767146 0.059037
H18   H     H_    0.619095 0.240475 0.909095 0.088866
H19   H     H_    0.270822 0.031894 0.596773 0.139787
H20   H     H_    0.357538 0.377280 0.627093 0.124868
H21   H     H_    0.347271 0.680931 0.202632 0.096397
H22   H     H_    0.615098 0.600053 0.316235 0.160371
C45   C     C_2   0.314321 0.602880 0.319347 -0.182265
C46   C     C_2   0.478438 0.614319 0.288444 -0.023307
C47   C     C_2   0.637748 0.646464 0.179063 -0.186096
C48   C     C_2   0.479704 0.648608 0.219165 -0.069602
H23   H     H_    0.176576 0.619916 0.294183 0.086991
O11   O     O_R   0.421600 0.630430 0.917010 -0.562182
O12   O     O_R   0.793840 0.702190 0.087630 -0.570684
O13   O     O_R   0.964010 0.886170 0.088190 -0.547214
C49   C     C_R   0.631656 0.691695 0.115388 0.784951
O14   O     O_R   0.751460 0.619510 0.917500 -0.562986
O15   O     O_R   0.921330 0.802900 0.916840 -0.561001
C50   C     C_R   0.575323 0.579787 0.892149 0.811702
O16   O     O_R   0.464290 0.713700 0.088350 -0.552493
O17   O     O_3   0.609200 0.818520 0.002630 -0.273814
V3    V     V_3+5 0.884140 0.747190 0.002530 1.112396
O18   O     O_R   0.251150 0.814630 0.917340 -0.565840
C51   C     C_R   0.074521 0.825346 0.890434 0.822887
O19   O     O_R   0.293530 0.897310 0.087470 -0.564044
C52   C     C_R   0.131164 0.932873 0.117870 0.779623
V4    V     V_3+5 0.384070 0.769710 0.002370 1.113084
O20   O     O_3   0.109180 0.698190 0.002460 -0.280486
I1    I     I_    0.059539 0.129242 0.407164 -0.457556
I2    I     I_    0.679210 0.253993 0.205044 -0.371533
C53   C     C_2   0.322811 0.080659 0.235600 0.566286
H24   H     H_    0.453971 0.037894 0.220202 -0.005724
O21   O     O_2   0.336323 0.170377 0.286428 -0.521740
I3    I     I_    0.416229 0.846032 0.528188 -0.544950
C54   C     C_2   0.819761 0.596130 0.193348 0.476297
H25   H     H_    0.956354 0.624361 0.183105 0.003295
O22   O     O_2   0.818548 0.518978 0.211148 -0.551604

loop_
_geom_bond_atom_site_label_1
_geom_bond_atom_site_label_2
_geom_bond_distance
_ccdc_geom_bond_type
C13   C19   1.435624 A    
C18   C20   1.401573 A    
C32   C33   1.423832 A    
C40   C42   1.400544 A    
C49   O16   1.297781 A    
C4    C6    1.473321 S    
O2    C1    1.309668 A    
C7    C8    1.389720 A    
C1    O6    1.294302 A    
C47   C48   1.364338 D    
O17   V4    1.704008 S    
C24   C26   1.489914 S    
C38   H19   1.067805 S    
C23   C53   1.486458 S    
C14   C15   1.385483 A    
C39   C40   1.391100 A    
C42   H20   1.082015 S    
C16   C17   1.387050 A    
C28   C50   1.489275 S    
O5    C3    1.288832 A    
C18   C19   1.418637 A    
C8    H6    1.082155 S    
H22   C46   1.083185 S    
C54   H25   1.084792 S    
O18   V4    2.001991 S    
V2    O10   2.152650 S    
C5    C8    1.395517 A    
C23   C24   1.368680 D    
O13   C52   1.292633 A    
O14   V3    1.988883 S    
O8    V2    1.986265 S    
O19   V4    1.986186 S    
C17   H4    1.084229 S    
O1    V2    1.997363 S    
C11   C15   1.391616 A    
O7    V1    2.148035 S    
V3    O20   1.703216 S    
C38   C39   1.386098 A    
C3    C25   1.476781 S    
H11   C24   1.086033 S    
C36   C37   1.384466 A    
O9    C4    1.304280 A    
O15   V3    1.998034 S    
C53   H24   1.085100 S    
O11   C50   1.295972 A    
O12   C49   1.305470 A    
C35   C41   1.446491 A    
C27   C30   1.392152 A    
C41   C44   1.437115 A    
C12   C13   1.437380 A    
C46   C48   1.488405 S    
O4    C2    1.306420 A    
C15   H1    1.083006 S    
C35   C36   1.403709 A    
C21   H3    1.082135 S    
C33   C37   1.396436 A    
C1    C27   1.494738 S    
C44   H13   1.077156 S    
C28   C43   1.395019 A    
O15   C51   1.290228 A    
C7    C11   1.401242 A    
C17   C18   1.393195 A    
C29   H16   1.083324 S    
O13   V3    1.981245 S    
O12   V3    2.003291 S    
O19   C52   1.313186 A    
C20   H10   1.082949 S    
C19   C22   1.426037 A    
C28   C44   1.417858 A    
C53   O21   1.220587 D    
C6    C22   1.405049 A    
C36   H18   1.076493 S    
C47   C49   1.492070 S    
O3    C4    1.291310 A    
C7    H5    1.083190 S    
C9    H7    1.076781 S    
C25   C26   1.356447 D    
C23   C52   1.498017 S    
O14   C50   1.308504 A    
V4    O20   2.152698 S    
O6    V2    1.979738 S    
O9    V2    2.001964 S    
C10   C12   1.436476 A    
C45   C46   1.350335 D    
O2    V1    1.988848 S    
C29   C30   1.384681 A    
C14   H8    1.075752 S    
C2    C45   1.483853 S    
C31   C32   1.458637 A    
C47   C54   1.489498 S    
C31   I3    2.155174 S    
O1    C2    1.293253 A    
C30   H17   1.081671 S    
C5    C51   1.472926 S    
C12   C16   1.410470 A    
O5    V1    1.981240 S    
O8    C3    1.306933 A    
C34   C38   1.403122 A    
C16   H9    1.075901 S    
O11   V4    1.980432 S    
C20   C21   1.390569 A    
C32   C34   1.454497 A    
C13   C14   1.410209 A    
O4    V1    2.003334 S    
C27   C31   1.430933 A    
O3    V1    1.998214 S    
V1    O10   1.703153 S    
C26   I1    2.136554 S    
C45   H23   1.083197 S    
C34   C35   1.447355 A    
C43   H14   1.081351 S    
C54   O22   1.220718 D    
H21   C48   1.086812 S    
C25   I2    2.130747 S    
O17   V3    2.148006 S    
C39   H15   1.082284 S    
C22   H2    1.076637 S    
O16   V4    2.005724 S    
O7    V2    1.706748 S    
O18   C51   1.305150 A    
C6    C21   1.395780 A    
C5    C9    1.406281 A    
C40   C41   1.415811 A    
C37   H12   1.084540 S    
C42   C43   1.389511 A    
C10   C11   1.418299 A    
C9    C10   1.425682 A    
C29   C33   1.398474 A    
