data_mof_unit_22539.cif
_audit_creation_date              2013-03-05T15:59:34-0500
_audit_creation_method            fapswitch 2.2
_symmetry_space_group_name_H-M    P1
_symmetry_Int_Tables_number       1
_space_group_crystal_system       triclinic
_cell_length_a                    12.57756
_cell_length_b                    13.103822
_cell_length_c                    15.731123
_cell_angle_alpha                 90.144587
_cell_angle_beta                  100.978719
_cell_angle_gamma                 83.223479
_cell_volume                      2526.94860686

loop_
_atom_site_label
_atom_site_type_symbol
_atom_site_description
_atom_site_fract_x
_atom_site_fract_y
_atom_site_fract_z
_atom_type_partial_charge
O1    O     O_R   0.366730 0.627160 0.478790 -0.554589
O2    O     O_R   0.544830 0.662520 0.507160 -0.594046
C1    C     C_R   0.440153 0.689708 0.478005 0.902676
O3    O     O_R   0.410960 0.482330 0.609040 -0.617086
O4    O     O_R   0.589060 0.517690 0.637410 -0.546636
C2    C     C_R   0.499112 0.501192 0.661673 0.909870
Zn1   Zn    Zn3+2 0.381080 0.476390 0.481050 0.962789
Zn2   Zn    Zn3+2 0.618920 0.523610 0.518950 0.963092
O5    O     O_R   0.455170 0.337480 0.492840 -0.620825
O6    O     O_R   0.633270 0.372840 0.521210 -0.636002
O7    O     O_R   0.410940 0.482310 0.362590 -0.600506
O8    O     O_R   0.589040 0.517670 0.390960 -0.656647
C3    C     C_R   0.560046 0.308897 0.504961 0.850737
C4    C     C_R   0.500593 0.500325 0.338451 0.862411
C5    C     C_3   0.453310 0.602958 0.023130 0.450070
C6    C     C_3   0.553504 0.592628 0.978526 -0.255781
H1    H     H_    0.595040 0.655914 0.958058 0.158387
H2    H     H_    0.693936 0.492331 0.077019 0.163303
C7    C     C_1   0.496038 0.506628 0.750344 -0.177752
C8    C     C_1   0.502407 0.504533 0.249943 -0.170814
C9    C     C_3   0.397407 0.526212 0.961800 0.333012
C10   C     C_3   0.496686 0.514644 0.916937 0.020213
C11   C     C_3   0.453106 0.436689 0.022356 0.384232
C12   C     C_3   0.507144 0.513402 0.084790 0.004475
C13   C     C_3   0.553042 0.423904 0.978094 -0.301056
C14   C     C_3   0.608036 0.501861 0.041633 -0.241055
C15   C     C_1   0.494553 0.511406 0.825502 0.003336
C16   C     C_1   0.505838 0.509194 0.175376 0.035362
H3    H     H_    0.593639 0.350893 0.957120 0.154610
C17   C     C_R   0.726937 0.054216 0.488817 -0.210432
H4    H     H_    0.767319 0.202642 0.532747 0.168302
H5    H     H_    0.749789 0.859291 0.438847 0.149966
H6    H     H_    0.811507 0.021703 0.498758 0.148067
C18   C     C_R   0.593320 0.200956 0.491077 -0.095017
C19   C     C_R   0.289206 0.829151 0.421433 0.442453
C20   C     C_R   0.256365 0.935317 0.412762 -0.359925
C21   C     C_R   0.332365 0.005590 0.430314 0.484041
C22   C     C_R   0.446289 0.971491 0.436390 -0.050234
C23   C     C_R   0.477991 0.864390 0.434464 -0.048047
C24   C     C_R   0.531547 0.036338 0.449770 0.101183
C25   C     C_R   0.642505 0.993448 0.460504 0.169089
C26   C     C_R   0.667104 0.891346 0.440510 -0.285480
C27   C     C_R   0.585100 0.828437 0.424332 -0.109950
C28   C     C_R   0.511522 0.142240 0.454546 -0.229352
C29   C     C_R   0.702137 0.157141 0.507817 -0.180651
C30   C     C_R   0.402172 0.795537 0.443368 -0.229721
H7    H     H_    0.433578 0.182030 0.427029 0.230511
H8    H     H_    0.171485 0.966619 0.398066 0.183956
H9    H     H_    0.607164 0.750775 0.405069 0.176878
C31   C     C_R   0.090991 0.344889 0.376539 0.488327
H10   H     H_    0.261522 0.330554 0.368757 0.174275
N1    N     N_R   0.222180 0.444680 0.455580 -0.149905
C32   C     C_R   0.804216 0.618510 0.611259 0.505652
C33   C     C_R   0.914761 0.620080 0.649634 0.284399
C34   C     C_R   0.994727 0.561839 0.612129 0.288207
C35   C     C_R   0.964426 0.515246 0.531292 -0.147410
C36   C     C_R   0.853768 0.502805 0.503999 -0.009588
C37   C     C_R   0.041611 0.468580 0.483879 -0.074139
C38   C     C_R   0.011419 0.394366 0.420301 -0.075134
C39   C     C_R   0.902505 0.372666 0.401742 0.430240
C40   C     C_R   0.825374 0.428944 0.442061 -0.252394
C41   C     C_R   0.148020 0.495430 0.496698 -0.006868
C42   C     C_R   0.197566 0.370175 0.397997 -0.124424
N2    N     N_R   0.776980 0.554790 0.543960 -0.179435
H11   H     H_    0.173561 0.556895 0.538623 0.195001
H12   H     H_    0.745041 0.407834 0.428113 0.217430
O9    O     O_3   0.217454 0.754393 0.404551 -0.615189
C43   C     C_3   0.107701 0.786156 0.409862 0.112784
H13   H     H_    0.061690 0.719921 0.389794 0.166191
H14   H     H_    0.069790 0.848402 0.362077 0.127630
C44   C     C_3   0.094253 0.812079 0.502788 -0.369621
H15   H     H_    0.129618 0.745528 0.546908 0.227297
H16   H     H_    0.137267 0.878978 0.526118 0.208556
C45   C     C_3   0.974171 0.837964 0.506480 -1.022402
H17   H     H_    0.935189 0.895681 0.455063 0.268096
H18   H     H_    0.965664 0.871184 0.569969 0.257251
H19   H     H_    0.932278 0.767585 0.497236 0.255404
O10   O     O_3   0.290804 0.106929 0.436521 -0.609079
C46   C     C_3   0.271301 0.122993 0.521200 -0.317042
H20   H     H_    0.347605 0.105498 0.570489 0.157178
H21   H     H_    0.207230 0.077183 0.535014 0.161592
H22   H     H_    0.241164 0.205174 0.526840 0.202970
O11   O     O_3   0.874548 0.287524 0.353989 -0.595236
C47   C     C_3   0.801414 0.318278 0.276147 0.111274
H23   H     H_    0.838551 0.369791 0.236867 0.132494
H24   H     H_    0.723238 0.358488 0.288923 0.118698
C48   C     C_3   0.776370 0.222075 0.224697 -0.293781
H25   H     H_    0.853543 0.179902 0.211864 0.238571
H26   H     H_    0.738688 0.170822 0.263550 0.229364
C49   C     C_3   0.698788 0.248790 0.138748 -0.993430
H27   H     H_    0.621026 0.291092 0.150015 0.295945
H28   H     H_    0.680572 0.177163 0.104010 0.264375
H29   H     H_    0.737021 0.296502 0.097627 0.262122
O12   O     O_3   0.066388 0.268040 0.317871 -0.539029
C50   C     C_3   0.080423 0.298592 0.235098 -0.307684
H30   H     H_    0.040153 0.377909 0.216629 0.131698
H31   H     H_    0.041670 0.245899 0.186654 0.187706
H32   H     H_    0.168278 0.292221 0.231375 0.167330
O13   O     O_3   0.721884 0.665758 0.650030 -0.541554
C51   C     C_3   0.724604 0.773216 0.652666 -0.234775
H33   H     H_    0.766093 0.803974 0.603316 0.118786
H34   H     H_    0.764077 0.794753 0.718372 0.187717
H35   H     H_    0.639442 0.811500 0.640355 0.177578
O14   O     O_3   0.402335 0.693884 0.053431 -0.608431
C52   C     C_3   0.380348 0.770189 0.987432 -0.332457
H36   H     H_    0.335171 0.742567 0.925473 0.174441
H37   H     H_    0.457032 0.798410 0.977357 0.168303
H38   H     H_    0.328263 0.836385 0.007930 0.194647
O15   O     O_3   0.097253 0.534111 0.662094 -0.622435
C53   C     C_3   0.095014 0.441435 0.707592 0.145280
H39   H     H_    0.057061 0.382200 0.664740 0.128585
H40   H     H_    0.045935 0.457182 0.758940 0.126055
C54   C     C_3   0.210946 0.397653 0.750722 -0.310874
H41   H     H_    0.261562 0.461168 0.768316 0.288169
H42   H     H_    0.207342 0.355209 0.810883 0.170600
C55   C     C_3   0.265369 0.323587 0.692491 -0.902739
H43   H     H_    0.221477 0.254593 0.680861 0.230746
H44   H     H_    0.351065 0.298595 0.724489 0.246306
H45   H     H_    0.265326 0.361346 0.629571 0.301982
O16   O     O_3   0.940680 0.656701 0.732815 -0.587404
C56   C     C_3   0.004683 0.738299 0.733560 -0.290785
H46   H     H_    0.953780 0.808428 0.703266 0.135757
H47   H     H_    0.076180 0.719589 0.701874 0.203123
H48   H     H_    0.036797 0.756196 0.801927 0.181276
O17   O     O_3   0.399966 0.358297 0.051426 -0.653454
C57   C     C_3   0.386313 0.282201 0.988075 0.093162
H49   H     H_    0.464854 0.232018 0.991286 0.144816
H50   H     H_    0.359308 0.316380 0.921582 0.150050
C58   C     C_3   0.300026 0.216882 0.006383 -0.315863
H51   H     H_    0.326188 0.181349 0.072295 0.233039
H52   H     H_    0.221602 0.266791 0.004172 0.216923
C59   C     C_3   0.282536 0.132180 0.940178 -1.003999
H53   H     H_    0.254083 0.166074 0.873913 0.265787
H54   H     H_    0.219745 0.085993 0.955445 0.266789
H55   H     H_    0.359655 0.080466 0.942135 0.265014
O18   O     O_3   0.287760 0.536498 0.917864 -0.676597
C60   C     C_3   0.217430 0.556354 0.977823 0.111880
H56   H     H_    0.207441 0.640091 0.990585 0.178402
H57   H     H_    0.248126 0.513683 0.040650 0.174969
C61   C     C_3   0.105763 0.524292 0.939269 -0.351610
H58   H     H_    0.071535 0.569186 0.878483 0.271193
H59   H     H_    0.114895 0.441173 0.924129 0.210590
C62   C     C_3   0.026722 0.543116 0.001775 -0.954291
H60   H     H_    0.058731 0.498132 0.063013 0.255745
H61   H     H_    0.946650 0.518524 0.971778 0.273080
H62   H     H_    0.014401 0.626216 0.016509 0.268794

loop_
_geom_bond_atom_site_label_1
_geom_bond_atom_site_label_2
_geom_bond_distance
_ccdc_geom_bond_type
C37   C41   1.401311 A    
C62   H62   1.111789 S    
C48   H25   1.111667 S    
C57   H49   1.112968 S    
C33   O16   1.385671 S    
C25   C26   1.386352 A    
C17   C29   1.392785 A    
C50   H30   1.114653 S    
H2    C14   1.110045 S    
C61   C62   1.526186 S    
C34   C35   1.414755 A    
C46   H22   1.107798 S    
C50   H32   1.110986 S    
C32   C33   1.408904 A    
C32   O13   1.383838 S    
Zn1   O7    1.973302 S    
C2    C7    1.404171 S    
C60   H57   1.115815 S    
C45   H18   1.107241 S    
C52   H36   1.113414 S    
C49   H29   1.109986 S    
C31   C38   1.415255 A    
C20   C21   1.394208 A    
C12   C14   1.541560 S    
Zn1   N1    2.053686 S    
C54   H41   1.109670 S    
C43   C44   1.535931 S    
C22   C23   1.414872 A    
C39   O11   1.385802 S    
C6    H1    1.109941 S    
C5    C6    1.547520 S    
C35   C36   1.404859 A    
C62   H61   1.111586 S    
O5    C3    1.305597 A    
C53   H39   1.116701 S    
C56   H48   1.109255 S    
C3    C18   1.455006 S    
C43   H13   1.111488 S    
C40   H12   1.061489 S    
C19   C20   1.403026 A    
C55   H44   1.110520 S    
C59   H53   1.111169 S    
C45   H19   1.110898 S    
C6    C10   1.548307 S    
C11   C12   1.529405 S    
C47   C48   1.528046 S    
C17   C25   1.406347 A    
C5    O14   1.411085 S    
C7    C15   1.187392 T    
C9    O18   1.411147 S    
C17   H6    1.080472 S    
C28   H7    1.067328 S    
C11   O17   1.411331 S    
C54   C55   1.525508 S    
C38   C39   1.407771 A    
O6    C3    1.306515 A    
C9    C10   1.539720 S    
C34   O15   1.384750 S    
C13   H3    1.110052 S    
C31   C42   1.397291 A    
O3    Zn1   1.979668 S    
O14   C52   1.408848 S    
C52   H38   1.109276 S    
C6    C14   1.557155 S    
C60   C61   1.526583 S    
O2    Zn2   1.936923 S    
C45   H17   1.109579 S    
O9    C43   1.412073 S    
C55   H45   1.107588 S    
C4    C8    1.398194 S    
C18   C28   1.392871 A    
C47   H23   1.114496 S    
O3    C2    1.299966 A    
O7    C4    1.302999 A    
C44   H16   1.109302 S    
O10   C46   1.410618 S    
C27   H9    1.080892 S    
C23   C27   1.412035 A    
C8    C16   1.183994 T    
C57   C58   1.527394 S    
C13   C14   1.555397 S    
C10   C13   1.545629 S    
C51   H35   1.109575 S    
C39   C40   1.396586 A    
O1    C1    1.306814 A    
C21   C22   1.434891 A    
O4    Zn2   1.973300 S    
C52   H37   1.111218 S    
C49   H28   1.110202 S    
O11   C47   1.412098 S    
C19   O9    1.400243 S    
Zn2   O8    1.979666 S    
C51   H34   1.109349 S    
H10   C42   1.081381 S    
C18   C29   1.396503 A    
C61   H58   1.109985 S    
C53   C54   1.530814 S    
C56   H46   1.108441 S    
Zn2   N2    2.041293 S    
C23   C30   1.413363 A    
C43   H14   1.110187 S    
C5    C12   1.531193 S    
O8    C4    1.296236 A    
C10   C15   1.434124 S    
C48   H26   1.112108 S    
O17   C57   1.409673 S    
C26   C27   1.381207 A    
O16   C56   1.410999 S    
C36   N2    1.365954 A    
C46   H21   1.112870 S    
C58   H51   1.111977 S    
C21   O10   1.378819 S    
Zn1   O5    1.936923 S    
C33   C34   1.408806 A    
C24   C25   1.420440 A    
C57   H50   1.114106 S    
C41   H11   1.079154 S    
O1    Zn1   1.962357 S    
Zn2   O6    1.962357 S    
C31   O12   1.386246 S    
C12   C16   1.429517 S    
C47   H24   1.112340 S    
O18   C60   1.414946 S    
N1    C42   1.352632 A    
C44   C45   1.520512 S    
C50   H31   1.109215 S    
C36   C40   1.399264 A    
C61   H59   1.111678 S    
C60   H56   1.111777 S    
C1    C30   1.482077 S    
O13   C51   1.412874 S    
C58   C59   1.526265 S    
C9    C11   1.527055 S    
O2    C1    1.315597 A    
C37   C38   1.424020 A    
C44   H15   1.110859 S    
N1    C41   1.346070 A    
O15   C53   1.417044 S    
C22   C24   1.429849 A    
C49   H27   1.110344 S    
O4    C2    1.301893 A    
C5    C9    1.529757 S    
C59   H55   1.111137 S    
C51   H33   1.114885 S    
C32   N2    1.363915 A    
C35   C37   1.416357 A    
C55   H43   1.110901 S    
C20   H8    1.079154 S    
C11   C13   1.541394 S    
O12   C50   1.412013 S    
C53   H40   1.111349 S    
C56   H47   1.111458 S    
C46   H20   1.113707 S    
C24   C28   1.385299 A    
C59   H54   1.110623 S    
H4    C29   1.083120 S    
C48   C49   1.523834 S    
H5    C26   1.079763 S    
C58   H52   1.112058 S    
C19   C30   1.413569 A    
C62   H60   1.112073 S    
C54   H42   1.109962 S    
