data_mof_unit_12357.cif
_audit_creation_date              2012-12-11T15:35:31-0500
_audit_creation_method            fapswitch 2.2
_symmetry_space_group_name_H-M    P1
_symmetry_Int_Tables_number       1
_space_group_crystal_system       triclinic
_cell_length_a                    17.309149
_cell_length_b                    24.235282
_cell_length_c                    14.871168
_cell_angle_alpha                 89.999734
_cell_angle_beta                  125.188481
_cell_angle_gamma                 90.000309
_cell_volume                      5098.34859325

loop_
_atom_site_label
_atom_site_type_symbol
_atom_type_description
_atom_site_fract_x
_atom_site_fract_y
_atom_site_fract_z
_atom_type_partial_charge
C1    C     C_R   0.351322 0.152447 0.908240 0.513382
C2    C     C_R   0.600044 0.124107 0.909720 -0.163909
C3    C     C_R   0.253416 0.545907 0.305970 -0.150035
C4    C     C_3   0.367116 0.180148 0.773225 0.139818
C5    C     C_3   0.316159 0.209765 0.662346 -0.260624
C6    C     C_3   0.383779 0.223396 0.630831 -1.044548
C7    C     C_3   0.367075 0.819825 0.773204 0.139753
C8    C     C_3   0.316031 0.790312 0.662214 -0.260596
C9    C     C_3   0.383644 0.776589 0.630733 -1.044563
C10   C     C_3   0.867113 0.680149 0.773223 0.139816
C11   C     C_3   0.816154 0.709764 0.662342 -0.260624
C12   C     C_3   0.883773 0.723397 0.630827 -1.044549
C13   C     C_R   0.100044 0.375893 0.909720 -0.163899
C14   C     C_3   0.867105 0.319846 0.773218 0.139806
C15   C     C_3   0.816126 0.290253 0.662314 -0.260613
C16   C     C_3   0.883744 0.276600 0.630807 -1.044554
C17   C     C_R   0.100043 0.624108 0.909720 -0.163909
C18   C     C_R   0.436174 0.999999 0.632460 0.059482
C19   C     C_R   0.936181 0.500000 0.632463 0.059486
C20   C     C_R   0.799091 0.000000 0.369738 -0.001077
C21   C     C_R   0.299091 0.500000 0.369738 -0.001078
C22   C     C_R   0.689891 0.136108 0.002595 0.058281
C23   C     C_R   0.689891 0.863892 0.002595 0.058282
C24   C     C_R   0.189889 0.636110 0.002594 0.058280
C25   C     C_R   0.351327 0.847552 0.908240 0.513415
C26   C     C_R   0.189890 0.363891 0.002595 0.058281
C27   C     C_3   0.021502 0.948237 0.641603 -0.395651
C28   C     C_3   0.021504 0.051768 0.641596 -0.395651
C29   C     C_3   0.521503 0.448234 0.641600 -0.395651
C30   C     C_3   0.521504 0.551765 0.641600 -0.395663
C31   C     C_3   0.917195 0.948157 0.542314 -0.402350
C32   C     C_3   0.917197 0.051847 0.542307 -0.402352
C33   C     C_3   0.417196 0.448155 0.542310 -0.402350
C34   C     C_3   0.417196 0.551844 0.542311 -0.402349
C35   C     C_3   0.064196 0.999998 0.527787 -0.387185
C36   C     C_R   0.851322 0.652447 0.908240 0.513383
C37   C     C_3   0.564197 0.500000 0.527787 -0.387183
C38   C     C_3   0.072330 0.000001 0.637225 0.388523
C39   C     C_3   0.572331 0.500000 0.637226 0.388526
C40   C     C_3   0.896040 0.000001 0.469957 0.391372
C41   C     C_3   0.396041 0.500000 0.469957 0.391372
C42   C     C_R   0.444081 0.846779 0.090805 -0.244619
C43   C     C_R   0.444074 0.153219 0.090806 -0.244640
C44   C     C_R   0.944076 0.346780 0.090806 -0.244636
C45   C     C_R   0.944074 0.653219 0.090806 -0.244642
C46   C     C_3   0.961102 0.999998 0.430038 -0.392876
C47   C     C_R   0.851323 0.347553 0.908241 0.513390
C48   C     C_3   0.461103 0.500000 0.430039 -0.392878
C49   C     C_R   0.298560 0.726401 0.905029 -0.162178
C50   C     C_R   0.298549 0.273595 0.905031 -0.162169
C51   C     C_R   0.798555 0.226403 0.905032 -0.162169
C52   C     C_R   0.798550 0.773595 0.905031 -0.162167
C53   C     C_R   0.751268 0.180799 0.906513 -0.200128
C54   C     C_R   0.751266 0.819200 0.906513 -0.200119
C55   C     C_R   0.251268 0.680799 0.906510 -0.200098
C56   C     C_R   0.251265 0.319200 0.906512 -0.200133
C57   C     C_R   0.765071 0.165013 0.005165 0.152648
C58   C     C_R   0.690060 0.123220 0.093377 -0.122940
C59   C     C_R   0.765070 0.834986 0.005166 0.152647
C60   C     C_R   0.265069 0.665015 0.005163 0.152639
C61   C     C_R   0.265070 0.334986 0.005165 0.152651
C62   C     C_R   0.841647 0.186778 0.104655 -0.181194
C63   C     C_R   0.841646 0.813221 0.104655 -0.181195
C64   C     C_R   0.341646 0.686779 0.104652 -0.181198
C65   C     C_R   0.341646 0.313221 0.104655 -0.181193
C66   C     C_R   0.388559 0.732571 0.103205 -0.164878
C67   C     C_R   0.388554 0.267427 0.103207 -0.164902
C68   C     C_R   0.888556 0.232572 0.103208 -0.164897
C69   C     C_R   0.690060 0.876780 0.093378 -0.122949
C70   C     C_R   0.888553 0.767427 0.103208 -0.164903
C71   C     C_R   0.359973 0.756288 0.002334 0.165432
C72   C     C_R   0.359964 0.243709 0.002336 0.165465
C73   C     C_R   0.859968 0.256290 0.002336 0.165457
C74   C     C_R   0.859964 0.743709 0.002336 0.165463
C75   C     C_R   0.391550 0.950021 0.463462 -0.174255
C76   C     C_R   0.391543 0.049974 0.463456 -0.174225
C77   C     C_R   0.891551 0.450023 0.463461 -0.174234
C78   C     C_R   0.891550 0.549976 0.463460 -0.174228
C79   C     C_R   0.391222 0.950057 0.370218 -0.168796
C80   C     C_R   0.190059 0.623221 0.093377 -0.122940
C81   C     C_R   0.391215 0.049938 0.370212 -0.168798
C82   C     C_R   0.891219 0.450059 0.370215 -0.168797
C83   C     C_R   0.891218 0.549940 0.370213 -0.168797
C84   C     C_R   0.402431 0.999998 0.331454 0.143946
C85   C     C_R   0.902430 0.499999 0.331452 0.143943
C86   C     C_R   0.478570 0.045952 0.247200 -0.120063
C87   C     C_R   0.478570 0.954047 0.247199 -0.120066
C88   C     C_R   0.978570 0.545953 0.247199 -0.120062
C89   C     C_R   0.978569 0.454047 0.247199 -0.120064
C90   C     C_R   0.401736 0.999998 0.516812 0.138204
C91   C     C_R   0.190059 0.376779 0.093378 -0.122943
C92   C     C_R   0.901743 0.499999 0.516815 0.138203
C93   C     C_R   0.230798 0.953768 0.751675 -0.144082
C94   C     C_R   0.230799 0.046233 0.751676 -0.144110
C95   C     C_R   0.730799 0.453767 0.751676 -0.144105
C96   C     C_R   0.730799 0.546233 0.751676 -0.144108
C97   C     C_R   0.382618 0.185513 0.999566 -0.084579
C98   C     C_R   0.382628 0.814484 0.999564 -0.084625
C99   C     C_R   0.882618 0.685513 0.999566 -0.084580
C100  C     C_R   0.882621 0.314486 0.999566 -0.084588
C101  C     C_R   0.446483 0.999999 0.272220 0.029704
C102  C     C_R   0.600044 0.875894 0.909721 -0.163863
C103  C     C_R   0.946482 0.500000 0.272218 0.029704
C104  C     C_R   0.174253 0.000001 0.725372 -0.031488
C105  C     C_R   0.674254 0.500000 0.725373 -0.031472
C106  C     C_R   0.451858 0.045525 0.696446 -0.147922
C107  C     C_R   0.451852 0.954473 0.696445 -0.147932
C108  C     C_R   0.951860 0.545525 0.696447 -0.147922
C109  C     C_R   0.951860 0.454474 0.696448 -0.147926
C110  C     C_R   0.753416 0.954093 0.305970 -0.150035
C111  C     C_R   0.753415 0.045907 0.305970 -0.150036
C112  C     C_R   0.253416 0.454093 0.305970 -0.150035
H1    H     H_    0.026368 0.947937 0.719544 0.160227
H2    H     H_    0.904120 0.090343 0.494944 0.149273
H3    H     H_    0.934667 0.412283 0.669122 0.080294
H4    H     H_    0.573767 0.870509 0.824570 0.103887
H5    H     H_    0.573766 0.129493 0.824569 0.103941
H6    H     H_    0.073765 0.370507 0.824570 0.103929
H7    H     H_    0.073764 0.629494 0.824569 0.103940
H8    H     H_    0.404118 0.409657 0.494949 0.149272
H9    H     H_    0.404118 0.590342 0.494950 0.149277
H10   H     H_    0.099768 0.962981 0.522869 0.159246
H11   H     H_    0.099769 0.037014 0.522865 0.159257
H12   H     H_    0.599769 0.462984 0.522868 0.159253
H13   H     H_    0.599769 0.537016 0.522868 0.159256
H14   H     H_    0.947131 0.962961 0.378298 0.157561
H15   H     H_    0.947132 0.037032 0.378292 0.157563
H16   H     H_    0.447132 0.462965 0.378295 0.157562
H17   H     H_    0.026370 0.052071 0.719538 0.160224
H18   H     H_    0.447133 0.537036 0.378295 0.157563
H19   H     H_    0.697492 0.161886 0.828941 0.115894
H20   H     H_    0.697491 0.838114 0.828941 0.115883
H21   H     H_    0.197492 0.661886 0.828938 0.115891
H22   H     H_    0.197489 0.338113 0.828941 0.115892
H23   H     H_    0.859041 0.173017 0.183400 0.105643
H24   H     H_    0.859040 0.826982 0.183400 0.105643
H25   H     H_    0.359039 0.673020 0.183397 0.105643
H26   H     H_    0.359040 0.326982 0.183400 0.105643
H27   H     H_    0.439854 0.751971 0.181091 0.109215
H28   H     H_    0.526369 0.447933 0.719541 0.160225
H29   H     H_    0.439849 0.248027 0.181094 0.109218
H30   H     H_    0.939851 0.251972 0.181094 0.109217
H31   H     H_    0.939849 0.748027 0.181094 0.109217
H32   H     H_    0.393070 0.910615 0.498420 0.110660
H33   H     H_    0.393055 0.089380 0.498408 0.110622
H34   H     H_    0.893068 0.410617 0.498418 0.110629
H35   H     H_    0.893067 0.589382 0.498415 0.110622
H36   H     H_    0.491936 0.832839 0.174699 0.122889
H37   H     H_    0.491928 0.167159 0.174700 0.122891
H38   H     H_    0.991931 0.332840 0.174701 0.122891
H39   H     H_    0.526369 0.552067 0.719541 0.160222
H40   H     H_    0.991929 0.667159 0.174700 0.122892
H41   H     H_    0.468324 0.088848 0.256933 0.096950
H42   H     H_    0.468323 0.911150 0.256930 0.096950
H43   H     H_    0.968323 0.588848 0.256931 0.096951
H44   H     H_    0.968322 0.411151 0.256931 0.096951
H45   H     H_    0.208672 0.911413 0.735047 0.156255
H46   H     H_    0.208677 0.088589 0.735052 0.156229
H47   H     H_    0.708675 0.411411 0.735051 0.156234
H48   H     H_    0.708676 0.588589 0.735052 0.156228
H49   H     H_    0.765508 0.911539 0.332232 0.086775
H50   H     H_    0.870438 0.947508 0.571115 0.158344
H51   H     H_    0.765506 0.088461 0.332232 0.086777
H52   H     H_    0.265507 0.411539 0.332232 0.086775
H53   H     H_    0.265508 0.588461 0.332232 0.086780
H54   H     H_    0.747317 0.127685 0.178916 0.088445
H55   H     H_    0.747317 0.872315 0.178917 0.088446
H56   H     H_    0.247316 0.627686 0.178916 0.088445
H57   H     H_    0.247317 0.372314 0.178917 0.088445
H58   H     H_    0.054257 0.909531 0.638678 0.154774
H59   H     H_    0.054261 0.090472 0.638667 0.154773
H60   H     H_    0.554259 0.409529 0.638673 0.154773
H61   H     H_    0.870441 0.052501 0.571107 0.158344
H62   H     H_    0.554260 0.590470 0.638673 0.154772
H63   H     H_    0.393649 0.140326 0.764977 0.119771
H64   H     H_    0.427541 0.206315 0.836443 0.109000
H65   H     H_    0.258272 0.183080 0.597709 0.198372
H66   H     H_    0.284510 0.248737 0.666449 0.194886
H67   H     H_    0.441395 0.250820 0.693554 0.273874
H68   H     H_    0.344628 0.244946 0.550216 0.270006
H69   H     H_    0.415081 0.185103 0.623751 0.258536
H70   H     H_    0.427402 0.793577 0.836342 0.109033
H71   H     H_    0.393754 0.859628 0.765109 0.119710
H72   H     H_    0.370439 0.447503 0.571110 0.158344
H73   H     H_    0.284168 0.751387 0.666123 0.194952
H74   H     H_    0.258297 0.817101 0.597657 0.198308
H75   H     H_    0.415232 0.814833 0.623955 0.258542
H76   H     H_    0.344409 0.755169 0.549980 0.270004
H77   H     H_    0.441055 0.749020 0.693324 0.273877
H78   H     H_    0.893650 0.640328 0.764980 0.119769
H79   H     H_    0.927536 0.706318 0.836440 0.109000
H80   H     H_    0.758271 0.683076 0.597707 0.198371
H81   H     H_    0.784499 0.748734 0.666441 0.194887
H82   H     H_    0.941385 0.750823 0.693548 0.273874
H83   H     H_    0.370440 0.552496 0.571110 0.158344
H84   H     H_    0.844620 0.744945 0.550211 0.270006
H85   H     H_    0.915080 0.685105 0.623750 0.258536
H86   H     H_    0.927509 0.293662 0.836419 0.109004
H87   H     H_    0.893670 0.359665 0.765005 0.119754
H88   H     H_    0.784425 0.251294 0.666372 0.194903
H89   H     H_    0.758276 0.316963 0.597695 0.198353
H90   H     H_    0.915107 0.314881 0.623787 0.258539
H91   H     H_    0.844574 0.255075 0.550165 0.270006
H92   H     H_    0.941315 0.249145 0.693505 0.273874
H93   H     H_    0.279608 0.739623 0.825927 0.170221
H94   H     H_    0.904114 0.909659 0.494956 0.149272
H95   H     H_    0.279587 0.260370 0.825927 0.170238
H96   H     H_    0.779597 0.239627 0.825929 0.170234
H97   H     H_    0.779588 0.760371 0.825928 0.170236
H98   H     H_    0.392796 0.910723 0.337066 0.109226
H99   H     H_    0.392783 0.089273 0.337056 0.109226
H100  H     H_    0.892790 0.410725 0.337060 0.109226
H101  H     H_    0.892787 0.589274 0.337057 0.109226
H102  H     H_    0.434669 0.087716 0.669120 0.080286
H103  H     H_    0.434651 0.912282 0.669120 0.080320
H104  H     H_    0.934670 0.587717 0.669121 0.080286
N1    N     N_R   0.392140 0.102630 0.941800 -0.093553
N2    N     N_R   0.525160 0.972040 0.206160 -0.035515
N3    N     N_R   0.025160 0.527960 0.206160 -0.035515
N4    N     N_R   0.025160 0.472040 0.206160 -0.035515
N5    N     N_R   0.317870 0.971120 0.792790 -0.037934
N6    N     N_R   0.317870 0.028880 0.792790 -0.037950
N7    N     N_R   0.817870 0.471120 0.792790 -0.037945
N8    N     N_R   0.817870 0.528880 0.792790 -0.037948
N9    N     N_R   0.473480 0.027920 0.793480 -0.038307
N10   N     N_R   0.473480 0.972080 0.793480 -0.038299
N11   N     N_R   0.973480 0.527920 0.793480 -0.038306
N12   N     N_R   0.392140 0.897370 0.941800 -0.093540
N13   N     N_R   0.973480 0.472080 0.793480 -0.038304
N14   N     N_R   0.681610 0.971120 0.207570 -0.030941
N15   N     N_R   0.681610 0.028880 0.207570 -0.030941
N16   N     N_R   0.181610 0.471120 0.207570 -0.030941
N17   N     N_R   0.181610 0.528880 0.207570 -0.030941
N18   N     N_R   0.605410 0.102620 0.056870 -0.038953
N19   N     N_R   0.605410 0.897380 0.056870 -0.038954
N20   N     N_R   0.105410 0.602620 0.056870 -0.038953
N21   N     N_R   0.105410 0.397380 0.056870 -0.038953
N22   N     N_R   0.549680 0.896430 0.944180 -0.058417
N23   N     N_R   0.892140 0.602630 0.941800 -0.093553
N24   N     N_R   0.549680 0.103570 0.944180 -0.058417
N25   N     N_R   0.049680 0.396430 0.944180 -0.058416
N26   N     N_R   0.049680 0.603570 0.944180 -0.058415
N27   N     N_R   0.892140 0.397370 0.941800 -0.093550
N28   N     N_R   0.450890 0.896450 0.057150 -0.058800
N29   N     N_R   0.450890 0.103550 0.057150 -0.058797
N30   N     N_R   0.950890 0.396450 0.057150 -0.058798
N31   N     N_R   0.950890 0.603550 0.057150 -0.058797
N32   N     N_R   0.525160 0.027960 0.206160 -0.035515
Ni1   Ni    Ni4+2 0.433410 0.064680 0.868830 0.211342
Ni2   Ni    Ni4+2 0.433410 0.935320 0.868830 0.211354
Ni3   Ni    Ni4+2 0.933410 0.564680 0.868830 0.211342
Ni4   Ni    Ni4+2 0.933410 0.435320 0.868830 0.211345
Ni5   Ni    Ni4+2 0.565650 0.934380 0.131170 0.204235
Ni6   Ni    Ni4+2 0.565650 0.065620 0.131170 0.204236
Ni7   Ni    Ni4+2 0.065650 0.434380 0.131170 0.204236
Ni8   Ni    Ni4+2 0.065650 0.565620 0.131170 0.204238
O1    O     O_3   0.302721 0.170502 0.800650 -0.709498
O2    O     O_3   0.302698 0.829507 0.800641 -0.709485
O3    O     O_3   0.802720 0.670502 0.800650 -0.709496
O4    O     O_3   0.802715 0.329500 0.800648 -0.709495

loop_
_geom_bond_atom_site_label_1
_geom_bond_atom_site_label_2
_ccdc_geom_bond_type
C34   H83   S    
N7    Ni4   S    
C79   H98   S    
C96   C105  A    
C107  N10   A    
C77   C92   A    
C70   C74   A    
C4    O1    S    
C6    H67   S    
C73   C100  S    
C111  N15   A    
C80   N20   A    
N7    N8    A    
N14   Ni5   S    
C42   H36   S    
C88   C103  A    
C22   C57   S    
C18   C106  A    
C13   H6    S    
C57   C62   A    
C23   C59   S    
C14   H86   S    
C10   C11   S    
C70   H31   S    
C10   H78   S    
C95   H47   S    
N26   Ni3   S    
C86   H41   S    
N1    N29   A    
C11   H80   S    
C109  H3    S    
C52   C74   A    
C42   C98   A    
C79   C84   A    
C20   C40   S    
N32   Ni6   S    
C87   N2    A    
C23   C102  A    
N30   Ni7   S    
C27   C38   S    
C15   C16   S    
C37   H12   S    
N4    Ni7   S    
C29   C33   S    
C31   C40   S    
N2    Ni5   S    
N23   N31   A    
C28   H17   S    
C36   O3    S    
N20   N26   A    
N15   Ni6   S    
C50   C72   A    
C18   C107  A    
C38   C104  S    
C19   C92   S    
C110  N14   A    
C75   C90   A    
C83   H101  S    
C87   C101  A    
C109  N13   A    
C78   C83   A    
C110  H49   S    
N22   Ni2   S    
C13   N25   A    
C66   H27   S    
C1    N1    A    
C8    C9    S    
C96   N8    A    
C4    H63   S    
C2    C22   A    
N9    Ni1   S    
C12   H85   S    
C68   H30   S    
C53   H19   S    
C67   C72   A    
C16   H91   S    
C95   C105  A    
N18   Ni6   S    
C1    O1    S    
N17   Ni8   S    
C44   N30   A    
C54   C59   A    
C50   H95   S    
C9    H76   S    
C36   N23   A    
C78   C92   A    
C31   H50   S    
C94   C104  A    
N24   Ni1   S    
C94   H46   S    
C55   C60   A    
C89   C103  A    
C10   H79   S    
C84   C101  S    
C12   H84   S    
N5    Ni2   S    
C48   H18   S    
N14   N15   A    
N25   Ni4   S    
N1    Ni1   S    
C9    H77   S    
C93   C104  A    
C32   H2    S    
C15   H89   S    
C2    H5    S    
C52   C54   A    
C37   H13   S    
C64   H25   S    
C19   C109  A    
N12   Ni2   S    
C112  H52   S    
C71   C98   S    
C80   H56   S    
C102  N22   A    
C17   C24   A    
N3    Ni8   S    
C30   C34   S    
C6    H69   S    
C27   C31   S    
C18   C90   S    
C88   H43   S    
C11   H81   S    
C46   H15   S    
C28   C32   S    
C35   C38   S    
C111  H51   S    
N19   Ni5   S    
C31   H94   S    
C45   C99   A    
C1    C97   A    
N3    N4    A    
C91   H57   S    
C51   H96   S    
C44   C100  A    
C89   H44   S    
C65   C67   A    
C26   C91   A    
C55   H21   S    
N23   Ni3   S    
C23   C69   A    
C81   H99   S    
C82   H100  S    
C44   H38   S    
C47   C100  A    
C46   H14   S    
C16   H90   S    
C64   C66   A    
C62   H23   S    
C40   C46   S    
C69   H55   S    
C34   C41   S    
N5    N6    A    
C30   H62   S    
C48   H16   S    
C20   C111  A    
C28   H59   S    
C66   C71   A    
N12   N28   A    
C63   C70   A    
C28   C38   S    
C47   O4    S    
C24   C60   S    
N27   N30   A    
C49   C55   A    
C29   C39   S    
C33   H72   S    
N9    N10   A    
C87   H42   S    
C56   C61   A    
N18   N24   A    
N20   Ni8   S    
C37   C48   S    
C93   H45   S    
N16   Ni7   S    
C5    H65   S    
C22   C58   A    
C108  H104  S    
C78   H35   S    
C20   C110  A    
C25   O2    S    
C27   H1    S    
C96   H48   S    
C49   H93   S    
C17   N26   A    
C34   H9    S    
N28   Ni5   S    
C4    H64   S    
C52   H97   S    
N19   N22   A    
C21   C41   S    
C13   C26   A    
C3    C21   A    
C65   H26   S    
C67   H29   S    
C58   N18   A    
C21   C112  A    
C106  N9    A    
C3    H53   S    
N11   Ni3   S    
N29   Ni6   S    
C59   C63   A    
N10   Ni2   S    
C29   H28   S    
C86   N32   A    
N27   Ni4   S    
C7    H70   S    
C6    H68   S    
C43   H37   S    
C10   O3    S    
C12   H82   S    
C91   N21   A    
C26   C61   S    
C35   H10   S    
C51   C73   A    
C102  H4    S    
C4    C5    S    
C9    H75   S    
C85   C103  S    
C76   C81   A    
C76   H33   S    
C39   C105  S    
C56   H22   S    
C11   C12   S    
C81   C84   A    
C74   C99   S    
C108  N11   A    
N21   N25   A    
C8    H73   S    
C82   C85   A    
C54   H20   S    
C14   H87   S    
C35   C46   S    
C25   N12   A    
C27   H58   S    
C72   C97   S    
C112  N16   A    
C88   N3    A    
C62   C68   A    
C60   C64   A    
C45   H40   S    
C8    H74   S    
C63   H24   S    
C35   H11   S    
C68   C73   A    
N31   Ni8   S    
C33   C41   S    
C37   C39   S    
N11   N13   A    
N21   Ni7   S    
C50   C56   A    
C19   C108  A    
C106  H102  S    
C47   N27   A    
C15   H88   S    
N8    Ni3   S    
C2    N24   A    
C30   H39   S    
C5    C6    S    
C32   H61   S    
C77   C82   A    
C43   N29   A    
C42   N28   A    
N16   N17   A    
C41   C48   S    
C53   C57   A    
C30   C39   S    
C36   C99   A    
C7    H71   S    
C32   C40   S    
C29   H60   S    
C69   N19   A    
C83   C85   A    
C58   H54   S    
C95   N7    A    
C5    H66   S    
N13   Ni4   S    
C7    C8    S    
C75   H32   S    
C17   H7    S    
N6    Ni1   S    
C61   C65   A    
C25   C98   A    
C107  H103  S    
C45   N31   A    
C33   H8    S    
C43   C97   A    
C49   C71   A    
C76   C90   A    
C94   N6    A    
C24   C80   A    
C14   C15   S    
C7    O2    S    
C93   N5    A    
C51   C53   A    
C16   H92   S    
C86   C101  A    
C75   C79   A    
C77   H34   S    
C14   O4    S    
C3    N17   A    
N2    N32   A    
C89   N4    A    
