data_mof_unit_6071.cif
_audit_creation_date              2012-12-11T15:11:02-0500
_audit_creation_method            fapswitch 2.2
_symmetry_space_group_name_H-M    P1
_symmetry_Int_Tables_number       1
_space_group_crystal_system       triclinic
_cell_length_a                    13.954381
_cell_length_b                    13.954411
_cell_length_c                    28.069658
_cell_angle_alpha                 90.105477
_cell_angle_beta                  89.894745
_cell_angle_gamma                 121.409886
_cell_volume                      4664.89492086

loop_
_atom_site_label
_atom_site_type_symbol
_atom_type_description
_atom_site_fract_x
_atom_site_fract_y
_atom_site_fract_z
_atom_type_partial_charge
C1    C     C_R   0.568037 0.400991 0.178486 0.508096
C2    C     C_3   0.899693 0.497499 0.532922 -0.209527
C3    C     C_3   0.608597 0.103863 0.533100 -0.209669
C4    C     C_3   0.495338 0.396103 0.533131 -0.209577
C5    C     C_1   0.477847 0.943175 0.639111 0.010701
C6    C     C_1   0.059391 0.532397 0.638468 0.010319
C7    C     C_1   0.466735 0.524930 0.638820 0.010678
C8    C     C_1   0.943176 0.477848 0.360889 0.010703
C9    C     C_1   0.532398 0.059392 0.361532 0.010324
C10   C     C_1   0.524931 0.466736 0.361180 0.010683
C11   C     C_3   0.511101 0.014042 0.453946 0.038825
C12   C     C_R   0.600066 0.168403 0.179461 0.509907
C13   C     C_3   0.991168 0.501628 0.453041 0.039027
C14   C     C_3   0.500209 0.488479 0.453485 0.038078
C15   C     C_3   0.014042 0.511100 0.546054 0.038826
C16   C     C_3   0.501628 0.991167 0.546959 0.039027
C17   C     C_3   0.488478 0.500209 0.546515 0.038078
C18   C     C_3   0.398742 0.993847 0.528431 -0.232176
C19   C     C_3   0.015447 0.408676 0.525834 -0.231470
C20   C     C_3   0.595136 0.605479 0.527152 -0.232248
C21   C     C_3   0.993847 0.398742 0.471569 -0.232175
C22   C     C_3   0.408676 0.015448 0.474166 -0.231471
C23   C     C_R   0.841029 0.434634 0.178387 0.500554
C24   C     C_3   0.605478 0.595138 0.472849 -0.232248
C25   C     C_1   0.491603 0.973247 0.598460 -0.054075
C26   C     C_1   0.031096 0.516869 0.597579 -0.054439
C27   C     C_1   0.481999 0.511369 0.598033 -0.053936
C28   C     C_1   0.973248 0.491604 0.401540 -0.054073
C29   C     C_1   0.516870 0.031098 0.402421 -0.054437
C30   C     C_1   0.511369 0.482000 0.401967 -0.053934
C31   C     C_R   0.544141 0.434016 0.316007 0.566003
C32   C     C_R   0.566037 0.111159 0.316170 0.560813
C33   C     C_R   0.889284 0.456545 0.315978 0.560826
C34   C     C_R   0.400992 0.568036 0.821514 0.508090
C35   C     C_R   0.434016 0.544141 0.683993 0.566010
C36   C     C_R   0.111159 0.566037 0.683830 0.560831
C37   C     C_R   0.456545 0.889284 0.684022 0.560823
C38   C     C_3   0.601955 0.156780 0.001460 -0.223512
C39   C     C_3   0.929987 0.400600 0.014412 -0.212234
C40   C     C_3   0.586482 0.464002 0.999950 -0.216138
C41   C     C_3   0.156787 0.601940 0.998543 -0.223531
C42   C     C_3   0.400599 0.929993 0.985584 -0.212163
C43   C     C_3   0.464010 0.586479 0.000049 -0.216140
C44   C     C_3   0.427409 0.982606 0.036066 0.107682
C45   C     C_R   0.168406 0.600069 0.820538 0.509895
C46   C     C_3   0.102518 0.569568 0.048796 0.104404
C47   C     C_3   0.502385 0.554915 0.046759 0.118593
C48   C     C_3   0.982611 0.427410 0.963932 0.107856
C49   C     C_3   0.569581 0.102518 0.951206 0.104482
C50   C     C_3   0.554919 0.502379 0.953240 0.118594
C51   C     C_1   0.453853 0.881307 0.869328 0.076629
C52   C     C_1   0.147125 0.589491 0.870303 0.038658
C53   C     C_1   0.411621 0.554397 0.871664 0.051264
C54   C     C_1   0.881305 0.453852 0.130671 0.076613
C55   C     C_1   0.589485 0.147113 0.129697 0.038879
C56   C     C_R   0.434634 0.841029 0.821613 0.500563
C57   C     C_1   0.554400 0.411617 0.128336 0.051303
C58   C     C_3   0.556505 0.066414 0.041423 -0.029170
C59   C     C_3   0.972793 0.509096 0.044030 -0.042730
C60   C     C_3   0.501677 0.443852 0.040392 -0.082443
C61   C     C_3   0.066427 0.556505 0.958579 -0.029173
C62   C     C_3   0.509097 0.972792 0.955970 -0.042746
C63   C     C_3   0.443857 0.501673 0.959607 -0.082427
C64   C     C_3   0.588002 0.942645 0.983901 0.057304
C65   C     C_3   0.999111 0.615751 0.965097 0.055188
C66   C     C_3   0.346248 0.383747 0.977292 0.042487
C67   C     C_3   0.497499 0.899694 0.467077 -0.209527
C68   C     C_3   0.942662 0.588013 0.016100 0.057331
C69   C     C_3   0.615742 0.999089 0.034905 0.055227
C70   C     C_3   0.383751 0.346245 0.022707 0.042449
C71   C     C_1   0.477591 0.919145 0.908916 0.039183
C72   C     C_1   0.119036 0.580821 0.911224 0.039918
C73   C     C_1   0.418679 0.532963 0.912788 0.056746
C74   C     C_1   0.919143 0.477590 0.091083 0.039185
C75   C     C_1   0.580819 0.119021 0.088777 0.039913
C76   C     C_1   0.532967 0.418675 0.087211 0.056749
C77   C     C_3   0.620016 0.112057 0.477825 -0.089187
C78   C     C_3   0.103864 0.608597 0.466901 -0.209670
C79   C     C_3   0.891276 0.503460 0.477846 -0.088748
C80   C     C_3   0.491949 0.383370 0.477932 -0.089541
C81   C     C_3   0.112057 0.620015 0.522175 -0.089187
C82   C     C_3   0.503460 0.891276 0.522154 -0.088748
C83   C     C_3   0.383369 0.491948 0.522068 -0.089541
C84   C     C_1   0.720517 0.110395 0.462362 0.179436
C85   C     C_1   0.889972 0.605065 0.464131 0.179058
C86   C     C_1   0.388905 0.278701 0.463005 0.178443
C87   C     C_1   0.110395 0.720515 0.537640 0.179436
C88   C     C_1   0.605065 0.889972 0.535868 0.179059
C89   C     C_3   0.396102 0.495337 0.466869 -0.209577
C90   C     C_1   0.278700 0.388903 0.536994 0.178443
Cr1   Cr    Cr6+3 0.748260 0.501860 0.250510 1.082977
Cr2   Cr    Cr6+3 0.498140 0.246400 0.250510 1.082607
Cr3   Cr    Cr6+3 0.753600 0.251740 0.250510 1.091703
Cr4   Cr    Cr6+3 0.501860 0.748260 0.749490 1.082983
Cr5   Cr    Cr6+3 0.246400 0.498140 0.749490 1.082443
Cr6   Cr    Cr6+3 0.251740 0.753600 0.749490 1.091711
H1    H     H_    0.429357 0.810177 0.533983 0.083240
H2    H     H_    0.098614 0.419394 0.532818 0.151178
H3    H     H_    0.321535 0.912159 0.536021 0.154824
H4    H     H_    0.589828 0.680467 0.534668 0.157570
H5    H     H_    0.329939 0.950860 0.456278 0.146044
H6    H     H_    0.060189 0.391234 0.452964 0.142801
H7    H     H_    0.617304 0.671520 0.454744 0.145744
H8    H     H_    0.950858 0.329939 0.543721 0.146044
H9    H     H_    0.391233 0.060188 0.547036 0.142800
H10   H     H_    0.671519 0.617305 0.545256 0.145743
H11   H     H_    0.576799 0.219034 0.006880 0.193276
H12   H     H_    0.194147 0.632102 0.533448 0.082701
H13   H     H_    0.942813 0.338814 0.033593 0.239382
H14   H     H_    0.673617 0.523955 0.010498 0.228268
H15   H     H_    0.219031 0.576771 0.993123 0.193288
H16   H     H_    0.338821 0.942832 0.966404 0.239391
H17   H     H_    0.523966 0.673613 0.989502 0.228277
H18   H     H_    0.400439 0.912755 0.061611 0.133255
H19   H     H_    0.133312 0.646170 0.070304 0.140669
H20   H     H_    0.440198 0.541786 0.074254 0.232446
H21   H     H_    0.912771 0.400447 0.938381 0.133601
H22   H     H_    0.646180 0.133310 0.929697 0.140751
H23   H     H_    0.376402 0.564694 0.533285 0.084588
H24   H     H_    0.541790 0.440194 0.925745 0.232448
H25   H     H_    0.362218 0.838590 0.989328 0.039124
H26   H     H_    0.204512 0.694082 0.996393 0.090744
H27   H     H_    0.384752 0.584511 0.007077 0.128698
H28   H     H_    0.838585 0.362231 0.010665 0.039107
H29   H     H_    0.694098 0.204493 0.003611 0.090763
H30   H     H_    0.584510 0.384743 0.992922 0.128747
H31   H     H_    0.707671 0.060427 0.037465 0.198797
H32   H     H_    0.850209 0.542250 0.013067 0.148256
H33   H     H_    0.394514 0.277826 0.010300 0.236668
H34   H     H_    0.810177 0.429357 0.466016 0.083240
H35   H     H_    0.060456 0.707678 0.962539 0.198802
H36   H     H_    0.542231 0.850191 0.986932 0.148234
H37   H     H_    0.277829 0.394513 0.989698 0.236681
H38   H     H_    0.684256 0.111857 0.550358 0.145404
H39   H     H_    0.889064 0.562115 0.551382 0.144909
H40   H     H_    0.426587 0.319360 0.550736 0.146021
H41   H     H_    0.111858 0.684256 0.449643 0.145405
H42   H     H_    0.562115 0.889064 0.448618 0.144910
H43   H     H_    0.319359 0.426585 0.449263 0.146022
H44   H     H_    0.414674 0.830138 0.454163 0.097330
H45   H     H_    0.632103 0.194147 0.466553 0.082701
H46   H     H_    0.175054 0.601853 0.453176 0.097143
H47   H     H_    0.407101 0.575307 0.453145 0.098445
H48   H     H_    0.830136 0.414674 0.545836 0.097329
H49   H     H_    0.601853 0.175053 0.546825 0.097142
H50   H     H_    0.575308 0.407104 0.546855 0.098444
H51   H     H_    0.634392 0.281983 0.879196 0.363621
H52   H     H_    0.005337 0.351313 0.871191 0.349106
H53   H     H_    0.730470 0.676566 0.856252 0.389486
H54   H     H_    0.281976 0.634536 0.120740 0.363432
H55   H     H_    0.351217 0.004583 0.128723 0.348662
H56   H     H_    0.564697 0.376405 0.466714 0.084588
H57   H     H_    0.676571 0.730454 0.143752 0.389484
H58   H     H_    0.426838 0.766901 0.055858 0.312622
H59   H     H_    0.140837 0.807828 0.082548 0.388444
H60   H     H_    0.328952 0.386183 0.133629 0.358480
H61   H     H_    0.766924 0.426845 0.944133 0.312699
H62   H     H_    0.807811 0.140813 0.917459 0.388554
H63   H     H_    0.386182 0.328939 0.866371 0.358471
H64   H     H_    0.419395 0.098615 0.467183 0.151179
H65   H     H_    0.912159 0.321536 0.463977 0.154824
H66   H     H_    0.680468 0.589831 0.465332 0.157570
N1    N     N_1   0.798163 0.107377 0.450147 -0.271453
N2    N     N_1   0.891172 0.685632 0.453248 -0.276382
N3    N     N_1   0.307599 0.197577 0.451219 -0.270910
N4    N     N_1   0.107377 0.798162 0.549854 -0.271456
N5    N     N_1   0.685632 0.891172 0.546751 -0.276383
N6    N     N_1   0.197576 0.307596 0.548780 -0.270911
O1    O     O_R   0.863770 0.527700 0.199270 -0.459505
O2    O     O_R   0.490970 0.643280 0.797590 -0.474613
O3    O     O_R   0.152310 0.509030 0.797590 -0.491368
O4    O     O_R   0.356720 0.847690 0.797590 -0.477356
O5    O     O_R   0.862920 0.527590 0.302350 -0.490972
O6    O     O_R   0.472410 0.335330 0.302350 -0.488607
O7    O     O_R   0.664670 0.137080 0.302350 -0.485363
O8    O     O_R   0.527590 0.862920 0.697650 -0.490974
O9    O     O_R   0.335330 0.472410 0.697650 -0.488601
O10   O     O_R   0.137080 0.664670 0.697650 -0.485362
O11   O     O_R   0.642490 0.490870 0.297970 -0.487218
O12   O     O_R   0.472300 0.336070 0.199270 -0.473117
O13   O     O_R   0.509130 0.151620 0.297970 -0.488110
O14   O     O_R   0.848380 0.357510 0.297970 -0.483875
O15   O     O_R   0.490870 0.642490 0.702030 -0.487216
O16   O     O_R   0.151620 0.509130 0.702030 -0.488091
O17   O     O_R   0.357510 0.848380 0.702030 -0.483879
O18   O     O_3   0.666667 0.333333 0.250440 -0.362845
O19   O     O_3   0.333333 0.666667 0.749560 -0.362809
O20   O     O_2   0.438676 0.084563 0.874481 -0.230140
O21   O     O_2   0.405444 0.146676 0.950626 -0.171465
O22   O     O_3   0.583202 0.285719 0.902588 -0.501726
O23   O     O_R   0.663930 0.136230 0.199270 -0.442619
O24   O     O_2   0.166353 0.423651 0.940631 -0.331570
O25   O     O_2   0.019143 0.254635 0.980487 -0.092018
O26   O     O_3   0.991533 0.288229 0.892032 -0.456782
O27   O     O_2   0.630885 0.718599 0.920158 -0.275710
O28   O     O_2   0.766347 0.689686 0.960916 -0.103675
O29   O     O_3   0.701090 0.606851 0.875153 -0.416590
O30   O     O_2   0.084530 0.438634 0.125516 -0.230028
O31   O     O_2   0.146693 0.405448 0.049374 -0.171478
O32   O     O_3   0.285698 0.583190 0.097431 -0.501548
O33   O     O_2   0.423670 0.166359 0.059366 -0.331297
O34   O     O_R   0.527700 0.863770 0.800730 -0.459503
O35   O     O_2   0.254632 0.019136 0.019521 -0.092079
O36   O     O_3   0.288260 0.991569 0.107979 -0.456443
O37   O     O_2   0.718607 0.630880 0.079841 -0.275721
O38   O     O_2   0.689689 0.766346 0.039091 -0.103674
O39   O     O_3   0.606855 0.701074 0.124851 -0.416570
O40   O     O_2   0.695739 0.915562 0.098257 -0.129272
O41   O     O_2   0.533641 0.919487 0.126233 -0.279148
O42   O     O_3   0.496321 0.768997 0.064896 -0.482899
O43   O     O_2   0.931694 0.776623 0.023177 -0.066850
O44   O     O_2   0.937239 0.691538 0.098064 -0.244587
O45   O     O_R   0.336070 0.472300 0.800730 -0.473188
O46   O     O_3   0.120219 0.802564 0.048556 -0.508113
O47   O     O_2   0.161628 0.221759 0.046507 -0.088530
O48   O     O_2   0.286696 0.203648 0.099905 -0.162792
O49   O     O_3   0.281917 0.382444 0.106472 -0.428361
O50   O     O_2   0.915582 0.695763 0.901754 -0.129292
O51   O     O_2   0.919517 0.533679 0.873765 -0.278954
O52   O     O_3   0.769021 0.496333 0.935105 -0.482899
O53   O     O_2   0.776604 0.931658 0.976823 -0.066855
O54   O     O_2   0.691529 0.937221 0.901937 -0.244590
O55   O     O_3   0.802563 0.120191 0.951450 -0.508019
O56   O     O_R   0.136230 0.663930 0.800730 -0.442546
O57   O     O_2   0.221765 0.161623 0.953495 -0.088516
O58   O     O_2   0.203646 0.286682 0.900094 -0.163017
O59   O     O_3   0.382447 0.281910 0.893529 -0.428392
O60   O     O_R   0.643280 0.490970 0.202410 -0.474632
O61   O     O_R   0.509030 0.152310 0.202410 -0.491095
O62   O     O_R   0.847690 0.356720 0.202410 -0.477351
S1    S     S_3+6 0.493657 0.152054 0.918615 0.022358
S2    S     S_3+6 0.900748 0.585691 0.916911 0.051546
S3    S     S_3+6 0.716370 0.980506 0.952253 0.075798
S4    S     S_3+6 0.285133 0.275633 0.930759 0.129014
S5    S     S_3+6 0.042444 0.346035 0.945728 0.078694
S6    S     S_3+6 0.666621 0.635499 0.928560 0.111643
S7    S     S_3+6 0.152040 0.493638 0.081390 0.022417
S8    S     S_3+6 0.346046 0.042450 0.054276 0.078793
S9    S     S_3+6 0.635504 0.666614 0.071442 0.111651
S10   S     S_3+6 0.585669 0.900724 0.083091 0.051511
S11   S     S_3+6 0.980532 0.716380 0.047750 0.075799
S12   S     S_3+6 0.275639 0.285130 0.069241 0.129040

loop_
_geom_bond_atom_site_label_1
_geom_bond_atom_site_label_2
_ccdc_geom_bond_type
Cr3   O62   S    
C35   O9    A    
C13   C79   S    
O54   S3    D    
H62   O55   S    
C40   C60   S    
C5    C37   S    
Cr1   O60   S    
C23   C54   S    
C2    H48   S    
O43   S11   D    
O41   S10   D    
C41   C61   S    
O26   S5    S    
O40   S10   D    
C43   C63   S    
O33   S8    D    
C15   C81   S    
C38   C49   S    
C6    C26   T    
C15   C19   S    
C22   H5    S    
C51   C71   T    
C46   H19   S    
C66   S4    S    
O46   S11   S    
C50   H24   S    
O57   S4    D    
C57   C76   T    
O21   S1    D    
C4    C80   S    
Cr2   O13   S    
C78   H46   S    
Cr5   O3    S    
C48   S5    S    
C46   C59   S    
C1    O12   A    
Cr2   O18   S    
Cr5   O16   S    
C87   N4    T    
C56   O34   A    
H51   O22   S    
C14   C24   S    
O31   S7    D    
C17   C20   S    
C7    C27   T    
Cr1   O5    S    
Cr4   O8    S    
O22   S1    S    
C19   H8    S    
C46   S7    S    
C83   H23   S    
C38   H11   S    
O37   S9    D    
C67   H42   S    
C42   H16   S    
O32   S7    S    
O35   S8    D    
C62   C64   S    
C2    C79   S    
Cr2   O12   S    
C9    C32   S    
C47   C60   S    
C54   C74   T    
C82   C88   S    
C10   C31   S    
Cr5   O9    S    
C37   O17   A    
C20   C24   S    
C44   C58   S    
O53   S3    D    
C89   H43   S    
Cr1   O11   S    
C80   C86   S    
C41   C46   S    
C13   C28   S    
H60   O49   S    
C36   O16   A    
H63   O59   S    
O20   S1    D    
O55   S3    S    
C42   C62   S    
C34   O2    A    
O39   S9    S    
C4    H40   S    
C55   C75   T    
Cr3   O18   S    
C65   C68   S    
C63   C66   S    
C44   H18   S    
H57   O39   S    
C56   O4    A    
C50   C63   S    
Cr6   O19   S    
C86   N3    T    
C42   C44   S    
C14   C30   S    
H55   O36   S    
C45   O3    A    
H54   O32   S    
C65   H35   S    
C19   H2    S    
C11   C67   S    
C58   C75   S    
C20   H10   S    
Cr3   O23   S    
O48   S12   D    
C47   H20   S    
C83   C89   S    
C32   O7    A    
C24   H66   S    
Cr5   O45   S    
C21   H65   S    
C11   C29   S    
O52   S2    S    
Cr5   O19   S    
C23   O62   A    
O51   S2    D    
C64   H36   S    
C32   O13   A    
C12   O61   A    
C36   O10   A    
Cr4   O19   S    
O36   S8    S    
C40   H30   S    
Cr6   O56   S    
Cr1   O1    S    
C15   C26   S    
C40   H14   S    
O28   S6    D    
C45   C52   S    
Cr2   O6    S    
C89   H47   S    
C79   H34   S    
C60   C76   S    
C70   H33   S    
C39   H28   S    
C31   O11   A    
C17   C83   S    
C17   C27   S    
C41   H26   S    
C49   S1    S    
H59   O46   S    
C14   C89   S    
O44   S11   D    
C52   C72   T    
O30   S7    D    
C1    C57   S    
C59   C68   S    
C66   H37   S    
Cr3   O14   S    
C10   C30   T    
C49   H22   S    
C20   H4    S    
C60   C70   S    
C68   S11   S    
C88   N5    T    
C39   C59   S    
C16   C82   S    
C13   C21   S    
O59   S4    S    
C38   C58   S    
C64   C69   S    
C50   S6    S    
C2    C15   S    
C59   C74   S    
O50   S2    D    
C81   C87   S    
C84   N1    T    
C67   C82   S    
C47   S9    S    
C4    C17   S    
C1    O60   A    
H52   O26   S    
Cr1   O18   S    
C3    H49   S    
C14   C80   S    
C41   H15   S    
C8    C28   T    
C82   H1    S    
C5    C25   T    
O27   S6    D    
O29   S6    S    
C18   H3    S    
C21   H6    S    
C3    C77   S    
C78   H41   S    
C43   H27   S    
O58   S4    D    
C79   C85   S    
C38   H29   S    
C33   O5    A    
C61   C72   S    
O24   S5    D    
C16   C25   S    
C80   H56   S    
C83   C90   S    
C68   H32   S    
C13   C78   S    
O47   S12   D    
O25   S5    D    
C49   C62   S    
C65   S2    S    
C90   N6    T    
C18   C22   S    
C45   O56   A    
C7    C35   S    
Cr6   O17   S    
C53   C73   T    
C51   C56   S    
C43   C47   S    
C34   O45   A    
C44   S8    S    
C58   C69   S    
C48   H21   S    
O49   S12   S    
C9    C29   T    
C63   C73   S    
C11   C22   S    
C2    H39   S    
C77   C84   S    
C3    H38   S    
C24   H7    S    
C11   C77   S    
Cr4   O2    S    
C18   H9    S    
C64   S3    S    
H58   O42   S    
C43   H17   S    
C37   O8    A    
C78   C81   S    
C48   C61   S    
C66   C70   S    
C22   H64   S    
Cr2   O61   S    
C40   C50   S    
Cr4   O34   S    
C6    C36   S    
C62   C71   S    
C8    C33   S    
H61   O52   S    
C23   O1    A    
C69   S10   S    
C77   H45   S    
C81   H12   S    
C12   C55   S    
Cr3   O7    S    
C61   C65   S    
C39   H13   S    
O38   S9    D    
C69   H31   S    
C34   C53   S    
C16   C18   S    
Cr6   O4    S    
H53   O29   S    
C33   O14   A    
C67   H44   S    
C85   N2    T    
C4    H50   S    
Cr6   O10   S    
Cr4   O15   S    
C35   O15   A    
C12   O23   A    
C70   S12   S    
C3    C16   S    
C42   H25   S    
O42   S10   S    
C39   C48   S    
C19   C21   S    
C31   O6    A    
