data_mof_unit_60045.cif
_audit_creation_date              2013-03-05T16:13:36-0500
_audit_creation_method            fapswitch 2.2
_symmetry_space_group_name_H-M    P1
_symmetry_Int_Tables_number       1
_space_group_crystal_system       triclinic
_cell_length_a                    19.46955
_cell_length_b                    19.353055
_cell_length_c                    19.457067
_cell_angle_alpha                 85.006504
_cell_angle_beta                  95.166836
_cell_angle_gamma                 90.502741
_cell_volume                      7273.82578328

loop_
_atom_site_label
_atom_site_type_symbol
_atom_site_description
_atom_site_fract_x
_atom_site_fract_y
_atom_site_fract_z
_atom_type_partial_charge
Zn1   Zn    Zn3+2 0.558310 0.558310 0.558290 0.973871
Zn2   Zn    Zn3+2 0.446830 0.436990 0.558720 1.031418
Zn3   Zn    Zn3+2 0.558290 0.446420 0.446420 0.974157
Zn4   Zn    Zn3+2 0.436570 0.558290 0.436570 0.971278
O1    O     O_3   0.500000 0.500000 0.500000 -0.495872
O2    O     O_R   0.340780 0.536140 0.450970 -0.644421
O3    O     O_R   0.655640 0.545460 0.545430 -0.646967
O4    O     O_R   0.467850 0.451260 0.656340 -0.602730
O5    O     O_R   0.535740 0.467130 0.347260 -0.647989
O6    O     O_R   0.467830 0.341070 0.546160 -0.604100
O7    O     O_R   0.450560 0.655630 0.450550 -0.643377
O8    O     O_R   0.545840 0.347670 0.467560 -0.651357
O9    O     O_R   0.535760 0.655640 0.535740 -0.650391
O10   O     O_R   0.545870 0.536170 0.656040 -0.650163
O11   O     O_R   0.450550 0.545430 0.340370 -0.645258
O12   O     O_R   0.347960 0.451240 0.536460 -0.642823
O13   O     O_R   0.655630 0.467150 0.467130 -0.643694
C1    C     C_R   0.311813 0.492073 0.492336 0.791537
C2    C     C_R   0.688147 0.508206 0.507249 0.797538
C3    C     C_R   0.508962 0.491731 0.688814 0.802052
C4    C     C_R   0.491376 0.507457 0.311306 0.784100
C5    C     C_R   0.507777 0.311729 0.508337 0.876108
C6    C     C_R   0.492051 0.688492 0.491732 0.796331
C7    C     C_R   0.491451 0.764442 0.488660 -0.009762
C8    C     C_R   0.530869 0.797865 0.540062 -0.194337
C9    C     C_R   0.532617 0.869658 0.537518 -0.130709
C10   C     C_R   0.494532 0.909234 0.484154 0.225518
C11   C     C_R   0.456207 0.876514 0.431603 -0.076836
C12   C     C_R   0.454102 0.804213 0.434237 -0.198718
C13   C     C_R   0.473085 0.145152 0.428834 -0.192371
C14   C     C_R   0.494554 0.212623 0.437635 -0.233796
C15   C     C_R   0.487067 0.192063 0.562223 0.221172
C16   C     C_R   0.465895 0.123355 0.553287 0.225737
C17   C     C_R   0.457717 0.100845 0.485916 -0.050909
C18   C     C_2   0.498282 0.984761 0.484258 -0.368861
C19   C     C_2   0.443633 0.027694 0.475964 0.340319
C20   C     C_R   0.500286 0.236980 0.503638 -0.148919
H1    H     H_    0.560475 0.768597 0.582487 0.169922
H2    H     H_    0.503724 0.246854 0.392274 0.174027
H3    H     H_    0.428135 0.906812 0.388864 0.148031
H4    H     H_    0.468841 0.127149 0.377421 0.167344
H5    H     H_    0.424177 0.779574 0.393504 0.163795
H6    H     H_    0.549070 0.006307 0.497811 0.153564
H7    H     H_    0.563126 0.894458 0.577830 0.157162
C21   C     C_R   0.762973 0.514781 0.506166 -0.004179
C22   C     C_R   0.797426 0.473776 0.464220 -0.195281
C23   C     C_R   0.867855 0.480979 0.460481 -0.156599
C24   C     C_R   0.905270 0.528790 0.499275 0.199352
C25   C     C_R   0.871008 0.570912 0.540125 -0.167256
C26   C     C_R   0.800116 0.563681 0.543968 -0.191640
C27   C     C_R   0.124904 0.540769 0.457733 -0.149331
C28   C     C_R   0.196241 0.543367 0.457234 -0.196436
C29   C     C_R   0.205044 0.430129 0.521718 -0.176980
C30   C     C_R   0.133718 0.427179 0.521398 -0.164653
C31   C     C_R   0.093493 0.482959 0.490712 0.193626
C32   C     C_2   0.980155 0.534819 0.497553 -0.233385
C33   C     C_2   0.018679 0.478795 0.492579 -0.229966
C34   C     C_R   0.236733 0.488440 0.490027 -0.005801
H8    H     H_    0.769977 0.436359 0.433715 0.170452
H9    H     H_    0.219699 0.588638 0.432139 0.167905
H10   H     H_    0.235339 0.386795 0.546684 0.176126
H11   H     H_    0.995228 0.427570 0.494049 0.157597
H12   H     H_    0.899273 0.608480 0.569804 0.139357
H13   H     H_    0.094449 0.583539 0.431876 0.140409
H14   H     H_    0.774455 0.596469 0.576057 0.166166
H15   H     H_    0.004222 0.584949 0.504246 0.157670
H16   H     H_    0.892838 0.449511 0.426682 0.139521
H17   H     H_    0.109968 0.381920 0.546252 0.144661
C35   C     C_R   0.487142 0.508970 0.236021 0.006565
C36   C     C_R   0.508631 0.450979 0.205460 -0.201230
C37   C     C_R   0.507351 0.452208 0.134024 -0.144154
C38   C     C_R   0.486271 0.512428 0.091947 0.199055
C39   C     C_R   0.462527 0.569615 0.122554 -0.172464
C40   C     C_R   0.462674 0.567863 0.194306 -0.190206
C41   C     C_R   0.526031 0.544015 0.870016 -0.150570
C42   C     C_R   0.521977 0.547286 0.798227 -0.235500
C43   C     C_R   0.514456 0.421109 0.802844 0.078640
C44   C     C_R   0.519696 0.418412 0.875221 -0.194417
C45   C     C_R   0.524036 0.479583 0.908593 0.170476
C46   C     C_2   0.488071 0.517352 0.016224 -0.222529
C47   C     C_2   0.525988 0.474847 0.984050 -0.220176
C48   C     C_R   0.514896 0.486357 0.764294 -0.008482
H18   H     H_    0.526010 0.404348 0.236857 0.157953
H19   H     H_    0.523078 0.597531 0.769038 0.164395
H20   H     H_    0.556705 0.433495 0.012292 0.150549
H21   H     H_    0.445065 0.616110 0.090993 0.135598
H22   H     H_    0.531009 0.591674 0.895396 0.145449
H23   H     H_    0.445458 0.612999 0.217189 0.158563
H24   H     H_    0.457600 0.557895 0.985782 0.155894
H25   H     H_    0.522537 0.405577 0.112696 0.129438
H26   H     H_    0.519144 0.368767 0.905622 0.136591
N1    N     N_R   0.456175 0.075728 0.612554 0.226545
O14   O     O_R   0.400245 0.038657 0.614913 -0.303499
O15   O     O_R   0.503630 0.068802 0.664209 -0.334791
N2    N     N_3   0.510057 0.358207 0.768445 -0.368220
H27   H     H_    0.556261 0.353233 0.745802 0.212866
H28   H     H_    0.506719 0.315071 0.804293 0.214340
N3    N     N_R   0.494462 0.216266 0.630296 0.241630
O16   O     O_R   0.549302 0.250541 0.650590 -0.411204
O17   O     O_R   0.446140 0.204824 0.671947 -0.313312
N4    N     N_R   0.373229 0.004510 0.465514 0.230972
O18   O     O_R   0.353330 0.946848 0.497318 -0.332949
O19   O     O_R   0.326546 0.047378 0.435257 -0.363775

loop_
_geom_bond_atom_site_label_1
_geom_bond_atom_site_label_2
_geom_bond_distance
_ccdc_geom_bond_type
N4    O18   1.301431 A    
C25   H12   1.083396 S    
C3    C48   1.457412 S    
C12   H5    1.082921 S    
C39   C40   1.393289 A    
C18   C19   1.345272 D    
C42   H19   1.083638 S    
C9    H7    1.083989 S    
C33   H11   1.086989 S    
C43   C44   1.399181 A    
O6    C5    1.285491 A    
C9    C10   1.395485 A    
O4    C3    1.279628 A    
Zn1   O1    1.953716 S    
C43   C48   1.411837 A    
C11   C12   1.396093 A    
C13   C14   1.387635 A    
C22   H8    1.083124 S    
C30   H17   1.083664 S    
C11   H3    1.083019 S    
O8    C5    1.289678 A    
C32   C33   1.339070 D    
O9    C6    1.282614 A    
C46   H24   1.087386 S    
C7    C12   1.404190 A    
Zn3   O8    1.937338 S    
C28   H9    1.083187 S    
C22   C23   1.384857 A    
C29   H10   1.083223 S    
C1    C34   1.459674 S    
N2    H27   1.045415 S    
C15   N3    1.437673 S    
C6    C7    1.465978 S    
C13   H4    1.083604 S    
C36   C37   1.386042 A    
Zn2   O12   1.951267 S    
C27   C31   1.403974 A    
N4    O19   1.301076 A    
C23   H16   1.082821 S    
O2    C1    1.283353 A    
C13   C17   1.395670 A    
C27   C28   1.390255 A    
O10   C3    1.280190 A    
C7    C8    1.404739 A    
Zn4   O2    1.949262 S    
C16   N1    1.437496 S    
C42   C48   1.400576 A    
C45   C47   1.460133 S    
C44   C45   1.397275 A    
C46   C47   1.340560 D    
C10   C18   1.463027 S    
C8    C9    1.386218 A    
C21   C22   1.402327 A    
C5    C20   1.462633 S    
C43   N2    1.437680 S    
C2    C21   1.463145 S    
C14   C20   1.400898 A    
C4    C35   1.457471 S    
C19   N4    1.440982 S    
C41   C42   1.387852 A    
Zn3   O5    1.947238 S    
C8    H1    1.083100 S    
C23   C24   1.402575 A    
O11   C4    1.286551 A    
N1    O15   1.301220 A    
C16   C17   1.412106 A    
C35   C40   1.401297 A    
C15   C20   1.413400 A    
Zn4   O7    1.940059 S    
C36   H18   1.083627 S    
C28   C34   1.401649 A    
C41   H22   1.083098 S    
C24   C25   1.399662 A    
N3    O16   1.301206 A    
N3    O17   1.301280 A    
C31   C33   1.461663 S    
Zn2   O1    1.952521 S    
Zn1   O9    1.941463 S    
Zn2   O6    1.945044 S    
C18   H6    1.089099 S    
C24   C32   1.464793 S    
C30   C31   1.397707 A    
Zn1   O3    1.954451 S    
Zn2   O4    1.949562 S    
C27   H13   1.082686 S    
C38   C39   1.402328 A    
Zn3   O1    1.967730 S    
C29   C34   1.403388 A    
N2    H28   1.045696 S    
C29   C30   1.388828 A    
C44   H26   1.084048 S    
O3    C2    1.287697 A    
C15   C16   1.409247 A    
Zn4   O11   1.952842 S    
C37   C38   1.406680 A    
C38   C46   1.471678 S    
O5    C4    1.285489 A    
C37   H25   1.079814 S    
C21   C26   1.404602 A    
C32   H15   1.086622 S    
O7    C6    1.289260 A    
N1    O14   1.300823 A    
O13   C2    1.285149 A    
C14   H2    1.083630 S    
Zn3   O13   1.947365 S    
C17   C19   1.465678 S    
C35   C36   1.399075 A    
C26   H14   1.082955 S    
C39   H21   1.083479 S    
Zn4   O1    1.956635 S    
O12   C1    1.280505 A    
C25   C26   1.394143 A    
C10   C11   1.403645 A    
Zn1   O10   1.949070 S    
C40   H23   1.083214 S    
C41   C45   1.400452 A    
C47   H20   1.082930 S    
