data_mof_unit_31532.cif
_audit_creation_date              2012-12-10T20:40:03-0500
_audit_creation_method            fapswitch 2.2
_symmetry_space_group_name_H-M    P1
_symmetry_Int_Tables_number       1
_space_group_crystal_system       triclinic
_cell_length_a                    23.324639
_cell_length_b                    10.784013
_cell_length_c                    10.006142
_cell_angle_alpha                 88.702819
_cell_angle_beta                  91.500301
_cell_angle_gamma                 93.119735
_cell_volume                      2511.71803071

loop_
_atom_site_label
_atom_site_type_symbol
_atom_type_description
_atom_site_fract_x
_atom_site_fract_y
_atom_site_fract_z
_atom_type_partial_charge
C1    C     C_R   0.503163 0.261006 0.500718 0.890541
C2    C     C_R   0.125090 0.588214 0.612234 0.492311
C3    C     C_R   0.232212 0.569531 0.435853 0.168164
C4    C     C_R   0.389559 0.502977 0.498610 0.858108
C5    C     C_R   0.293067 0.583386 0.426727 -0.072082
C6    C     C_R   0.326785 0.498700 0.499486 -0.214452
C7    C     C_R   0.301389 0.414181 0.590151 -0.238970
C8    C     C_R   0.243628 0.414333 0.617621 0.193182
C9    C     C_R   0.208358 0.489437 0.537569 0.235970
C10   C     C_R   0.767810 0.456901 0.426988 0.174249
C11   C     C_R   0.707069 0.442227 0.415974 -0.060597
C12   C     C_R   0.961234 0.263453 0.566415 -0.089765
C13   C     C_R   0.673729 0.506861 0.504686 -0.167207
C14   C     C_R   0.700689 0.576416 0.606194 -0.189099
C15   C     C_R   0.758677 0.568434 0.636532 0.184481
C16   C     C_R   0.498659 0.739646 0.497880 0.830758
C17   C     C_R   0.793170 0.511223 0.544522 0.259088
C18   C     C_R   0.528544 0.061811 0.608661 -0.012449
C19   C     C_R   0.512046 0.130521 0.496636 -0.103472
C20   C     C_R   0.502544 0.070506 0.374785 -0.149324
C21   C     C_R   0.496042 0.942059 0.370747 -0.018340
C22   C     C_R   0.502166 0.872860 0.492445 -0.174562
C23   C     C_R   0.021439 0.261166 0.551733 -0.072835
C24   C     C_R   0.520785 0.934761 0.608167 -0.040368
C25   C     C_3   0.499038 0.927908 0.749007 0.071537
C26   C     C_3   0.511472 0.069339 0.749961 -0.320650
C27   C     C_R   0.449837 0.493372 0.066875 0.144809
C28   C     C_R   0.610676 0.499777 0.501025 0.871738
C29   C     C_R   0.548319 0.535280 0.075002 0.017838
C30   C     C_R   0.549176 0.526174 0.931856 0.066305
C31   C     C_R   0.449949 0.493197 0.927012 0.121512
C32   C     C_3   0.398368 0.404224 0.919301 -0.242299
C33   C     C_3   0.395837 0.410497 0.074180 0.026552
C34   C     C_R   0.055951 0.373520 0.560472 -0.103304
C35   C     C_R   0.887842 0.610330 0.580097 0.467284
C36   C     C_R   0.875727 0.389548 0.587770 0.487130
C37   C     C_R   0.935689 0.378310 0.585858 -0.096259
C38   C     C_R   0.970954 0.488214 0.600414 -0.000798
C39   C     C_R   0.946230 0.604137 0.614454 -0.111329
C40   C     C_2   0.925560 0.145746 0.559919 0.639127
C41   C     C_2   0.679072 0.350969 0.322324 0.431837
C42   C     C_3   0.781000 0.615842 0.771108 -0.386344
C43   C     C_3   0.795890 0.509141 0.866303 -0.750177
C44   C     C_2   0.477170 0.888404 0.240518 0.427517
C45   C     C_R   0.030891 0.483876 0.596163 -0.003825
C46   C     C_3   0.433498 0.890135 0.753466 -0.351497
C47   C     C_3   0.406139 0.915225 0.887008 -0.639668
C48   C     C_2   0.537348 0.853214 0.840481 0.528293
C49   C     C_2   0.561381 0.117640 0.836813 0.509057
C50   C     C_2   0.594831 0.607791 0.146613 0.456720
C51   C     C_2   0.048868 0.140269 0.541564 0.580313
C52   C     C_2   0.602332 0.561003 0.864421 0.589803
C53   C     C_2   0.413153 0.281113 0.869121 0.421157
C54   C     C_2   0.346106 0.483161 0.117252 0.385996
C55   C     C_3   0.402520 0.288031 0.157014 -0.447893
C56   C     C_R   0.065739 0.591959 0.622375 -0.065259
C57   C     C_3   0.351087 0.194106 0.142822 -0.838764
C58   C     C_2   0.956933 0.824057 0.703444 0.494729
C59   C     C_3   0.192345 0.635402 0.337055 -0.317689
C60   C     C_3   0.200294 0.596260 0.193223 -0.806496
C61   C     C_2   0.322091 0.689189 0.351708 0.420207
C62   C     C_3   0.221663 0.336728 0.736113 -0.398513
C63   C     C_3   0.212502 0.417532 0.856264 -0.819679
C64   C     C_3   0.805175 0.417473 0.313533 -0.342624
C65   C     C_3   0.839899 0.527372 0.251479 -0.841206
C66   C     C_R   0.040871 0.701606 0.656869 -0.112975
C67   C     C_R   0.981232 0.709537 0.653521 0.003499
C68   C     C_R   0.114800 0.382023 0.530077 0.480360
H1    H     H_    0.675579 0.632026 0.667739 0.153664
H2    H     H_    0.834912 0.464819 0.834408 0.245157
H3    H     H_    0.804393 0.545970 0.967784 0.246321
H4    H     H_    0.818547 0.682125 0.761223 0.218752
H5    H     H_    0.747860 0.668537 0.819742 0.225475
H6    H     H_    0.448102 0.806822 0.234956 0.095403
H7    H     H_    0.415988 0.841820 0.962181 0.295402
H8    H     H_    0.421001 0.007191 0.925965 0.265927
H9    H     H_    0.358721 0.913547 0.873015 0.239955
H10   H     H_    0.410217 0.942333 0.673677 0.210099
H11   H     H_    0.425681 0.790025 0.732354 0.231352
H12   H     H_    0.494296 0.123292 0.283751 0.198463
H13   H     H_    0.583592 0.861062 0.829701 -0.009650
H14   H     H_    0.603975 0.084337 0.824407 0.068436
H15   H     H_    0.583720 0.673883 0.220405 0.122351
H16   H     H_    0.086910 0.122432 0.602255 0.078161
H17   H     H_    0.604816 0.645306 0.803888 0.000687
H18   H     H_    0.451880 0.241591 0.907090 0.119094
H19   H     H_    0.317935 0.446666 0.194838 0.089620
H20   H     H_    0.312329 0.230077 0.187095 0.256503
H21   H     H_    0.341100 0.171685 0.037093 0.288847
H22   H     H_    0.361054 0.106669 0.197271 0.270965
H23   H     H_    0.472642 0.121269 0.754623 0.218256
H24   H     H_    0.442275 0.243456 0.130370 0.222827
H25   H     H_    0.406853 0.309368 0.264173 0.258562
H26   H     H_    0.912404 0.824347 0.731515 0.094589
H27   H     H_    0.241029 0.637591 0.153944 0.310886
H28   H     H_    0.199858 0.493443 0.187528 0.254947
H29   H     H_    0.164770 0.629904 0.128367 0.257770
H30   H     H_    0.146497 0.613246 0.357724 0.199213
H31   H     H_    0.198192 0.737631 0.345122 0.271432
H32   H     H_    0.365437 0.683230 0.317867 0.087706
H33   H     H_    0.252438 0.473866 0.881426 0.286076
H34   H     H_    0.361572 0.444697 0.864109 0.195002
H35   H     H_    0.177130 0.480360 0.835512 0.273770
H36   H     H_    0.201008 0.357415 0.944146 0.251083
H37   H     H_    0.181443 0.282275 0.710440 0.223926
H38   H     H_    0.253140 0.267153 0.767393 0.234315
H39   H     H_    0.811170 0.602311 0.220630 0.284601
H40   H     H_    0.873620 0.564700 0.321490 0.282116
H41   H     H_    0.861892 0.496148 0.162123 0.247732
H42   H     H_    0.834386 0.345097 0.348004 0.252702
H43   H     H_    0.779076 0.376149 0.230125 0.245524
H44   H     H_    0.068045 0.782243 0.684238 0.225991
H45   H     H_    0.327921 0.352098 0.646122 0.220778
H46   H     H_    0.908204 0.103666 0.650781 0.081449
H47   H     H_    0.642080 0.373414 0.260933 0.144600
H48   H     H_    0.759583 0.438275 0.871215 0.306968
N1    N     N_R   0.853592 0.503858 0.572510 -0.323998
N2    N     N_R   0.148045 0.485999 0.561717 -0.339564
N3    N     N_R   0.499610 0.499140 0.142800 -0.179347
N4    N     N_R   0.499610 0.499180 0.857150 -0.161425
O1    O     O_R   0.500010 0.316790 0.614690 -0.596345
O2    O     O_R   0.583850 0.500060 0.614640 -0.613047
O3    O     O_R   0.583840 0.500020 0.385300 -0.654937
O4    O     O_2   0.865939 0.720364 0.546477 -0.562321
O5    O     O_2   0.913980 0.097855 0.452487 -0.483541
O6    O     O_2   0.696762 0.246825 0.315549 -0.538141
O7    O     O_2   0.493086 0.938383 0.136282 -0.553663
O8    O     O_2   0.517247 0.783958 0.927157 -0.598402
O9    O     O_2   0.554629 0.195369 0.920827 -0.563124
O10   O     O_2   0.645459 0.595188 0.125488 -0.582718
O11   O     O_2   0.030459 0.061543 0.463398 -0.490238
O12   O     O_2   0.839371 0.288551 0.600347 -0.565364
O13   O     O_2   0.643475 0.496017 0.876784 -0.547304
O14   O     O_2   0.380885 0.222830 0.792741 -0.635845
O15   O     O_2   0.336944 0.583971 0.065093 -0.619934
O16   O     O_2   0.987113 0.919014 0.718834 -0.607862
O17   O     O_2   0.299176 0.787213 0.332053 -0.567824
O18   O     O_2   0.138675 0.289624 0.466091 -0.570545
O19   O     O_2   0.159666 0.687213 0.647539 -0.552045
O20   O     O_R   0.500000 0.316760 0.385350 -0.643926
O21   O     O_R   0.416160 0.499980 0.614700 -0.596842
O22   O     O_R   0.416150 0.499940 0.385360 -0.656064
O23   O     O_R   0.500000 0.683240 0.614650 -0.628350
O24   O     O_R   0.499990 0.683210 0.385310 -0.656515
Zn1   Zn    Zn3+2 0.500000 0.500020 0.653130 0.986205
Zn2   Zn    Zn3+2 0.500000 0.499980 0.346870 0.929819

loop_
_geom_bond_atom_site_label_1
_geom_bond_atom_site_label_2
_ccdc_geom_bond_type
C33   C55   S    
C44   O7    D    
C9    N2    S    
C59   H31   S    
O22   Zn2   S    
C68   O18   S    
C19   C20   A    
C18   C26   S    
C55   H25   S    
C2    N2    A    
C28   O3    A    
C7    C8    A    
C62   H37   S    
C27   C33   S    
N3    Zn2   S    
C29   N3    A    
C12   C23   A    
C29   C30   A    
C57   H21   S    
C18   C24   A    
C2    O19   S    
C36   C37   A    
C16   O24   A    
C37   C38   A    
C47   H8    S    
C36   O12   S    
C4    O22   A    
C54   H19   S    
C28   O2    A    
C54   O15   D    
C10   C17   A    
C48   H13   S    
C15   C17   A    
C18   C19   A    
O2    Zn1   S    
C12   C37   A    
C38   C45   A    
C50   O10   D    
C68   N2    A    
C23   C51   S    
C40   H46   S    
C46   H11   S    
C45   C56   A    
C8    C9    A    
C16   C22   S    
C13   C28   S    
C53   H18   S    
C65   H40   S    
C35   O4    S    
C17   N1    S    
C66   C67   A    
C59   C60   S    
C21   C22   A    
C52   O13   D    
C41   H47   S    
C50   H15   S    
C29   C50   S    
C38   C39   A    
C1    C19   S    
C57   H22   S    
C20   H12   S    
C27   C31   A    
C16   O23   A    
C24   C25   S    
C63   H35   S    
C60   H29   S    
C26   C49   S    
O20   Zn2   S    
C4    O21   A    
C46   H10   S    
C51   O11   D    
C64   H43   S    
C58   O16   D    
C26   H23   S    
C49   O9    D    
C49   H14   S    
C12   C40   S    
C35   C39   A    
C62   C63   S    
C3    C9    A    
C43   H48   S    
C48   O8    D    
C21   C44   S    
C64   H42   S    
C31   C32   S    
O3    Zn2   S    
C23   C34   A    
C42   H4    S    
C5    C61   S    
C34   C45   A    
C44   H6    S    
C36   N1    A    
C25   C48   S    
C65   H41   S    
C1    O20   A    
C60   H28   S    
O24   Zn2   S    
C55   H24   S    
C43   H2    S    
C55   C57   S    
C14   H1    S    
C22   C24   A    
C35   N1    A    
C4    C6    S    
C42   C43   S    
C47   H9    S    
C34   C68   A    
C32   C53   S    
C33   C54   S    
O23   Zn1   S    
C30   C52   S    
C46   C47   S    
C52   H17   S    
C42   H5    S    
C43   H3    S    
C39   C67   A    
C41   O6    D    
C10   C64   S    
C53   O14   D    
C15   C42   S    
C63   H36   S    
C3    C5    A    
C6    C7    A    
C62   H38   S    
C32   H34   S    
C27   N3    A    
C57   H20   S    
C64   C65   S    
C7    H45   S    
C25   C26   S    
C47   H7    S    
C63   H33   S    
C2    C56   A    
C32   C33   S    
C11   C13   A    
C61   O17   D    
C5    C6    A    
C30   N4    A    
C56   C66   A    
C40   O5    D    
C51   H16   S    
O21   Zn1   S    
C11   C41   S    
O1    Zn1   S    
C58   H26   S    
C1    O1    A    
C31   N4    A    
C10   C11   A    
C61   H32   S    
C60   H27   S    
C58   C67   S    
N4    Zn1   S    
C20   C21   A    
C59   H30   S    
C14   C15   A    
C66   H44   S    
C13   C14   A    
C25   C46   S    
C65   H39   S    
C8    C62   S    
C3    C59   S    
