data_mof_unit_10835.cif
_audit_creation_date              2012-12-10T17:13:37-0500
_audit_creation_method            fapswitch 2.2
_symmetry_space_group_name_H-M    P1
_symmetry_Int_Tables_number       1
_space_group_crystal_system       triclinic
_cell_length_a                    10.727123
_cell_length_b                    12.960646
_cell_length_c                    11.758688
_cell_angle_alpha                 98.74625
_cell_angle_beta                  93.294524
_cell_angle_gamma                 92.555208
_cell_volume                      1610.7777627

loop_
_atom_site_label
_atom_site_type_symbol
_atom_type_description
_atom_site_fract_x
_atom_site_fract_y
_atom_site_fract_z
_atom_type_partial_charge
C1    C     C_R   0.496421 0.299494 0.479444 0.800884
C2    C     C_3   0.877542 0.497311 0.498555 0.143051
C3    C     C_3   0.937976 0.604602 0.557802 -0.398885
C4    C     C_3   0.918964 0.475081 0.373447 -0.383436
C5    C     C_R   0.502870 0.813814 0.534025 -0.051668
C6    C     C_R   0.488016 0.186323 0.468738 -0.048081
C7    C     C_R   0.416084 0.017791 0.361688 -0.230166
C8    C     C_R   0.431182 0.125657 0.368590 -0.196644
C9    C     C_R   0.533374 0.138748 0.560545 -0.282992
C10   C     C_R   0.521637 0.030759 0.553098 0.175699
C11   C     C_R   0.460642 0.969948 0.453705 0.183104
C12   C     C_R   0.259973 0.497994 0.500189 0.759492
C13   C     C_R   0.447421 0.862060 0.447132 -0.299088
C14   C     C_R   0.562420 0.874260 0.633068 -0.197013
C15   C     C_R   0.570586 0.982536 0.643130 -0.220406
C16   C     C_R   0.371206 0.408903 0.025727 -0.349236
C17   C     C_R   0.386478 0.415058 0.146558 0.047840
C18   C     C_R   0.556322 0.541793 0.153349 0.266452
C19   C     C_R   0.551541 0.528440 0.030265 0.087197
C20   C     C_R   0.453416 0.466200 0.966763 0.031328
C21   C     C_R   0.440531 0.463513 0.845406 0.028696
C22   C     C_R   0.623443 0.573480 0.849548 0.062138
C23   C     C_R   0.500762 0.700488 0.520923 0.795324
C24   C     C_R   0.640896 0.576923 0.968264 -0.329874
C25   C     C_R   0.739844 0.499167 0.499313 0.756956
C26   C     C_3   0.069529 0.414623 0.574261 -0.042371
C27   C     C_3   0.924702 0.409640 0.563936 -0.389313
C28   C     C_3   0.081875 0.605332 0.554752 -0.430454
C29   C     C_3   0.061597 0.475325 0.374096 -0.366041
C30   C     C_3   0.121842 0.495992 0.500112 0.151575
Cu1   Cu    Cu3+1 0.509350 0.507730 0.615930 0.919851
Cu2   Cu    Cu3+1 0.490650 0.492270 0.384070 0.909355
H1    H     H_    0.096734 0.448039 0.665924 0.132050
H2    H     H_    0.885347 0.535720 0.323145 0.162904
H3    H     H_    0.114712 0.666042 0.504088 0.165689
H4    H     H_    0.902041 0.668279 0.513350 0.153104
H5    H     H_    0.395932 0.815561 0.373695 0.139203
H6    H     H_    0.604622 0.837748 0.701718 0.149875
H7    H     H_    0.370213 0.971951 0.284653 0.137434
H8    H     H_    0.617478 0.028226 0.719761 0.133953
H9    H     H_    0.395069 0.161854 0.297197 0.152118
H10   H     H_    0.578849 0.185626 0.637250 0.151338
H11   H     H_    0.364912 0.416407 0.795036 0.108951
H12   H     H_    0.691135 0.613371 0.804446 0.121292
H13   H     H_    0.296022 0.358716 0.978561 0.138561
H14   H     H_    0.724660 0.618848 0.008715 0.149856
H15   H     H_    0.323577 0.368945 0.190044 0.121700
H16   H     H_    0.885644 0.332416 0.518633 0.159976
H17   H     H_    0.889895 0.418802 0.652128 0.154344
H18   H     H_    0.125317 0.627461 0.643924 0.168367
H19   H     H_    0.912402 0.620631 0.648982 0.165462
H20   H     H_    0.094671 0.538052 0.326148 0.171558
H21   H     H_    0.090013 0.401316 0.325040 0.151925
H22   H     H_    0.877789 0.397952 0.329363 0.165527
N1    N     N_R   0.523430 0.519360 0.790130 -0.176225
N2    N     N_R   0.476570 0.480640 0.209880 -0.195484
O1    O     O_R   0.506640 0.354460 0.582000 -0.586417
O2    O     O_R   0.490840 0.341410 0.386200 -0.585924
O3    O     O_R   0.325590 0.506510 0.597900 -0.595896
O4    O     O_R   0.309790 0.493450 0.402100 -0.594553
O5    O     O_R   0.509160 0.658590 0.613800 -0.579729
O6    O     O_R   0.493360 0.645540 0.418000 -0.599544
O7    O     O_R   0.690210 0.506550 0.597900 -0.593836
O8    O     O_R   0.674410 0.493490 0.402100 -0.608702
C31   C     C_3   0.124223 0.304713 0.561248 -0.426224
C32   C     C_3   0.111938 0.240633 0.439621 -0.333372
C33   C     C_3   0.124676 0.124479 0.444419 -0.851492
H23   H     H_    0.211642 0.112261 0.495418 0.271253
H24   H     H_    0.043290 0.092654 0.484878 0.248398
H25   H     H_    0.127867 0.081118 0.355692 0.239169
H26   H     H_    0.020000 0.249782 0.395144 0.220625
H27   H     H_    0.187496 0.267371 0.388398 0.204051
H28   H     H_    0.224732 0.312524 0.591701 0.191679
H29   H     H_    0.076522 0.260041 0.621512 0.203723
C34   C     C_3   0.641205 0.632559 0.218290 -0.374479
C35   C     C_3   0.584782 0.740101 0.217590 -0.328157
C36   C     C_3   0.621915 0.797720 0.119640 -0.858611
H30   H     H_    0.597907 0.880719 0.139866 0.239532
H31   H     H_    0.724108 0.796078 0.109513 0.245770
H32   H     H_    0.568753 0.764159 0.037818 0.263116
H33   H     H_    0.481195 0.731498 0.215319 0.221389
H34   H     H_    0.618586 0.791308 0.299026 0.216689
H35   H     H_    0.660285 0.625873 0.307939 0.224336
H36   H     H_    0.737372 0.631795 0.188906 0.140451

loop_
_geom_bond_atom_site_label_1
_geom_bond_atom_site_label_2
_ccdc_geom_bond_type
C27   H16   S    
C18   C34   S    
Cu1   O5    S    
C19   C20   A    
Cu2   O2    S    
C6    C9    A    
C7    C8    A    
C36   H30   S    
C7    C11   A    
C9    H10   S    
C3    C28   S    
C10   C15   A    
C34   H36   S    
C31   H28   S    
C18   C19   A    
C25   O7    A    
Cu1   O3    S    
C21   H11   S    
C12   O3    A    
C28   H18   S    
C23   O6    A    
C32   H27   S    
Cu1   Cu2   S    
C28   H3    S    
C16   C17   A    
C2    C27   S    
C9    C10   A    
C13   H5    S    
C4    C29   S    
C18   N2    A    
C4    H22   S    
C32   C33   S    
C36   H31   S    
C4    H2    S    
C33   H23   S    
Cu1   O7    S    
C8    H9    S    
Cu2   O8    S    
C35   H34   S    
C21   N1    A    
C3    H19   S    
C6    C8    A    
C31   H29   S    
C1    C6    S    
C33   H24   S    
C25   O8    A    
C16   H13   S    
C2    C4    S    
C34   C35   S    
C29   C30   S    
C1    O1    A    
C14   H6    S    
C26   H1    S    
C32   H26   S    
C5    C23   S    
C16   C20   A    
C26   C27   S    
C35   C36   S    
C17   N2    A    
C5    C14   A    
C26   C30   S    
C22   C24   A    
Cu2   O4    S    
C36   H32   S    
C22   H12   S    
C12   C30   S    
C26   C31   S    
C5    C13   A    
C17   H15   S    
C35   H33   S    
C22   N1    A    
C33   H25   S    
C24   H14   S    
Cu1   O1    S    
C28   C30   S    
C2    C3    S    
Cu2   O6    S    
C1    O2    A    
C11   C13   A    
C34   H35   S    
C29   H21   S    
C3    H4    S    
C19   C24   A    
C2    C25   S    
C15   H8    S    
C10   C11   A    
C12   O4    A    
C23   O5    A    
C20   C21   A    
C31   C32   S    
C7    H7    S    
C14   C15   A    
Cu1   N1    S    
Cu2   N2    S    
C27   H17   S    
C29   H20   S    
