data_mof_unit_18707.cif
_audit_creation_date              2012-12-10T20:40:54-0500
_audit_creation_method            fapswitch 2.2
_symmetry_space_group_name_H-M    P1
_symmetry_Int_Tables_number       1
_space_group_crystal_system       triclinic
_cell_length_a                    27.537344
_cell_length_b                    10.677878
_cell_length_c                    9.835431
_cell_angle_alpha                 89.91058
_cell_angle_beta                  90.757073
_cell_angle_gamma                 90.723086
_cell_volume                      2891.52850837

loop_
_atom_site_label
_atom_site_type_symbol
_atom_type_description
_atom_site_fract_x
_atom_site_fract_y
_atom_site_fract_z
_atom_type_partial_charge
C1    C     C_R   0.499327 0.259532 0.500428 0.881354
C2    C     C_R   0.274471 0.449196 0.565006 -0.280698
C3    C     C_R   0.253558 0.549848 0.495912 0.079672
C4    C     C_R   0.101250 0.571699 0.486098 -0.119800
C5    C     C_R   0.124588 0.468192 0.427737 -0.146147
C6    C     C_R   0.096448 0.370423 0.369744 0.517157
C7    C     C_R   0.129225 0.668250 0.547179 -0.014297
C8    C     C_R   0.353832 0.518689 0.495608 -0.308163
C9    C     C_R   0.645915 0.526209 0.501357 -0.191776
C10   C     C_R   0.971522 0.499444 0.401077 0.110356
C11   C     C_R   0.975304 0.677542 0.561111 -0.102938
C12   C     C_R   0.406154 0.503443 0.498942 1.023001
C13   C     C_R   0.948011 0.591441 0.479678 0.016432
C14   C     C_R   0.943333 0.423333 0.312155 -0.233889
C15   C     C_R   0.893192 0.430721 0.308459 -0.148272
C16   C     C_R   0.869482 0.513508 0.393880 -0.019357
C17   C     C_R   0.896682 0.595113 0.478741 -0.067240
C18   C     C_R   0.872403 0.678522 0.564215 -0.110077
C19   C     C_R   0.821509 0.675616 0.566805 0.562623
C20   C     C_R   0.818863 0.514632 0.398739 0.553204
C21   C     C_R   0.726895 0.485337 0.584861 -0.310467
C22   C     C_R   0.677353 0.455388 0.583185 0.455327
C23   C     C_R   0.502755 0.739826 0.500048 0.907569
C24   C     C_R   0.664099 0.622091 0.418029 -0.415258
C25   C     C_R   0.713755 0.650560 0.418044 0.544683
C26   C     C_R   0.745003 0.580097 0.500453 0.182506
C27   C     C_R   0.022307 0.486095 0.413745 -0.021069
C28   C     C_R   0.049937 0.578947 0.483380 0.073953
C29   C     C_R   0.026723 0.679566 0.549434 0.066813
C30   C     C_R   0.046260 0.381330 0.360774 -0.330783
C31   C     C_R   0.106190 0.772936 0.600105 -0.201965
C32   C     C_R   0.949796 0.754673 0.654084 0.462861
C33   C     C_R   0.899204 0.757640 0.650381 -0.216852
C34   C     C_R   0.593940 0.502277 0.500646 0.942899
C35   C     C_R   0.055888 0.779820 0.598403 -0.194389
C36   C     C_R   0.509941 0.062845 0.624131 -0.049891
C37   C     C_R   0.503902 0.127308 0.501301 -0.083902
C38   C     C_R   0.509583 0.064518 0.377518 -0.222835
C39   C     C_R   0.513551 0.936047 0.376960 -0.234859
C40   C     C_R   0.511421 0.871002 0.500435 -0.028928
C41   C     C_R   0.515423 0.935613 0.623253 -0.025496
C42   C     C_3   0.489248 0.915235 0.753701 -0.552137
C43   C     C_3   0.479833 0.055585 0.752553 0.912980
C44   C     C_R   0.457306 0.489441 0.069374 0.184484
C45   C     C_R   0.175514 0.465432 0.430187 0.499673
C46   C     C_R   0.541642 0.521514 0.073461 -0.160571
C47   C     C_R   0.541679 0.520874 0.929454 -0.122336
C48   C     C_R   0.457437 0.491661 0.926538 0.148240
C49   C     C_3   0.421924 0.387335 0.914527 -0.546820
C50   C     C_3   0.422125 0.381108 0.069299 0.254338
C51   C     C_R   0.179857 0.658779 0.551591 0.585228
C52   C     C_R   0.282739 0.635749 0.423070 0.412515
C53   C     C_R   0.333741 0.622817 0.427616 0.304989
C54   C     C_R   0.324036 0.429130 0.558985 0.379618
H1    H     H_    0.126983 0.850839 0.642151 0.180523
H2    H     H_    0.639739 0.673257 0.351397 0.174603
H3    H     H_    0.880985 0.819261 0.720151 0.202914
H4    H     H_    0.040755 0.866988 0.631583 0.202188
H5    H     H_    0.508089 0.113222 0.281040 0.164076
H6    H     H_    0.514112 0.888032 0.280037 0.167661
H7    H     H_    0.456242 0.855792 0.740432 0.202465
H8    H     H_    0.251590 0.382625 0.618358 0.187575
H9    H     H_    0.514011 0.883900 0.836785 0.179414
H10   H     H_    0.575408 0.536726 0.128531 0.174618
H11   H     H_    0.575459 0.535304 0.876608 0.169431
H12   H     H_    0.387157 0.419000 0.868038 0.243630
H13   H     H_    0.438129 0.304901 0.865457 0.242040
H14   H     H_    0.438210 0.294793 0.114243 0.089715
H15   H     H_    0.751804 0.430439 0.645937 0.165374
H16   H     H_    0.873048 0.369526 0.239726 0.189072
H17   H     H_    0.959188 0.359285 0.241174 0.146647
H18   H     H_    0.026807 0.303082 0.315967 0.161202
N1    N     N_R   0.201772 0.558700 0.493104 -0.326943
N2    N     N_R   0.796201 0.593028 0.486299 -0.319966
N3    N     N_R   0.499670 0.499140 0.142800 -0.146772
N4    N     N_R   0.499670 0.499180 0.857150 -0.103828
O1    O     O_R   0.500010 0.316790 0.614690 -0.605090
O2    O     O_2   0.792322 0.436238 0.318808 -0.569657
O3    O     O_2   0.207004 0.748265 0.614144 -0.551202
O4    O     O_2   0.797512 0.752493 0.650668 -0.584986
O5    O     O_R   0.500000 0.316760 0.385350 -0.638986
O6    O     O_R   0.428760 0.500040 0.614660 -0.603756
O7    O     O_R   0.428750 0.500000 0.385310 -0.586014
O8    O     O_R   0.500000 0.683240 0.614650 -0.624604
O9    O     O_R   0.499990 0.683210 0.385310 -0.636054
O10   O     O_R   0.571250 0.500000 0.614690 -0.605148
O11   O     O_R   0.571240 0.499960 0.385340 -0.636910
O12   O     O_2   0.199024 0.372007 0.367747 -0.557773
Zn1   Zn    Zn3+2 0.500000 0.500020 0.653130 0.972355
Zn2   Zn    Zn3+2 0.500000 0.499980 0.346870 0.944412
O13   O     O_3   0.343079 0.321404 0.615748 -0.633186
C55   C     C_3   0.347516 0.229411 0.512937 0.083767
H19   H     H_    0.376352 0.164337 0.545402 0.216346
H20   H     H_    0.359946 0.269079 0.414420 0.122359
C56   C     C_3   0.299935 0.154590 0.493354 -0.414214
H21   H     H_    0.286257 0.123638 0.593866 0.247518
H22   H     H_    0.272037 0.214778 0.445199 0.256170
C57   C     C_3   0.306746 0.040090 0.403147 -0.870877
H23   H     H_    0.318469 0.068859 0.300168 0.238511
H24   H     H_    0.271703 0.988298 0.393259 0.310507
H25   H     H_    0.334218 0.976479 0.448073 0.291477
O14   O     O_3   0.262150 0.738718 0.360126 -0.590091
C58   C     C_3   0.240116 0.701524 0.235465 0.072258
H26   H     H_    0.207676 0.641243 0.252021 0.168663
H27   H     H_    0.265818 0.650031 0.170239 0.118477
C59   C     C_3   0.223396 0.817174 0.158495 -0.840725
H28   H     H_    0.254403 0.882490 0.141659 0.251398
H29   H     H_    0.207573 0.789415 0.058402 0.228068
H30   H     H_    0.195326 0.865771 0.217703 0.262288
O15   O     O_3   0.973011 0.824649 0.754376 -0.667550
C60   C     C_3   0.985917 0.746785 0.865580 0.077747
H31   H     H_    0.021171 0.782204 0.907289 0.173281
H32   H     H_    0.991753 0.646880 0.837182 0.131884
C61   C     C_3   0.947720 0.754859 0.976884 -0.359937
H33   H     H_    0.941587 0.854697 0.002584 0.238893
H34   H     H_    0.912882 0.713284 0.939378 0.225288
C62   C     C_3   0.963738 0.685249 0.105061 -0.913667
H35   H     H_    0.969878 0.585006 0.081758 0.267198
H36   H     H_    0.934982 0.691546 0.182733 0.277257
H37   H     H_    0.997745 0.727403 0.147571 0.262307
O16   O     O_3   0.732948 0.734887 0.325652 -0.625942
C63   C     C_3   0.719532 0.857618 0.361264 0.058866
H38   H     H_    0.731951 0.880149 0.466917 0.172159
H39   H     H_    0.679456 0.869051 0.353144 0.131721
C64   C     C_3   0.743643 0.949725 0.263185 -0.299563
H40   H     H_    0.783751 0.939920 0.270181 0.234299
H41   H     H_    0.731749 0.927523 0.157372 0.234013
C65   C     C_3   0.730452 0.084715 0.295220 -0.947365
H42   H     H_    0.690477 0.096752 0.288273 0.256409
H43   H     H_    0.747932 0.148796 0.220928 0.292111
H44   H     H_    0.743552 0.110160 0.398912 0.263936
O17   O     O_3   0.430361 0.081842 0.724335 -0.671110
C66   C     C_3   0.400025 0.054601 0.836743 0.073604
H45   H     H_    0.382342 0.142785 0.866484 0.174708
H46   H     H_    0.419508 0.018191 0.928501 0.148033
C67   C     C_3   0.360263 0.959993 0.795400 -0.342210
H47   H     H_    0.345081 0.984993 0.694329 0.255388
H48   H     H_    0.375727 0.864854 0.788212 0.212818
C68   C     C_3   0.319163 0.957007 0.898058 -0.964424
H49   H     H_    0.333525 0.935603 0.001286 0.248413
H50   H     H_    0.292097 0.883625 0.868744 0.293599
H51   H     H_    0.300699 0.048837 0.900182 0.266520
O18   O     O_3   0.497526 0.120153 0.870935 -0.694000
C69   C     C_3   0.548267 0.142061 0.874798 0.021851
H52   H     H_    0.557371 0.221452 0.806111 0.205934
H53   H     H_    0.568836 0.057604 0.845125 0.136350
C70   C     C_3   0.563321 0.176702 0.020101 -0.340784
H54   H     H_    0.539854 0.252875 0.057340 0.238567
H55   H     H_    0.558149 0.093627 0.086699 0.211774
C71   C     C_3   0.616323 0.219561 0.029281 -0.901967
H56   H     H_    0.640590 0.142203 0.999748 0.260757
H57   H     H_    0.625311 0.247250 0.135558 0.261336
H58   H     H_    0.622702 0.301532 0.961835 0.287694
O19   O     O_3   0.377173 0.415886 0.124379 -0.596153
C72   C     C_3   0.344418 0.313199 0.116228 0.055084
H59   H     H_    0.357874 0.233470 0.178290 0.128259
H60   H     H_    0.338980 0.281456 0.009416 0.155488
C73   C     C_3   0.295223 0.352352 0.168621 -0.768807
H61   H     H_    0.279900 0.426720 0.102409 0.242116
H62   H     H_    0.269897 0.270591 0.168435 0.239959
H63   H     H_    0.298969 0.388648 0.273648 0.247204
O20   O     O_3   0.117630 0.265479 0.315079 -0.563789
C74   C     C_3   0.118249 0.170169 0.414798 0.132909
H64   H     H_    0.080644 0.137306 0.437163 0.120389
H65   H     H_    0.136252 0.203096 0.510753 0.140636
C75   C     C_3   0.146757 0.059966 0.361649 -0.776355
H66   H     H_    0.184394 0.090412 0.337499 0.274735
H67   H     H_    0.148351 0.984946 0.439664 0.212722
H68   H     H_    0.128864 0.022059 0.268334 0.244354
O21   O     O_3   0.659854 0.352603 0.654114 -0.611060
C76   C     C_3   0.674821 0.242873 0.586820 0.104674
H69   H     H_    0.714107 0.226562 0.606631 0.156820
H70   H     H_    0.667981 0.248593 0.474866 0.142867
C77   C     C_3   0.646456 0.130472 0.639414 -0.853077
H71   H     H_    0.652377 0.120334 0.750629 0.260563
H72   H     H_    0.607262 0.142792 0.617103 0.245133
H73   H     H_    0.658735 0.044070 0.588126 0.212673
O22   O     O_3   0.364861 0.717274 0.382392 -0.597008
C78   C     C_3   0.360705 0.733455 0.240059 0.156263
H74   H     H_    0.332060 0.802312 0.216682 0.178629
H75   H     H_    0.352902 0.644037 0.185313 0.177769
C79   C     C_3   0.407889 0.787907 0.185701 -0.854216
H76   H     H_    0.437722 0.720963 0.202222 0.288523
H77   H     H_    0.404186 0.805374 0.074762 0.198761
H78   H     H_    0.416896 0.877649 0.237713 0.255540

loop_
_geom_bond_atom_site_label_1
_geom_bond_atom_site_label_2
_ccdc_geom_bond_type
C10   C27   A    
C51   O3    S    
C73   H62   S    
C21   C26   A    
C72   H60   S    
C56   H21   S    
C1    O1    A    
C41   C42   S    
C48   N4    A    
C43   O18   S    
C70   H54   S    
C76   H69   S    
C53   O22   S    
O22   C78   S    
C56   C57   S    
C76   H70   S    
O1    Zn1   S    
O6    Zn1   S    
C32   O15   S    
C35   H4    S    
C5    C6    A    
C28   C29   A    
C70   H55   S    
C47   N4    A    
C62   H36   S    
C34   O10   A    
C38   C39   A    
C68   H51   S    
C9    C22   A    
O21   C76   S    
C1    O5    A    
C23   C40   S    
C23   O9    A    
C45   N1    A    
C18   C19   A    
C14   H17   S    
C15   H16   S    
O15   C60   S    
N3    Zn2   S    
C50   H14   S    
C77   H71   S    
C74   H64   S    
O17   C66   S    
C71   H58   S    
C66   C67   S    
C58   C59   S    
C42   C43   S    
C73   H63   S    
C8    C12   S    
N4    Zn1   S    
C78   C79   S    
C21   C22   A    
C65   H42   S    
C72   C73   S    
C75   H67   S    
C36   C41   A    
O14   C58   S    
C69   C70   S    
C46   N3    A    
C4    C28   A    
C61   H33   S    
C77   H72   S    
C76   C77   S    
C72   H59   S    
C7    C31   A    
C23   O8    A    
C20   N2    A    
C6    O20   S    
C45   O12   S    
C24   C25   A    
C58   H27   S    
C10   C14   A    
C62   H37   S    
C8    C54   A    
O13   C55   S    
C16   C17   A    
C4    C7    A    
C25   C26   A    
C5    C45   A    
O10   Zn1   S    
C55   C56   S    
C38   H5    S    
C12   O7    A    
C21   H15   S    
C49   H12   S    
C79   H78   S    
C67   C68   S    
C44   N3    A    
C37   C38   A    
C64   C65   S    
C66   H45   S    
C61   H34   S    
C77   H73   S    
C16   C20   A    
C52   O14   S    
C74   C75   S    
C55   H20   S    
C17   C18   A    
O16   C63   S    
C12   O6    A    
C60   H32   S    
C68   H50   S    
C79   H76   S    
C42   H7    S    
O19   C72   S    
C22   O21   S    
O5    Zn2   S    
C69   H53   S    
C40   C41   A    
C6    C30   A    
C11   C32   A    
C49   C50   S    
C57   H24   S    
C2    C54   A    
C64   H40   S    
C31   C35   A    
O8    Zn1   S    
C63   H39   S    
C65   H44   S    
C70   C71   S    
C58   H26   S    
C52   C53   A    
C68   H49   S    
C67   H48   S    
C66   H46   S    
O20   C74   S    
C44   C50   S    
O7    Zn2   S    
C46   C47   A    
C48   C49   S    
C33   H3    S    
C49   H13   S    
C60   H31   S    
C74   H65   S    
C71   H56   S    
C19   N2    A    
C51   N1    A    
C67   H47   S    
C10   C13   A    
C65   H43   S    
C8    C53   A    
C15   C16   A    
C30   H18   S    
O9    Zn2   S    
C56   H22   S    
C9    C24   A    
C13   C17   A    
C24   H2    S    
C57   H25   S    
C29   C35   A    
C20   O2    S    
C69   H52   S    
C32   C33   A    
C63   C64   S    
C2    C3    A    
C7    C51   A    
C54   O13   S    
C62   H35   S    
C3    C52   A    
C11   C13   A    
C73   H61   S    
C75   H66   S    
C59   H29   S    
C50   O19   S    
C39   H6    S    
C55   H19   S    
C26   N2    S    
C43   O17   S    
C9    C34   S    
C60   C61   S    
C71   H57   S    
C34   O11   A    
C19   O4    S    
C3    N1    S    
C18   C33   A    
C79   H77   S    
C61   C62   S    
C78   H74   S    
C39   C40   A    
C44   C48   A    
C4    C5    A    
C11   C29   A    
C75   H68   S    
C36   C37   A    
C57   H23   S    
C59   H28   S    
O11   Zn2   S    
C46   H10   S    
C27   C28   A    
C64   H41   S    
C14   C15   A    
C36   C43   S    
C78   H75   S    
C31   H1    S    
C63   H38   S    
C25   O16   S    
C42   H9    S    
C47   H11   S    
O18   C69   S    
C2    H8    S    
C1    C37   S    
C27   C30   A    
C59   H30   S    
