data_mof_unit_18619.cif
_audit_creation_date              2012-12-10T18:23:53-0500
_audit_creation_method            fapswitch 2.2
_symmetry_space_group_name_H-M    P1
_symmetry_Int_Tables_number       1
_space_group_crystal_system       triclinic
_cell_length_a                    22.482531
_cell_length_b                    22.427632
_cell_length_c                    14.63208
_cell_angle_alpha                 89.827363
_cell_angle_beta                  90.231395
_cell_angle_gamma                 89.966926
_cell_volume                      7377.83775857

loop_
_atom_site_label
_atom_site_type_symbol
_atom_type_description
_atom_site_fract_x
_atom_site_fract_y
_atom_site_fract_z
_atom_type_partial_charge
C1    C     C_R   0.419765 0.919710 0.499962 0.822845
C2    C     C_R   0.580237 0.080287 0.500038 0.822871
C3    C     C_R   0.580153 0.919634 0.500224 0.823428
C4    C     C_R   0.419847 0.080366 0.499775 0.823419
C5    C     C_R   0.919760 0.419715 0.499961 0.822850
C6    C     C_R   0.080237 0.580287 0.500039 0.822824
C7    C     C_R   0.080158 0.419640 0.500221 0.823408
C8    C     C_R   0.919842 0.580361 0.499779 0.823418
C9    C     C_1   0.337962 0.163403 0.499031 0.006444
C10   C     C_1   0.662033 0.836593 0.500965 0.006444
C11   C     C_1   0.662422 0.163013 0.500008 0.004071
C12   C     C_1   0.337585 0.836978 0.499979 0.004105
C13   C     C_1   0.837924 0.663359 0.499119 0.006431
C14   C     C_1   0.162081 0.336646 0.500885 0.006427
C15   C     C_1   0.162436 0.663000 0.500024 0.004133
C16   C     C_1   0.837559 0.337006 0.499989 0.004100
C17   C     C_1   0.499824 0.000214 0.194246 0.196868
C18   C     C_1   0.500173 0.999787 0.805754 0.196915
C19   C     C_1   0.999741 0.500144 0.194245 0.197172
C20   C     C_1   0.000261 0.499855 0.805755 0.197127
C21   C     C_3   0.555526 0.012394 0.970284 0.055735
C22   C     C_3   0.444468 0.987607 0.029716 0.055766
C23   C     C_3   0.517022 0.054545 0.029871 0.032659
C24   C     C_3   0.482973 0.945456 0.970129 0.032640
C25   C     C_3   0.052484 0.522352 0.970249 0.030895
C26   C     C_3   0.947521 0.477647 0.029751 0.030862
C27   C     C_3   0.006831 0.556621 0.029782 0.057806
C28   C     C_3   0.993174 0.443378 0.970218 0.057818
C29   C     C_3   0.732184 0.758438 0.586458 0.091037
C30   C     C_3   0.267582 0.241324 0.413484 0.091044
C31   C     C_3   0.281346 0.745705 0.422503 0.088139
C32   C     C_3   0.718337 0.254600 0.577144 0.088148
C33   C     C_3   0.232476 0.258743 0.586371 0.090646
C34   C     C_3   0.767759 0.741495 0.413689 0.090632
C35   C     C_3   0.781637 0.245427 0.422853 0.088350
C36   C     C_3   0.218682 0.754265 0.577499 0.088340
C37   C     C_3   0.228760 0.199593 0.533774 0.505689
C38   C     C_3   0.771330 0.800500 0.466689 0.505652
C39   C     C_3   0.775062 0.196624 0.496194 0.505010
C40   C     C_3   0.224965 0.803361 0.504554 0.504994
C41   C     C_3   0.728613 0.699433 0.533452 0.505793
C42   C     C_3   0.271297 0.300475 0.466085 0.505833
C43   C     C_3   0.275063 0.696609 0.495449 0.505010
C44   C     C_3   0.724913 0.303403 0.503803 0.505025
C45   C     C_1   0.375410 0.125442 0.499285 -0.170138
C46   C     C_1   0.624587 0.874555 0.500714 -0.170129
C47   C     C_1   0.624865 0.125173 0.500063 -0.174206
C48   C     C_1   0.375140 0.874821 0.499933 -0.174212
C49   C     C_1   0.875389 0.625417 0.499314 -0.170176
C50   C     C_1   0.124614 0.374586 0.500687 -0.170184
C51   C     C_1   0.124872 0.625166 0.500068 -0.174193
C52   C     C_1   0.875124 0.374838 0.499935 -0.174186
C53   C     C_3   0.296833 0.268906 0.551995 -0.376152
C54   C     C_3   0.703309 0.731237 0.447584 -0.376123
C55   C     C_3   0.713874 0.258140 0.425830 -0.375909
C56   C     C_3   0.286428 0.741557 0.573743 -0.375915
C57   C     C_3   0.796634 0.768697 0.552560 -0.376034
C58   C     C_3   0.203225 0.231161 0.447861 -0.376076
C59   C     C_3   0.213601 0.758414 0.426259 -0.375763
C60   C     C_3   0.786101 0.241886 0.574167 -0.375757
C61   C     C_3   0.292331 0.209270 0.499078 -0.006654
C62   C     C_3   0.707666 0.790727 0.500914 -0.006640
C63   C     C_3   0.707990 0.208949 0.499955 -0.004369
C64   C     C_3   0.292018 0.791043 0.500024 -0.004354
C65   C     C_3   0.792277 0.709209 0.499227 -0.006637
C66   C     C_3   0.207727 0.290796 0.500782 -0.006658
C67   C     C_3   0.208010 0.708928 0.499978 -0.004372
C68   C     C_3   0.791985 0.291078 0.500042 -0.004387
C69   C     C_3   0.537835 0.958756 0.031360 0.460697
C70   C     C_3   0.462160 0.041245 0.968639 0.460701
C71   C     C_3   0.044658 0.466311 0.031409 0.459927
C72   C     C_3   0.955347 0.533687 0.968591 0.459921
C73   C     C_3   0.499583 0.000579 0.091568 -0.191774
C74   C     C_3   0.500412 0.999421 0.908432 -0.191782
C75   C     C_3   0.999354 0.500361 0.091562 -0.191567
C76   C     C_3   0.000650 0.499638 0.908438 -0.191554
Cu1   Cu    Cu3+1 0.500000 0.000000 0.590220 0.981556
Cu2   Cu    Cu3+1 0.500000 1.000000 0.409780 0.981449
Cu3   Cu    Cu3+1 0.000000 0.500000 0.590220 0.981464
Cu4   Cu    Cu3+1 1.000000 0.500000 0.409780 0.981571
H1    H     H_    0.664843 0.717050 0.405140 0.149660
H2    H     H_    0.335413 0.283211 0.594100 0.149662
H3    H     H_    0.316553 0.735743 0.633395 0.149339
H4    H     H_    0.683989 0.263713 0.365840 0.149353
H5    H     H_    0.164646 0.216859 0.405749 0.150135
H6    H     H_    0.835098 0.782881 0.595011 0.150143
H7    H     H_    0.815985 0.236313 0.634157 0.149360
H8    H     H_    0.183475 0.764228 0.366608 0.149349
N1    N     N_1   0.499980 0.000000 0.274190 -0.158174
N2    N     N_1   0.500020 0.000000 0.725810 -0.158158
N3    N     N_1   0.999980 0.500000 0.274190 -0.158157
N4    N     N_1   0.000020 0.500000 0.725810 -0.158172
O1    O     O_R   0.439540 0.939530 0.576170 -0.570249
O2    O     O_R   0.560460 0.060470 0.423830 -0.570311
O3    O     O_R   0.560460 0.939530 0.423830 -0.555362
O4    O     O_R   0.439540 0.060470 0.576170 -0.555309
O5    O     O_R   0.939540 0.439530 0.576170 -0.569302
O6    O     O_R   0.060460 0.560470 0.423830 -0.569240
O7    O     O_R   0.060460 0.439530 0.423830 -0.555364
O8    O     O_R   0.939540 0.560470 0.576170 -0.555415
O9    O     O_R   0.439530 0.939530 0.423800 -0.575133
O10   O     O_R   0.560470 0.060470 0.576200 -0.575071
O11   O     O_R   0.560470 0.939530 0.576200 -0.584632
O12   O     O_R   0.439530 0.060470 0.423800 -0.584670
O13   O     O_R   0.939530 0.439530 0.423800 -0.576042
O14   O     O_R   0.060470 0.560470 0.576200 -0.576104
O15   O     O_R   0.060470 0.439530 0.576200 -0.584655
O16   O     O_R   0.939530 0.560470 0.423800 -0.584617
O17   O     O_3   0.422435 0.081622 0.925646 -0.571887
C77   C     C_3   0.398415 0.122386 0.988949 0.070322
H9    H     H_    0.428542 0.161157 0.996217 0.162970
H10   H     H_    0.390778 0.102541 0.057558 0.126146
C78   C     C_3   0.339326 0.145909 0.952644 -0.796802
H11   H     H_    0.306664 0.109091 0.946209 0.244295
H12   H     H_    0.321266 0.179758 0.000350 0.194815
H13   H     H_    0.345715 0.166977 0.884587 0.256571
O18   O     O_3   0.577560 0.918379 0.074351 -0.571913
C79   C     C_3   0.601577 0.877614 0.011046 0.070338
H14   H     H_    0.609201 0.897455 0.942430 0.126143
H15   H     H_    0.571453 0.838839 0.003795 0.162971
C80   C     C_3   0.660674 0.854101 0.047334 -0.796829
H16   H     H_    0.654298 0.833039 0.115399 0.256469
H17   H     H_    0.678729 0.820248 0.999629 0.194854
H18   H     H_    0.693333 0.890922 0.053747 0.244302
O19   O     O_3   0.911382 0.569318 0.925480 -0.571854
C81   C     C_3   0.868549 0.589367 0.988679 0.075130
H19   H     H_    0.887503 0.599075 0.057263 0.125298
H20   H     H_    0.833044 0.555493 0.996040 0.164468
C82   C     C_3   0.839363 0.645925 0.952155 -0.801530
H21   H     H_    0.818974 0.637318 0.884184 0.260340
H22   H     H_    0.804064 0.660762 0.999868 0.196216
H23   H     H_    0.872704 0.682099 0.945467 0.240873
O20   O     O_3   0.088623 0.430681 0.074520 -0.571829
C83   C     C_3   0.131455 0.410631 0.011321 0.075120
H24   H     H_    0.166960 0.444505 0.003959 0.164461
H25   H     H_    0.112500 0.400921 0.942737 0.125284
C84   C     C_3   0.160642 0.354073 0.047846 -0.801423
H26   H     H_    0.127301 0.317899 0.054536 0.240889
H27   H     H_    0.195941 0.339235 0.000134 0.196154
H28   H     H_    0.181030 0.362680 0.115817 0.260364
O21   O     O_3   0.211312 0.144455 0.571872 -0.568256
C85   C     C_3   0.148837 0.139396 0.569537 0.064096
H29   H     H_    0.133588 0.130479 0.498471 0.142696
H30   H     H_    0.126553 0.180323 0.595503 0.129420
C86   C     C_3   0.130130 0.087268 0.629532 -0.787139
H31   H     H_    0.143617 0.095606 0.701477 0.245441
H32   H     H_    0.081080 0.081756 0.626408 0.192226
H33   H     H_    0.151579 0.045585 0.605509 0.259391
O22   O     O_3   0.788879 0.855741 0.429063 -0.568276
C87   C     C_3   0.851347 0.860800 0.431850 0.064132
H34   H     H_    0.873707 0.819958 0.405732 0.129419
H35   H     H_    0.866397 0.869499 0.503080 0.142688
C88   C     C_3   0.870214 0.913115 0.372359 -0.787199
H36   H     H_    0.848686 0.954716 0.396543 0.259455
H37   H     H_    0.919254 0.918629 0.375851 0.192223
H38   H     H_    0.856932 0.904998 0.300265 0.245451
O23   O     O_3   0.797119 0.137890 0.489048 -0.570283
C89   C     C_3   0.857395 0.136294 0.515890 0.069307
H39   H     H_    0.861076 0.140690 0.591399 0.142139
H40   H     H_    0.883775 0.172228 0.482523 0.130089
C90   C     C_3   0.884039 0.076650 0.488569 -0.798807
H41   H     H_    0.881285 0.071134 0.413254 0.245118
H42   H     H_    0.931456 0.074654 0.509928 0.193637
H43   H     H_    0.859502 0.039701 0.522221 0.254816
O24   O     O_3   0.202962 0.862071 0.512459 -0.570254
C91   C     C_3   0.142574 0.863792 0.486248 0.069286
H44   H     H_    0.116316 0.827785 0.519658 0.130137
H45   H     H_    0.138555 0.859608 0.410749 0.142071
C92   C     C_3   0.116104 0.923383 0.514224 -0.798633
H46   H     H_    0.140505 0.960402 0.480514 0.254757
H47   H     H_    0.068590 0.925463 0.493409 0.193605
H48   H     H_    0.119220 0.928710 0.589541 0.245189
O25   O     O_3   0.711064 0.644184 0.571051 -0.568501
C93   C     C_3   0.648591 0.639159 0.568366 0.064067
H49   H     H_    0.633484 0.630504 0.497151 0.142540
H50   H     H_    0.626272 0.680000 0.594570 0.129260
C94   C     C_3   0.629740 0.586826 0.627828 -0.788574
H51   H     H_    0.643073 0.594902 0.699911 0.244934
H52   H     H_    0.580695 0.581336 0.624407 0.192210
H53   H     H_    0.651232 0.545226 0.603564 0.259674
O26   O     O_3   0.288745 0.355621 0.428015 -0.568487
C95   C     C_3   0.351226 0.360644 0.430246 0.064026
H54   H     H_    0.373467 0.319718 0.404194 0.129255
H55   H     H_    0.366532 0.369519 0.501295 0.142557
C96   C     C_3   0.369916 0.412790 0.370276 -0.788541
H56   H     H_    0.348504 0.454472 0.394377 0.259617
H57   H     H_    0.418971 0.418277 0.373326 0.192216
H58   H     H_    0.356376 0.404491 0.298343 0.244909
O27   O     O_3   0.297068 0.637900 0.487543 -0.570229
C97   C     C_3   0.357455 0.636181 0.513766 0.069199
H59   H     H_    0.361465 0.640356 0.589267 0.141833
H60   H     H_    0.383713 0.672193 0.480371 0.130119
C98   C     C_3   0.383931 0.576595 0.485781 -0.799182
H61   H     H_    0.380825 0.571277 0.410462 0.245234
H62   H     H_    0.431443 0.574515 0.506610 0.193505
H63   H     H_    0.359528 0.539570 0.519474 0.254638
O28   O     O_3   0.702854 0.362136 0.510949 -0.570259
C99   C     C_3   0.642580 0.363731 0.484093 0.069222
H64   H     H_    0.616199 0.327791 0.517444 0.130069
H65   H     H_    0.638908 0.359343 0.408582 0.141902
C100  C     C_3   0.615928 0.423369 0.511424 -0.799365
H66   H     H_    0.640467 0.460324 0.477790 0.254692
H67   H     H_    0.568514 0.425365 0.490050 0.193537
H68   H     H_    0.618671 0.428875 0.586742 0.245166
C101  C     C_3   0.710712 0.769947 0.683855 -0.386064
C102  C     C_3   0.743572 0.731014 0.753273 -0.796829
H69   H     H_    0.735033 0.683098 0.739784 0.281341
H70   H     H_    0.792181 0.739544 0.750306 0.250792
H71   H     H_    0.727716 0.741559 0.823156 0.224903
H72   H     H_    0.718333 0.817605 0.700666 0.204365
H73   H     H_    0.662242 0.761032 0.688027 0.187624
C103  C     C_3   0.288790 0.229547 0.316023 -0.386077
C104  C     C_3   0.255763 0.268306 0.246563 -0.796767
H74   H     H_    0.207158 0.259810 0.249891 0.250818
H75   H     H_    0.264363 0.316256 0.259683 0.281290
H76   H     H_    0.271426 0.257560 0.176649 0.224906
H77   H     H_    0.337251 0.238434 0.311489 0.187616
H78   H     H_    0.281108 0.181848 0.299559 0.204384
C105  C     C_3   0.317960 0.743115 0.334784 -0.387256
C106  C     C_3   0.296933 0.693117 0.272081 -0.787922
H79   H     H_    0.302760 0.649120 0.305885 0.280753
H80   H     H_    0.249348 0.699378 0.253749 0.247308
H81   H     H_    0.323586 0.693558 0.208375 0.227026
H82   H     H_    0.313643 0.786409 0.298282 0.206050
H83   H     H_    0.365578 0.736298 0.352183 0.189317
C107  C     C_3   0.681359 0.257545 0.664469 -0.387250
C108  C     C_3   0.702134 0.307793 0.726896 -0.787850
H84   H     H_    0.749640 0.301593 0.745757 0.247320
H85   H     H_    0.696467 0.351653 0.692610 0.280779
H86   H     H_    0.675211 0.307626 0.790336 0.227018
H87   H     H_    0.633814 0.264298 0.646539 0.189312
H88   H     H_    0.685518 0.214397 0.701418 0.206048
C109  C     C_3   0.211262 0.270510 0.683829 -0.385989
C110  C     C_3   0.244483 0.231935 0.753305 -0.794688
H89   H     H_    0.236133 0.183937 0.740213 0.283903
H90   H     H_    0.293039 0.240693 0.749942 0.246454
H91   H     H_    0.228779 0.242624 0.823217 0.226357
H92   H     H_    0.218769 0.318251 0.700205 0.203146
H93   H     H_    0.162840 0.261435 0.688434 0.189019
C111  C     C_3   0.789235 0.729997 0.316294 -0.386078
C112  C     C_3   0.756185 0.768750 0.246860 -0.794478
H94   H     H_    0.707623 0.759964 0.249863 0.246407
H95   H     H_    0.764479 0.816713 0.260320 0.283890
H96   H     H_    0.772079 0.758261 0.176978 0.226395
H97   H     H_    0.837668 0.739097 0.312051 0.189022
H98   H     H_    0.781787 0.682298 0.299570 0.203142
C113  C     C_3   0.818614 0.242485 0.335527 -0.387420
C114  C     C_3   0.797844 0.192232 0.273107 -0.788587
H99   H     H_    0.803516 0.148374 0.307398 0.280809
H100  H     H_    0.750336 0.198426 0.254248 0.247226
H101  H     H_    0.824766 0.192399 0.209666 0.226826
H102  H     H_    0.814449 0.285632 0.298575 0.206044
H103  H     H_    0.866160 0.235739 0.353455 0.189143
C115  C     C_3   0.182070 0.756852 0.665219 -0.387422
C116  C     C_3   0.203093 0.806854 0.727915 -0.788671
H104  H     H_    0.250680 0.800597 0.746246 0.247225
H105  H     H_    0.197262 0.850850 0.694107 0.280777
H106  H     H_    0.176441 0.806414 0.791622 0.226832
H107  H     H_    0.134451 0.763663 0.647823 0.189141
H108  H     H_    0.186392 0.713559 0.701724 0.206058
C117  C     C_3   0.535209 0.114728 0.070886 -0.373175
C118  C     C_3   0.554148 0.160003 0.998304 -0.842759
H109  H     H_    0.600584 0.151786 0.976701 0.250930
H110  H     H_    0.524838 0.158091 0.937185 0.265768
H111  H     H_    0.552068 0.205622 0.027373 0.232516
H112  H     H_    0.497241 0.132811 0.110325 0.172583
H113  H     H_    0.572214 0.107893 0.120238 0.211412
C119  C     C_3   0.464786 0.885272 0.929113 -0.373141
C120  C     C_3   0.445844 0.839998 0.001695 -0.842772
H114  H     H_    0.475151 0.841911 0.062816 0.265755
H115  H     H_    0.399407 0.848215 0.023294 0.250929
H116  H     H_    0.447926 0.794379 0.972627 0.232529
H117  H     H_    0.427782 0.892109 0.879760 0.211437
H118  H     H_    0.502754 0.867189 0.889676 0.172591
C121  C     C_3   0.617005 0.025397 0.929746 -0.365140
C122  C     C_3   0.664987 0.032642 0.002970 -0.798547
H119  H     H_    0.656938 0.072926 0.044648 0.247708
H120  H     H_    0.666433 0.993306 0.048802 0.281052
H121  H     H_    0.709022 0.037409 0.969690 0.227306
H122  H     H_    0.629787 0.988593 0.883341 0.182699
H123  H     H_    0.614544 0.066461 0.887444 0.206642
C123  C     C_3   0.382990 0.974603 0.070256 -0.365227
C124  C     C_3   0.335007 0.967360 0.997035 -0.798485
H124  H     H_    0.333555 0.006703 0.951214 0.281055
H125  H     H_    0.343058 0.927083 0.955345 0.247740
H126  H     H_    0.290974 0.962585 0.030317 0.227284
H127  H     H_    0.385453 0.933537 0.112554 0.206628
H128  H     H_    0.370210 0.011405 0.116666 0.182679
C125  C     C_3   0.013679 0.619226 0.070427 -0.363393
C126  C     C_3   0.016152 0.667817 0.997279 -0.809656
H129  H     H_    0.056931 0.663749 0.955631 0.247465
H130  H     H_    0.976961 0.665397 0.951408 0.279977
H131  H     H_    0.016553 0.712213 0.030620 0.226204
H132  H     H_    0.975887 0.628346 0.116809 0.180515
H133  H     H_    0.054680 0.620806 0.112777 0.206780
C127  C     C_3   0.986326 0.380773 0.929572 -0.363424
C128  C     C_3   0.983853 0.332182 0.002720 -0.809644
H134  H     H_    0.023046 0.334600 0.048586 0.279982
H135  H     H_    0.943076 0.336251 0.044372 0.247472
H136  H     H_    0.983449 0.287786 0.969378 0.226190
H137  H     H_    0.945324 0.379194 0.887224 0.206760
H138  H     H_    0.024117 0.371653 0.883189 0.180506
C129  C     C_3   0.110446 0.546406 0.929330 -0.375078
C130  C     C_3   0.153518 0.569763 0.001983 -0.834060
H139  H     H_    0.140756 0.615261 0.023669 0.249924
H140  H     H_    0.154539 0.540309 0.063039 0.267850
H141  H     H_    0.198999 0.572231 0.972945 0.234018
H142  H     H_    0.132134 0.510295 0.889901 0.175098
H143  H     H_    0.100032 0.582646 0.879991 0.210157
C131  C     C_3   0.889559 0.453593 0.070670 -0.374993
C132  C     C_3   0.846487 0.430236 0.998018 -0.834135
H144  H     H_    0.845467 0.459689 0.936960 0.267828
H145  H     H_    0.859249 0.384737 0.976333 0.249914
H146  H     H_    0.801006 0.427769 0.027054 0.234036
H147  H     H_    0.899973 0.417354 0.120010 0.210170
H148  H     H_    0.867871 0.489704 0.110099 0.175117

loop_
_geom_bond_atom_site_label_1
_geom_bond_atom_site_label_2
_ccdc_geom_bond_type
C17   C73   S    
C116  H105  S    
O23   C89   S    
C126  H131  S    
C100  H67   S    
C86   H31   S    
C5    O13   A    
C113  H102  S    
C20   N4    T    
C123  C124  S    
C81   H19   S    
C7    O7    A    
C101  H73   S    
C31   C59   S    
C95   H54   S    
C4    O4    A    
C130  H141  S    
C70   C74   S    
C15   C51   T    
C34   C111  S    
Cu2   O9    S    
C110  H90   S    
C83   C84   S    
C27   C75   S    
C90   H42   S    
C114  H100  S    
C104  H75   S    
C42   O26   S    
C84   H28   S    
C17   N1    T    
C102  H69   S    
C131  H148  S    
C81   C82   S    
C104  H74   S    
C53   H2    S    
C110  H91   S    
C38   C57   S    
C108  H84   S    
C6    O14   A    
C88   H38   S    
C93   C94   S    
C127  C128  S    
C34   C54   S    
C120  H115  S    
C89   H39   S    
C85   H30   S    
Cu1   O11   S    
C28   C71   S    
C1    O9    A    
C86   H33   S    
C56   H3    S    
C3    O11   A    
Cu3   O5    S    
C118  H110  S    
C1    C48   S    
C2    C47   S    
C3    C46   S    
C72   O19   S    
C25   C76   S    
C121  H122  S    
C109  H93   S    
C117  H112  S    
C44   C55   S    
C14   C50   T    
C115  H107  S    
Cu2   O2    S    
C107  H88   S    
C39   C60   S    
C21   C74   S    
C79   H15   S    
C80   H17   S    
C128  H134  S    
C103  C104  S    
C1    O1    A    
C98   H61   S    
C30   C61   S    
C119  H118  S    
C99   H65   S    
O17   C77   S    
C54   H1    S    
C38   C62   S    
C97   H59   S    
C127  H138  S    
C125  H133  S    
C31   C43   S    
C9    C61   S    
C11   C63   S    
C42   C53   S    
C117  C118  S    
C12   C64   S    
C96   H57   S    
C23   C117  S    
C4    O12   A    
C29   C101  S    
C112  H94   S    
C93   H49   S    
C59   C67   S    
C105  H82   S    
C77   H9    S    
C53   C61   S    
C94   H52   S    
C55   C63   S    
C56   C64   S    
C25   C71   S    
C109  C110  S    
C97   C98   S    
C129  H143  S    
C130  H140  S    
C123  H127  S    
C124  H126  S    
C91   H45   S    
C128  H135  S    
C23   C70   S    
C106  H79   S    
C33   C66   S    
C125  C126  S    
C4    C45   S    
C14   C66   S    
Cu2   O12   S    
C2    O2    A    
C22   C123  S    
C36   C115  S    
Cu3   O14   S    
C21   C69   S    
C83   H25   S    
C98   H63   S    
C15   C67   S    
C26   C75   S    
C40   O24   S    
C108  H85   S    
C5    O5    A    
C132  H145  S    
Cu4   O7    S    
C7    O15   A    
C28   C127  S    
C33   C109  S    
C82   H21   S    
C92   H47   S    
C41   O25   S    
C81   H20   S    
C29   C41   S    
C7    C50   S    
C32   C107  S    
C111  H97   S    
C3    O3    A    
C129  H142  S    
Cu4   O16   S    
Cu1   O4    S    
C112  H96   S    
C8    O8    A    
O18   C79   S    
C101  H72   S    
C111  C112  S    
C92   H48   S    
O28   C99   S    
C121  H123  S    
C77   H10   S    
C122  H119  S    
C43   C67   S    
C107  C108  S    
C124  H124  S    
C87   H34   S    
C78   H12   S    
C22   C70   S    
C106  H81   S    
C111  H98   S    
C9    C45   T    
C26   C72   S    
C11   C47   T    
C121  C122  S    
C12   C48   T    
C118  H111  S    
C90   H41   S    
Cu1   Cu2   S    
C84   H27   S    
C37   O21   S    
C6    O6    A    
C102  H70   S    
C103  H77   S    
C126  H129  S    
C92   H46   S    
C89   C90   S    
C87   C88   S    
C69   C73   S    
C88   H37   S    
C38   O22   S    
C82   H23   S    
C116  H106  S    
Cu2   N1    S    
C120  H114  S    
C24   C119  S    
C89   H40   S    
C85   C86   S    
Cu1   O10   S    
C10   C62   S    
C21   C121  S    
C86   H32   S    
C31   C105  S    
C131  H147  S    
Cu1   N2    S    
C18   N2    T    
Cu3   O8    S    
C105  C106  S    
C54   C62   S    
C101  C102  S    
C33   C37   S    
C35   C39   S    
C109  H92   S    
C115  C116  S    
C36   C56   S    
C122  H121  S    
C115  H108  S    
Cu2   O3    S    
Cu3   O15   S    
C27   C125  S    
C80   H16   S    
C83   H24   S    
C29   C57   S    
C21   C23   S    
O20   C83   S    
C22   C24   S    
C110  H89   S    
C32   C60   S    
C28   C76   S    
C90   H43   S    
C114  H99   S    
C78   H11   S    
C104  H76   S    
C131  C132  S    
C97   H60   S    
Cu4   O6    S    
C35   C113  S    
C16   C52   T    
C57   C65   S    
C125  H132  S    
Cu4   N3    S    
O22   C87   S    
C96   H56   S    
C26   C131  S    
Cu1   O1    S    
O27   C97   S    
C93   H50   S    
C19   N3    T    
C119  C120  S    
C60   C68   S    
C94   H51   S    
C120  H116  S    
C2    O10   A    
C85   H29   S    
C30   C42   S    
C55   H4    S    
C8    C49   S    
C95   C96   S    
C27   C72   S    
C132  H144  S    
C123  H128  S    
O24   C91   S    
C124  H125  S    
C100  H66   S    
C72   C76   S    
C106  H80   S    
C36   C67   S    
C13   C65   S    
O25   C93   S    
C117  H113  S    
C30   C103  S    
C107  H87   S    
O26   C95   S    
C57   H6    S    
C20   C76   S    
C79   H14   S    
C80   H18   S    
C59   H8    S    
C58   C66   S    
C129  C130  S    
C98   H62   S    
C119  H117  S    
C10   C46   T    
C5    C52   S    
C99   H64   S    
C16   C68   S    
C6    C51   S    
C118  H109  S    
C37   C58   S    
C114  H101  S    
C78   H13   S    
C44   O28   S    
C18   C74   S    
C40   C59   S    
C39   O23   S    
C23   C73   S    
C8    O16   A    
C34   C65   S    
C60   H7    S    
C24   C69   S    
C95   H55   S    
C33   C53   S    
C127  H137  S    
C35   C55   S    
C36   C40   S    
C96   H58   S    
C41   C65   S    
C128  H136  S    
Cu4   O13   S    
C112  H95   S    
C79   C80   S    
C70   O17   S    
C94   H53   S    
C99   C100  S    
C32   C44   S    
C105  H83   S    
C77   C78   S    
Cu3   N4    S    
C13   C49   T    
C113  H103  S    
C130  H139  S    
C122  H120  S    
C91   H44   S    
C100  H68   S    
C87   H35   S    
C44   C68   S    
C116  H104  S    
C58   H5    S    
C29   C62   S    
C34   C38   S    
C31   C64   S    
C32   C63   S    
C71   O20   S    
C37   C61   S    
C113  C114  S    
C25   C27   S    
C39   C63   S    
C84   H26   S    
C25   C129  S    
C26   C28   S    
C40   C64   S    
C19   C75   S    
O21   C85   S    
C71   C75   S    
C102  H71   S    
C24   C74   S    
O19   C81   S    
C103  H78   S    
C35   C68   S    
C30   C58   S    
C69   O18   S    
C126  H130  S    
C41   C54   S    
Cu3   Cu4   S    
C43   C56   S    
C108  H86   S    
C43   O27   S    
C91   C92   S    
C132  H146  S    
C42   C66   S    
C22   C73   S    
C88   H36   S    
C82   H22   S    
