data_mof_unit_57328.cif
_audit_creation_date              2012-10-26T20:12:16-0400
_audit_creation_method            fapswitch 2.2
_symmetry_space_group_name_H-M    P1
_symmetry_Int_Tables_number       1
_space_group_crystal_system       triclinic
_cell_length_a                    13.043915
_cell_length_b                    15.102273
_cell_length_c                    13.856233
_cell_angle_alpha                 89.985925
_cell_angle_beta                  95.530439
_cell_angle_gamma                 90.057909
_cell_volume                      2716.87043268

loop_
_atom_site_label
_atom_site_type_symbol
_atom_type_description
_atom_site_fract_x
_atom_site_fract_y
_atom_site_fract_z
_atom_type_partial_charge
C1    C     C_R   0.498803 0.329786 0.499884 0.546754
C2    C     C_R   0.495495 0.950964 0.503965 0.063101
C3    C     C_R   0.532385 0.577263 0.111231 -0.042252
C4    C     C_R   0.410242 0.471646 0.883698 -0.037461
C5    C     C_R   0.533347 0.573271 0.213213 0.038525
C6    C     C_R   0.415412 0.470096 0.782189 0.044631
C7    C     C_R   0.468393 0.427317 0.205534 0.043034
C8    C     C_R   0.583906 0.528610 0.799153 0.039792
C9    C     C_R   0.469418 0.426560 0.104298 -0.148777
C10   C     C_R   0.584892 0.527636 0.900557 -0.146415
C11   C     C_R   0.499567 0.502157 0.054617 0.003692
C12   C     C_R   0.499697 0.669980 0.500068 0.544102
C13   C     C_R   0.497398 0.500752 0.945140 0.008862
C14   C     C_R   0.301055 0.501785 0.482453 0.548837
C15   C     C_R   0.699247 0.499151 0.517241 0.550199
C16   C     C_R   0.811424 0.503411 0.525162 -0.001740
C17   C     C_R   0.189231 0.500342 0.472812 -0.002518
C18   C     C_R   0.034300 0.438470 0.391676 -0.148020
C19   C     C_R   0.966346 0.567794 0.605238 -0.142648
C20   C     C_R   0.139685 0.449246 0.398597 -0.156288
C21   C     C_R   0.861330 0.552777 0.600924 -0.154151
C22   C     C_R   0.132629 0.544425 0.540133 -0.026635
C23   C     C_R   0.496069 0.233127 0.499646 -0.004154
C24   C     C_R   0.868086 0.465721 0.453482 -0.027768
C25   C     C_R   0.025304 0.530231 0.536042 0.032294
C26   C     C_R   0.975624 0.477544 0.460185 0.030287
C27   C     C_R   0.456878 0.095341 0.577007 -0.159398
C28   C     C_R   0.439533 0.904494 0.428632 -0.115032
C29   C     C_R   0.459169 0.187337 0.577179 -0.142461
C30   C     C_R   0.442267 0.812584 0.426332 -0.154621
C31   C     C_R   0.815531 0.415714 0.370542 0.046005
C32   C     C_R   0.792397 0.325642 0.380177 -0.088624
C33   C     C_R   0.746556 0.278366 0.300603 -0.117739
C34   C     C_R   0.498833 0.766183 0.500783 -0.016993
C35   C     C_R   0.721905 0.321020 0.211833 -0.105810
C36   C     C_R   0.744580 0.410832 0.201945 -0.104347
C37   C     C_R   0.791878 0.458053 0.280824 -0.069405
C38   C     C_R   0.185195 0.609979 0.608306 0.037618
C39   C     C_R   0.200098 0.592838 0.708332 -0.092906
C40   C     C_R   0.252150 0.654266 0.770802 -0.105332
C41   C     C_R   0.290477 0.732419 0.733930 -0.092879
C42   C     C_R   0.276549 0.749617 0.634503 -0.098271
C43   C     C_R   0.224249 0.688651 0.571779 -0.078414
C44   C     C_R   0.564231 0.661119 0.067088 0.010855
C45   C     C_R   0.529741 0.186062 0.421546 -0.133164
C46   C     C_R   0.661357 0.697891 0.096121 -0.111786
C47   C     C_R   0.692282 0.776582 0.054304 -0.109339
C48   C     C_R   0.626455 0.819372 0.983642 -0.099201
C49   C     C_R   0.529409 0.783740 0.954955 -0.107362
C50   C     C_R   0.498065 0.705102 0.996626 -0.081739
C51   C     C_R   0.311982 0.445174 0.921740 0.005743
C52   C     C_R   0.264335 0.364685 0.892526 -0.115821
C53   C     C_R   0.171268 0.339916 0.927141 -0.112437
C54   C     C_R   0.124729 0.395249 0.990880 -0.105580
C55   C     C_R   0.171031 0.475584 0.019917 -0.113522
C56   C     C_R   0.553714 0.811926 0.577006 -0.081961
C57   C     C_R   0.263968 0.500703 0.985362 -0.091156
C58   C     C_R   0.530913 0.093607 0.422459 0.098860
C59   C     C_R   0.553956 0.904109 0.578606 0.098150
C60   C     C_R   0.494841 0.048025 0.501136 0.066753
Cu1   Cu    Cu3+1 0.500000 0.499990 0.596430 0.942251
Cu2   Cu    Cu3+1 0.500000 0.500010 0.403570 0.940177
H1    H     H_    0.442524 0.368956 0.241251 0.124126
H2    H     H_    0.394328 0.939668 0.371155 0.126868
H3    H     H_    0.430691 0.222651 0.637176 0.126149
H4    H     H_    0.398835 0.777675 0.367506 0.122756
H5    H     H_    0.556567 0.220898 0.360528 0.121866
H6    H     H_    0.598494 0.775950 0.634192 0.140230
H7    H     H_    0.559673 0.630123 0.256042 0.134025
H8    H     H_    0.349927 0.446457 0.735622 0.128661
H9    H     H_    0.811007 0.292055 0.448681 0.101267
H10   H     H_    0.730365 0.208566 0.307661 0.092898
H11   H     H_    0.685618 0.284409 0.150626 0.101175
H12   H     H_    0.651219 0.551985 0.767096 0.122027
H13   H     H_    0.725784 0.443783 0.133134 0.104943
H14   H     H_    0.809726 0.527517 0.272367 0.096294
H15   H     H_    0.171672 0.532040 0.737617 0.108076
H16   H     H_    0.263041 0.641360 0.847787 0.099997
H17   H     H_    0.330767 0.779743 0.782393 0.095030
H18   H     H_    0.306384 0.810151 0.606030 0.109256
H19   H     H_    0.214495 0.702463 0.494726 0.093909
H20   H     H_    0.646835 0.065331 0.340884 0.223051
H21   H     H_    0.528184 0.065043 0.279851 0.219565
H22   H     H_    0.665544 0.992915 0.622360 0.242996
H23   H     H_    0.446062 0.366881 0.064816 0.108593
H24   H     H_    0.570819 0.982870 0.697759 0.222351
H25   H     H_    0.713511 0.665064 0.150271 0.091692
H26   H     H_    0.767399 0.804302 0.076556 0.105577
H27   H     H_    0.650557 0.880230 0.951243 0.111367
H28   H     H_    0.478458 0.817241 0.900548 0.098749
H29   H     H_    0.422467 0.678634 0.973942 0.096618
H30   H     H_    0.299652 0.320753 0.843597 0.092996
H31   H     H_    0.135269 0.277718 0.904603 0.105069
H32   H     H_    0.052720 0.375938 0.017659 0.104631
H33   H     H_    0.134769 0.518548 0.069070 0.104898
H34   H     H_    0.654127 0.548355 0.944093 0.105739
H35   H     H_    0.298075 0.563556 0.008042 0.100429
H36   H     H_    0.818063 0.583369 0.654965 0.119749
H37   H     H_    0.183144 0.415521 0.346788 0.129204
H38   H     H_    0.999935 0.397503 0.333160 0.123517
H39   H     H_    0.000197 0.609244 0.663386 0.122477
H40   H     H_    0.425428 0.060996 0.636139 0.101517
N1    N     N_R   0.500000 0.500020 0.258690 -0.226859
N2    N     N_R   0.500000 0.499980 0.741310 -0.227696
N3    N     N_3   0.570329 0.046079 0.344554 -0.637678
N4    N     N_3   0.617643 0.948070 0.654004 -0.649271
O1    O     O_R   0.500010 0.371450 0.581430 -0.501413
O2    O     O_R   0.499990 0.628550 0.418570 -0.515279
O3    O     O_R   0.500010 0.371460 0.418560 -0.512426
O4    O     O_R   0.499990 0.628540 0.581440 -0.493296
O5    O     O_R   0.349000 0.499980 0.568210 -0.503314
O6    O     O_R   0.651000 0.500020 0.431790 -0.486284
O7    O     O_R   0.349000 0.499990 0.405340 -0.504988
O8    O     O_R   0.651000 0.500010 0.594660 -0.518226

loop_
_geom_bond_atom_site_label_1
_geom_bond_atom_site_label_2
_ccdc_geom_bond_type
C5    N1    A    
C34   C56   A    
C16   C21   A    
C23   C45   A    
C27   C29   A    
C19   H39   S    
C41   C42   A    
C35   C36   A    
C18   C26   A    
C49   H28   S    
C12   O4    A    
C53   C54   A    
C42   H18   S    
C20   H37   S    
C23   C29   A    
C36   C37   A    
C19   C21   A    
C24   C26   A    
Cu2   N1    S    
C27   C60   A    
C38   C39   A    
C2    C60   S    
Cu2   O2    S    
C58   C60   A    
C15   C16   S    
C22   C38   S    
C17   C20   A    
C6    H8    S    
H20   N3    S    
C4    C13   A    
C5    H7    S    
C33   H10   S    
C9    H23   S    
C46   C47   A    
C31   C32   A    
C22   C25   A    
C45   H5    S    
H22   N4    S    
C51   C57   A    
C6    N2    A    
C1    O3    A    
C16   C24   A    
C7    N1    A    
C14   C17   S    
H24   N4    S    
C18   H38   S    
Cu1   O1    S    
Cu1   O4    S    
C44   C46   A    
C32   H9    S    
C14   O5    A    
C45   C58   A    
C3    C44   S    
C59   N4    S    
C30   C34   A    
C4    C51   S    
C53   H31   S    
C51   C52   A    
Cu1   N2    S    
Cu2   O7    S    
C55   H33   S    
C39   C40   A    
C12   O2    A    
C40   C41   A    
C2    C59   A    
C25   C26   A    
C56   H6    S    
C31   C37   A    
C36   H13   S    
C8    N2    A    
C47   C48   A    
C10   H34   S    
C57   H35   S    
C8    H12   S    
C15   O8    A    
C9    C11   A    
C7    H1    S    
C30   H4    S    
C1    O1    A    
C29   H3    S    
C28   H2    S    
C4    C6    A    
C48   C49   A    
C37   H14   S    
C1    C23   S    
C48   H27   S    
C55   C57   A    
C43   H19   S    
C40   H16   S    
C52   H30   S    
C42   C43   A    
C12   C34   S    
Cu1   O5    S    
C39   H15   S    
C52   C53   A    
C46   H25   S    
C44   C50   A    
C7    C9    A    
C54   C55   A    
C35   H11   S    
C15   O6    A    
C3    C5    A    
C10   C13   A    
C41   H17   S    
C14   O7    A    
C27   H40   S    
C17   C22   A    
C56   C59   A    
C58   N3    S    
C32   C33   A    
C28   C30   A    
C24   C31   S    
C38   C43   A    
C47   H26   S    
C21   H36   S    
C11   C13   S    
Cu2   O3    S    
C33   C35   A    
C18   C20   A    
Cu1   Cu2   S    
C19   C25   A    
C54   H32   S    
C3    C11   A    
H21   N3    S    
C50   H29   S    
Cu2   O6    S    
C8    C10   A    
C49   C50   A    
Cu1   O8    S    
C2    C28   A    
