data_mof_unit_21307.cif
_audit_creation_date              2012-12-11T14:49:40-0500
_audit_creation_method            fapswitch 2.2
_symmetry_space_group_name_H-M    P1
_symmetry_Int_Tables_number       1
_space_group_crystal_system       triclinic
_cell_length_a                    16.92195
_cell_length_b                    7.01646
_cell_length_c                    16.768964
_cell_angle_alpha                 89.999842
_cell_angle_beta                  100.894443
_cell_angle_gamma                 90.000109
_cell_volume                      1955.13175986

loop_
_atom_site_label
_atom_site_type_symbol
_atom_type_description
_atom_site_fract_x
_atom_site_fract_y
_atom_site_fract_z
_atom_type_partial_charge
O1    O     O_R   0.579510 0.506290 0.439030 -0.521841
O2    O     O_R   0.420490 0.006290 0.560970 -0.521793
O3    O     O_R   0.412540 0.170090 0.405290 -0.530468
O4    O     O_R   0.587460 0.670090 0.594710 -0.530501
C1    C     C_R   0.384575 0.345338 0.382523 0.730494
C2    C     C_R   0.615425 0.845338 0.617477 0.730458
O5    O     O_R   0.578390 0.176230 0.429330 -0.544543
O6    O     O_R   0.421610 0.676230 0.570670 -0.544585
O7    O     O_R   0.587530 0.011250 0.585190 -0.547192
O8    O     O_R   0.412470 0.511250 0.414810 -0.547200
C3    C     C_R   0.604863 0.343625 0.413486 0.708099
C4    C     C_R   0.395137 0.843625 0.586514 0.708193
O9    O     O_3   0.502800 0.340940 0.551110 -0.371104
O10   O     O_3   0.497200 0.840940 0.448890 -0.371088
V1    V     V_3+5 0.499480 0.064020 0.490520 1.471129
V2    V     V_3+5 0.500520 0.564020 0.509480 1.471005
C5    C     C_R   0.166803 0.927495 0.860789 -0.070551
C6    C     C_R   0.833196 0.427493 0.139209 -0.070546
C7    C     C_R   0.333303 0.839894 0.639249 -0.075891
C8    C     C_R   0.666697 0.339894 0.360750 -0.076135
C9    C     C_R   0.234872 0.652896 0.696067 -0.160464
C10   C     C_R   0.765132 0.152902 0.303937 -0.160423
C11   C     C_R   0.287047 0.673147 0.641262 -0.109342
C12   C     C_R   0.712955 0.173150 0.358740 -0.109296
C13   C     C_R   0.324515 0.989269 0.692725 -0.255250
C14   C     C_R   0.675481 0.489265 0.307271 -0.255226
C15   C     C_R   0.272329 0.969007 0.748832 0.167427
C16   C     C_R   0.727667 0.469003 0.251164 0.167460
C17   C     C_R   0.227462 0.798930 0.750908 0.148710
C18   C     C_R   0.772539 0.298932 0.249093 0.148670
C19   C     C_R   0.175458 0.778384 0.807157 -0.218448
C20   C     C_R   0.824545 0.278387 0.192846 -0.218447
C21   C     C_R   0.212862 0.094686 0.858658 -0.160196
C22   C     C_R   0.787132 0.594676 0.141335 -0.160209
C23   C     C_R   0.264849 0.115129 0.803630 -0.190784
C24   C     C_R   0.735143 0.615119 0.196361 -0.190760
H1    H     H_    0.140009 0.649727 0.807315 0.131979
H2    H     H_    0.859998 0.149736 0.192692 0.131982
H3    H     H_    0.207948 0.212319 0.899284 0.122245
H4    H     H_    0.792042 0.712302 0.100705 0.122242
H5    H     H_    0.200993 0.521799 0.696069 0.144887
H6    H     H_    0.799013 0.021807 0.303938 0.144929
H7    H     H_    0.298653 0.246300 0.803514 0.112325
H8    H     H_    0.701335 0.746283 0.196473 0.112330
H9    H     H_    0.292066 0.555654 0.600814 0.182053
H10   H     H_    0.707937 0.055657 0.399189 0.182259
C25   C     C_3   0.788456 0.691790 0.795391 -0.286478
C26   C     C_3   0.211549 0.191791 0.204604 -0.286493
H11   H     H_    0.839810 0.611444 0.778980 0.179133
H12   H     H_    0.160196 0.111431 0.221012 0.179131
H13   H     H_    0.775020 0.626393 0.851838 0.128984
H14   H     H_    0.224988 0.126406 0.148155 0.128985
C27   C     C_3   0.714033 0.667613 0.726784 -0.305121
C28   C     C_3   0.285972 0.167613 0.273211 -0.305104
H15   H     H_    0.727469 0.563912 0.681112 0.199955
H16   H     H_    0.272537 0.063905 0.318881 0.199982
H17   H     H_    0.889490 0.919161 0.720417 0.194954
H18   H     H_    0.110508 0.419132 0.279583 0.194949
C29   C     C_3   0.833277 0.987555 0.731529 -0.343998
C30   C     C_3   0.166720 0.487536 0.268473 -0.343988
C31   C     C_3   0.737235 0.013222 0.827955 -0.337970
C32   C     C_3   0.262763 0.513238 0.172049 -0.337969
C33   C     C_3   0.812377 0.906359 0.810932 0.030780
C34   C     C_3   0.187622 0.406359 0.189069 0.030781
H19   H     H_    0.719757 0.955175 0.883893 0.138407
H20   H     H_    0.280242 0.455204 0.116109 0.138408
C35   C     C_3   0.687979 0.862538 0.686998 -0.017196
C36   C     C_3   0.312021 0.362536 0.313002 -0.017201
C37   C     C_3   0.762013 0.957787 0.658180 0.363513
C38   C     C_3   0.237984 0.457765 0.341822 0.363480
C39   C     C_3   0.665612 0.992093 0.755166 -0.415066
C40   C     C_3   0.334385 0.492108 0.244838 -0.415068
H21   H     H_    0.612802 0.931541 0.777100 0.144852
H22   H     H_    0.387196 0.431569 0.222902 0.144855
H23   H     H_    0.647746 0.136250 0.730464 0.149794
H24   H     H_    0.352247 0.636264 0.269543 0.149802
H25   H     H_    0.742832 0.101104 0.633304 0.066548
H26   H     H_    0.257162 0.601081 0.366703 0.066566
O11   O     O_R   0.087500 0.266000 0.085220 -0.543155
O12   O     O_R   0.912500 0.766000 0.914780 -0.543156
O13   O     O_R   0.921600 0.589950 0.070670 -0.539538
O14   O     O_R   0.078400 0.089950 0.929330 -0.539540
C41   C     C_R   0.894873 0.423235 0.086319 0.699930
C42   C     C_R   0.105126 0.923236 0.913680 0.699929
O15   O     O_R   0.087460 0.596020 0.094710 -0.538149
O16   O     O_R   0.912540 0.096020 0.905290 -0.538149
O17   O     O_R   0.079520 0.760970 0.939020 -0.538051
O18   O     O_R   0.920480 0.260970 0.060980 -0.538051
C43   C     C_R   0.116390 0.425778 0.117923 0.674159
C44   C     C_R   0.883610 0.925778 0.882077 0.674159
O19   O     O_3   0.997180 0.425140 0.948910 -0.367844
O20   O     O_3   0.002820 0.925140 0.051090 -0.367843
V3    V     V_3+5 0.000520 0.702080 0.009480 1.403587
V4    V     V_3+5 0.999480 0.202080 0.990520 1.403585
S1    S     S_3+6 0.796384 0.831637 0.577045 -0.017965
O21   O     O_2   0.852069 0.960230 0.541903 -0.302525
O22   O     O_2   0.841328 0.654299 0.609050 -0.331936
O23   O     O_3   0.718823 0.771539 0.503094 -0.531362
H27   H     H_    0.743720 0.706748 0.461534 0.358560
S2    S     S_3+6 0.203615 0.331590 0.422953 -0.017920
O24   O     O_2   0.147936 0.460186 0.458102 -0.302630
O25   O     O_2   0.158665 0.154265 0.390943 -0.331811
O26   O     O_3   0.281176 0.271458 0.496898 -0.531300
H28   H     H_    0.256255 0.207326 0.538601 0.358484
H29   H     H_    0.751341 0.167005 0.839001 0.142862
H30   H     H_    0.248653 0.667021 0.161007 0.142865
H31   H     H_    0.846522 0.142598 0.739154 0.130208
H32   H     H_    0.153472 0.642580 0.260853 0.130218
H33   H     H_    0.359986 0.117885 0.692551 0.123260
H34   H     H_    0.640008 0.617878 0.307441 0.123313
H35   H     H_    0.663698 0.605618 0.752496 0.123508
H36   H     H_    0.336309 0.105631 0.247500 0.123500

loop_
_geom_bond_atom_site_label_1
_geom_bond_atom_site_label_2
_ccdc_geom_bond_type
C39   H23   S    
C11   H9    S    
C15   C17   A    
C37   H25   S    
S1    O21   D    
O1    C3    A    
C42   O17   A    
C40   H24   S    
O2    C4    A    
C2    O7    A    
S1    O23   S    
C25   H11   S    
O5    C3    A    
C21   H3    S    
O14   V4    S    
C10   C12   A    
C25   C33   S    
C26   C34   S    
C38   H26   S    
H18   C30   S    
C4    C7    S    
C31   C33   S    
O20   V3    S    
C32   C34   S    
O16   V4    S    
C21   C23   A    
O15   V3    S    
C37   S1    S    
C8    C12   A    
C20   H2    S    
C23   H7    S    
C14   H34   S    
C22   C24   A    
C30   H32   S    
C13   H33   S    
C25   C27   S    
C27   H35   S    
C26   H12   S    
C41   O18   A    
O6    V2    S    
C5    C21   A    
C34   C43   S    
C1    C36   S    
C7    C13   A    
S2    O25   D    
O13   C41   A    
C38   S2    S    
O18   V4    S    
C27   H15   S    
C28   H16   S    
C3    C8    S    
C32   H20   S    
C28   H36   S    
O11   V4    S    
C40   H22   S    
O16   C44   A    
C39   H21   S    
O15   C43   A    
C7    C11   A    
C25   H13   S    
C15   C23   A    
C9    C17   A    
S2    O26   S    
C29   H31   S    
C19   H1    S    
C36   C40   S    
C35   C37   S    
O4    V2    S    
C26   C28   S    
O19   V3    S    
O13   V3    S    
C30   C38   S    
O6    C4    A    
O20   V4    S    
C6    C41   S    
C32   C40   S    
O1    V2    S    
O2    V1    S    
C6    C22   A    
C29   C37   S    
C9    H5    S    
O4    C2    A    
C2    C35   S    
O14   C42   A    
C9    C11   A    
C5    C19   A    
C22   H4    S    
C24   H8    S    
C6    C20   A    
O3    V1    S    
C10   C18   A    
C14   C16   A    
O3    C1    A    
S1    O22   D    
C32   H30   S    
C13   C15   A    
C29   C33   S    
C30   C34   S    
C5    C42   S    
C12   H10   S    
C16   C18   A    
O7    V1    S    
C1    O8    A    
C17   C19   A    
O8    V2    S    
O19   V4    S    
C18   C20   A    
C31   C39   S    
C10   H6    S    
C8    C14   A    
O17   V3    S    
C33   C44   S    
O5    V1    S    
S2    O24   D    
C31   H29   S    
C35   C39   S    
O12   C44   A    
C27   C35   S    
O11   C43   A    
H17   C29   S    
C31   H19   S    
C26   H14   S    
C28   C36   S    
C16   C24   A    
C36   C38   S    
O23   H27   S    
O9    V2    S    
O26   H28   S    
O10   V1    S    
O12   V3    S    
