data_mof_unit_62259.cif
_audit_creation_date              2013-03-05T16:08:37-0500
_audit_creation_method            fapswitch 2.2
_symmetry_space_group_name_H-M    P1
_symmetry_Int_Tables_number       1
_space_group_crystal_system       triclinic
_cell_length_a                    21.319256
_cell_length_b                    21.314475
_cell_length_c                    55.604151
_cell_angle_alpha                 89.976357
_cell_angle_beta                  89.901073
_cell_angle_gamma                 90.259577
_cell_volume                      25266.7134966

loop_
_atom_site_label
_atom_site_type_symbol
_atom_site_description
_atom_site_fract_x
_atom_site_fract_y
_atom_site_fract_z
_atom_type_partial_charge
O1    O     O_R   0.093040 0.000030 0.479890 -0.612858
O2    O     O_R   0.999970 0.093040 0.479890 -0.609512
O3    O     O_R   0.906960 0.999970 0.479890 -0.612788
O4    O     O_R   0.000030 0.906960 0.479890 -0.609428
O5    O     O_R   0.593040 0.500030 0.979890 -0.607819
O6    O     O_R   0.499970 0.593040 0.979890 -0.607368
O7    O     O_R   0.406960 0.499970 0.979890 -0.607634
O8    O     O_R   0.500030 0.406960 0.979890 -0.607983
O9    O     O_R   0.093010 0.000060 0.520110 -0.623382
O10   O     O_R   0.999940 0.093010 0.520110 -0.625315
O11   O     O_R   0.906990 0.999940 0.520110 -0.622375
O12   O     O_R   0.000060 0.906990 0.520110 -0.625408
O13   O     O_R   0.593010 0.500060 0.020110 -0.626197
O14   O     O_R   0.499940 0.593010 0.020110 -0.626390
O15   O     O_R   0.406990 0.499940 0.020110 -0.626350
O16   O     O_R   0.500060 0.406990 0.020110 -0.626042
C1    C     C_R   0.121630 0.000165 0.499970 0.885239
C2    C     C_R   0.999498 0.121642 0.499989 0.886610
C3    C     C_R   0.878372 0.999804 0.500004 0.887490
C4    C     C_R   0.000502 0.878358 0.499997 0.886997
C5    C     C_R   0.621648 0.500354 0.999975 0.883579
C6    C     C_R   0.499491 0.621645 0.999985 0.882701
C7    C     C_R   0.378352 0.499646 0.000010 0.883387
C8    C     C_R   0.500518 0.378358 0.999996 0.883318
H1    H     H_    0.346942 0.959226 0.311681 0.237945
H2    H     H_    0.087912 0.369147 0.310475 0.234592
H3    H     H_    0.610440 0.131446 0.310655 0.238411
H4    H     H_    0.912951 0.630906 0.310560 0.235515
H5    H     H_    0.868875 0.411454 0.810650 0.236433
H6    H     H_    0.619621 0.883541 0.809618 0.235658
H7    H     H_    0.130520 0.588904 0.810386 0.236395
H8    H     H_    0.393912 0.102829 0.811574 0.237071
C9    C     C_R   0.503696 0.000084 0.426404 -0.355920
C10   C     C_R   0.000172 0.499980 0.426614 -0.345493
C11   C     C_R   0.999964 0.500042 0.926614 -0.346127
C12   C     C_R   0.500312 0.999483 0.926573 -0.343868
Zn1   Zn    Zn3+2 0.000000 0.000000 0.473150 1.060554
Zn2   Zn    Zn3+2 0.500000 0.500000 0.973150 1.075814
Zn3   Zn    Zn3+2 0.000000 1.000000 0.526860 0.986845
Zn4   Zn    Zn3+2 0.500000 0.500000 0.026860 0.979138
C13   C     C_R   0.943240 0.506997 0.611175 -0.089638
C14   C     C_R   0.502321 0.942601 0.611159 -0.091418
C15   C     C_R   0.056097 0.493242 0.611177 -0.089881
C16   C     C_R   0.501379 0.056358 0.611308 -0.090094
C17   C     C_R   0.441269 0.013794 0.111052 -0.093777
C18   C     C_R   0.992876 0.443464 0.111183 -0.091019
C19   C     C_R   0.554089 0.000906 0.111926 -0.087471
C20   C     C_R   0.007298 0.556391 0.111167 -0.091450
N1    N     N_R   0.490577 0.029659 0.351077 -0.316260
N2    N     N_R   0.000421 0.500009 0.350512 -0.318292
N3    N     N_R   0.999813 0.500105 0.850513 -0.318932
N4    N     N_R   0.507598 0.991839 0.850591 -0.324469
C21   C     C_R   0.999831 0.500034 0.573440 -0.041950
C22   C     C_R   0.500579 0.999830 0.573477 -0.046689
C23   C     C_R   0.499195 0.002346 0.073654 -0.044077
C24   C     C_R   0.000028 0.499962 0.073440 -0.041073
C25   C     C_3   0.059227 0.229146 0.500739 -0.218164
C26   C     C_3   0.771490 0.042010 0.516503 -0.229235
C27   C     C_3   0.940764 0.770853 0.500730 -0.217470
C28   C     C_3   0.228411 0.960230 0.517224 -0.226049
C29   C     C_3   0.559050 0.729160 0.001755 -0.209876
C30   C     C_3   0.271483 0.559744 0.001005 -0.216329
C31   C     C_3   0.440844 0.270860 0.001309 -0.216413
C32   C     C_3   0.728506 0.440273 0.001076 -0.216668
C33   C     C_3   0.027337 0.270747 0.520054 -0.193772
C34   C     C_3   0.729216 0.984240 0.521955 -0.191242
C35   C     C_3   0.972414 0.729198 0.520058 -0.194341
C36   C     C_3   0.270612 0.018670 0.521492 -0.183498
C37   C     C_3   0.524887 0.770774 0.020479 -0.184079
C38   C     C_3   0.229410 0.527513 0.020204 -0.193491
C39   C     C_3   0.473772 0.229194 0.020313 -0.193086
C40   C     C_3   0.770375 0.472806 0.020198 -0.193441
H9    H     H_    0.049869 0.289552 0.536547 0.163726
H10   H     H_    0.710353 0.970761 0.539857 0.164450
H11   H     H_    0.949679 0.710347 0.536538 0.163987
H12   H     H_    0.289323 0.034571 0.539096 0.163393
H13   H     H_    0.545412 0.789598 0.037350 0.160789
H14   H     H_    0.210734 0.549744 0.036771 0.162371
H15   H     H_    0.452149 0.210337 0.037010 0.162109
H16   H     H_    0.788872 0.450841 0.036830 0.162433
H17   H     H_    0.107869 0.210776 0.501097 0.156874
H18   H     H_    0.790210 0.076314 0.529719 0.173608
H19   H     H_    0.892118 0.789225 0.501067 0.157674
H20   H     H_    0.209630 0.927746 0.531120 0.173876
H21   H     H_    0.607598 0.710805 0.002971 0.160626
H22   H     H_    0.290361 0.608358 0.001537 0.161496
H23   H     H_    0.392234 0.289225 0.002125 0.161609
H24   H     H_    0.709623 0.391668 0.001730 0.161387
C41   C     C_3   0.999442 0.310897 0.499845 -0.090866
C42   C     C_3   0.689152 0.000886 0.499970 -0.087625
C43   C     C_3   0.000558 0.689103 0.499859 -0.091558
C44   C     C_3   0.310854 0.999080 0.499872 -0.089311
C45   C     C_3   0.499439 0.810906 0.999791 -0.087423
C46   C     C_3   0.189114 0.500100 0.999888 -0.084987
C47   C     C_3   0.500549 0.189101 0.999841 -0.086031
C48   C     C_3   0.810887 0.499898 0.999823 -0.084914
C49   C     C_3   0.030309 0.269834 0.480980 0.357141
C50   C     C_3   0.730994 0.057145 0.494588 0.345386
C51   C     C_3   0.969924 0.730219 0.480982 0.356800
C52   C     C_3   0.269066 0.942152 0.495639 0.340563
C53   C     C_3   0.532525 0.769833 0.981494 0.347213
C54   C     C_3   0.230606 0.531297 0.981137 0.357546
C55   C     C_3   0.468666 0.230230 0.981275 0.356044
C56   C     C_3   0.769593 0.468407 0.981142 0.357448
C57   C     C_3   0.971220 0.228841 0.479596 -0.163770
C58   C     C_3   0.771311 0.016905 0.477857 -0.162878
C59   C     C_3   0.029032 0.771212 0.479631 -0.164276
C60   C     C_3   0.228852 0.980045 0.478120 -0.179308
C61   C     C_3   0.473682 0.728841 0.979081 -0.172240
C62   C     C_3   0.270984 0.472174 0.979549 -0.168005
C63   C     C_3   0.527667 0.271211 0.979348 -0.168161
C64   C     C_3   0.729222 0.527503 0.979386 -0.167071
C65   C     C_3   0.939735 0.270312 0.499011 -0.167472
C66   C     C_3   0.729164 0.959326 0.483482 -0.143695
C67   C     C_3   0.060276 0.729690 0.499058 -0.166733
C68   C     C_3   0.270970 0.038323 0.482565 -0.163873
C69   C     C_3   0.439900 0.770319 0.997917 -0.185873
C70   C     C_3   0.229104 0.440347 0.998848 -0.179714
C71   C     C_3   0.560201 0.229682 0.998457 -0.179550
C72   C     C_3   0.770909 0.559634 0.998611 -0.178484
C73   C     C_3   0.967575 0.229214 0.519269 -0.144921
C74   C     C_3   0.770266 0.942561 0.505497 -0.136766
C75   C     C_3   0.032186 0.770734 0.519306 -0.144184
C76   C     C_3   0.229689 0.058043 0.504215 -0.125836
C77   C     C_3   0.465280 0.729231 0.018651 -0.146393
C78   C     C_3   0.270331 0.467697 0.019209 -0.149338
C79   C     C_3   0.533485 0.270729 0.018975 -0.148819
C80   C     C_3   0.729475 0.532605 0.019034 -0.149549
C81   C     C_3   0.999299 0.189073 0.499908 -0.070564
C82   C     C_3   0.810986 0.000247 0.499960 -0.075588
C83   C     C_3   0.000703 0.810928 0.499932 -0.070682
C84   C     C_3   0.189019 0.999675 0.499862 -0.067713
C85   C     C_3   0.499295 0.689080 0.999880 -0.065853
C86   C     C_3   0.310922 0.499749 0.999965 -0.067510
C87   C     C_3   0.500714 0.310928 0.999924 -0.067419
C88   C     C_3   0.689078 0.500250 0.999866 -0.067942
H25   H     H_    0.891016 0.288414 0.498400 0.202263
H26   H     H_    0.710302 0.925547 0.470101 0.192795
H27   H     H_    0.109002 0.711589 0.498469 0.202761
H28   H     H_    0.289948 0.070252 0.468522 0.184721
H29   H     H_    0.391313 0.788426 0.996440 0.195028
H30   H     H_    0.210553 0.391638 0.998058 0.194240
H31   H     H_    0.608868 0.211570 0.997382 0.194167
H32   H     H_    0.789470 0.608328 0.997697 0.194774
C89   C     C_R   0.504499 0.009351 0.375955 -0.023343
C90   C     C_R   0.000370 0.499972 0.376257 -0.012537
C91   C     C_R   0.999868 0.500084 0.876258 -0.013387
C92   C     C_R   0.508132 0.991568 0.876343 -0.014106
O17   O     O_2   0.558821 0.117973 0.350795 -0.480823
O18   O     O_2   0.935673 0.588973 0.351068 -0.483745
O19   O     O_2   0.385136 0.994139 0.351820 -0.493119
O20   O     O_2   0.065187 0.411058 0.351003 -0.485959
O21   O     O_2   0.088707 0.565742 0.850946 -0.480756
O22   O     O_2   0.425634 0.065160 0.851754 -0.486260
O23   O     O_2   0.910921 0.434466 0.851124 -0.480678
O24   O     O_2   0.589546 0.918460 0.850472 -0.466122
C93   C     C_R   0.470596 0.959792 0.387394 0.240966
C94   C     C_R   0.961044 0.457881 0.388748 0.244915
C95   C     C_R   0.554934 0.035046 0.389513 0.243443
C96   C     C_R   0.039612 0.542054 0.388726 0.245212
C97   C     C_R   0.957731 0.538894 0.888776 0.246092
C98   C     C_R   0.466565 0.951761 0.888905 0.255358
C99   C     C_R   0.042057 0.461256 0.888700 0.246192
C100  C     C_R   0.544817 0.036204 0.888683 0.241995
C101  C     C_R   0.999616 0.500155 0.623750 0.294926
C102  C     C_R   0.502333 0.999351 0.623793 0.297455
C103  C     C_R   0.497130 0.009210 0.124151 0.292982
C104  C     C_R   0.000106 0.499917 0.123750 0.296321
C105  C     C_R   0.943262 0.506794 0.586147 -0.205599
C106  C     C_R   0.501439 0.942765 0.586132 -0.198572
C107  C     C_R   0.056289 0.493325 0.586150 -0.205335
C108  C     C_R   0.500521 0.056668 0.586269 -0.200037
C109  C     C_R   0.442208 0.010200 0.086029 -0.205529
C110  C     C_R   0.992987 0.443402 0.086155 -0.207854
C111  C     C_R   0.555179 0.997641 0.086835 -0.207606
C112  C     C_R   0.007108 0.556499 0.086140 -0.207737
O25   O     O_R   0.947490 0.500060 0.535600 -0.632669
O26   O     O_R   0.499940 0.947490 0.535600 -0.625366
O27   O     O_R   0.052510 0.499940 0.535600 -0.632408
O28   O     O_R   0.500060 0.052510 0.535600 -0.626014
O29   O     O_R   0.447490 0.000060 0.035600 -0.631681
O30   O     O_R   0.999940 0.447490 0.035600 -0.633272
O31   O     O_R   0.552510 0.999940 0.035600 -0.630309
O32   O     O_R   0.000060 0.552510 0.035600 -0.633230
C113  C     C_R   0.999949 0.500002 0.547065 0.839219
C114  C     C_R   0.500061 0.999976 0.547080 0.842738
C115  C     C_R   0.499888 0.000272 0.047142 0.838403
C116  C     C_R   0.000000 0.499988 0.047066 0.839483
O33   O     O_R   0.947490 0.407010 0.499980 -0.610308
O34   O     O_R   0.592990 0.947490 0.499980 -0.632291
O35   O     O_R   0.052510 0.592990 0.499980 -0.610092
O36   O     O_R   0.407010 0.052510 0.499980 -0.632946
O37   O     O_R   0.447490 0.907010 0.999980 -0.618313
O38   O     O_R   0.092990 0.447490 0.999980 -0.612128
O39   O     O_R   0.552510 0.092990 0.999980 -0.612229
O40   O     O_R   0.907010 0.552510 0.999980 -0.612076
O41   O     O_R   0.052520 0.407020 0.499960 -0.598046
O42   O     O_R   0.592980 0.052520 0.499960 -0.561949
O43   O     O_R   0.947480 0.592980 0.499960 -0.597989
O44   O     O_R   0.407020 0.947480 0.499960 -0.561745
O45   O     O_R   0.552520 0.907020 0.999960 -0.593164
O46   O     O_R   0.092980 0.552520 0.999960 -0.598067
O47   O     O_R   0.447480 0.092980 0.999960 -0.595316
O48   O     O_R   0.907020 0.447480 0.999960 -0.598059
C117  C     C_R   0.999860 0.378399 0.499844 0.919880
C118  C     C_R   0.621624 0.000247 0.499971 0.913887
C119  C     C_R   0.000141 0.621601 0.499848 0.920081
C120  C     C_R   0.378377 0.999745 0.499896 0.890684
C121  C     C_R   0.499859 0.878402 0.999794 0.892404
C122  C     C_R   0.121609 0.500098 0.999858 0.919692
C123  C     C_R   0.500139 0.121601 0.999836 0.920501
C124  C     C_R   0.878392 0.499901 0.999838 0.919731
Zn5   Zn    Zn3+2 0.929870 0.500030 0.499980 1.089993
Zn6   Zn    Zn3+2 0.499970 0.929870 0.499980 1.107516
Zn7   Zn    Zn3+2 0.070130 0.499970 0.499980 1.089996
Zn8   Zn    Zn3+2 0.500030 0.070130 0.499980 1.094973
Zn9   Zn    Zn3+2 0.429870 0.000030 0.999980 1.091712
Zn10  Zn    Zn3+2 0.999970 0.429870 0.999980 1.084701
Zn11  Zn    Zn3+2 0.570130 0.999970 0.999980 1.084073
Zn12  Zn    Zn3+2 0.000030 0.570130 0.999980 1.084693
O49   O     O_R   0.947480 0.500000 0.464360 -0.573513
O50   O     O_R   0.500000 0.947480 0.464360 -0.574735
O51   O     O_R   0.052520 0.500000 0.464360 -0.573904
O52   O     O_R   0.500000 0.052520 0.464360 -0.589520
O53   O     O_R   0.447480 1.000000 0.964360 -0.560725
O54   O     O_R   0.000000 0.447480 0.964360 -0.573818
O55   O     O_R   0.552520 1.000000 0.964360 -0.577022
O56   O     O_R   0.000000 0.552520 0.964360 -0.573917
C125  C     C_R   0.000051 0.499997 0.452968 1.042586
C126  C     C_R   0.499960 0.999997 0.452883 1.007708
C127  C     C_R   0.500017 0.999831 0.952952 1.012404
C128  C     C_R   0.999997 0.500012 0.952967 1.044295
C129  C     C_R   0.036444 0.544590 0.737338 0.063102
C130  C     C_R   0.454630 0.023095 0.737754 0.062982
C131  C     C_R   0.962592 0.455951 0.737412 0.063129
C132  C     C_R   0.555766 0.968579 0.737075 0.062801
C133  C     C_R   0.523735 0.075064 0.237128 0.061203
C134  C     C_R   0.956339 0.536903 0.237407 0.063027
C135  C     C_R   0.447243 0.988660 0.238458 0.064632
C136  C     C_R   0.044290 0.463038 0.237345 0.063289
C137  C     C_R   0.999499 0.500275 0.724767 0.089550
C138  C     C_R   0.504925 0.996323 0.724805 0.089581
C139  C     C_R   0.487059 0.029170 0.225210 0.088224
C140  C     C_R   0.000287 0.499957 0.224768 0.089120
C141  C     C_R   0.062757 0.595141 0.724344 -0.113612
C142  C     C_R   0.399779 0.039316 0.725072 -0.113625
C143  C     C_R   0.936227 0.405417 0.724474 -0.113894
C144  C     C_R   0.610034 0.953326 0.723788 -0.113682
C145  C     C_R   0.552596 0.122212 0.223057 -0.116986
C146  C     C_R   0.906014 0.563228 0.224483 -0.114111
C147  C     C_R   0.420075 0.936906 0.226496 -0.112394
C148  C     C_R   0.094559 0.436686 0.224339 -0.115651
C149  C     C_R   0.059846 0.596996 0.699358 -0.108219
C150  C     C_R   0.398057 0.037299 0.700073 -0.107990
C151  C     C_R   0.939096 0.403562 0.699484 -0.108299
C152  C     C_R   0.610658 0.957280 0.698807 -0.108757
C153  C     C_R   0.552954 0.118721 0.198036 -0.111100
C154  C     C_R   0.904074 0.560301 0.199498 -0.109719
C155  C     C_R   0.425911 0.929805 0.201697 -0.110587
C156  C     C_R   0.096393 0.439562 0.199348 -0.110374
C157  C     C_R   0.030012 0.548694 0.686651 -0.027717
C158  C     C_R   0.450833 0.018216 0.687025 -0.028366
C159  C     C_R   0.968935 0.451847 0.686714 -0.027637
C160  C     C_R   0.557326 0.977353 0.686385 -0.028057
C161  C     C_R   0.523544 0.068568 0.186246 -0.027117
C162  C     C_R   0.952063 0.530451 0.186721 -0.027498
C163  C     C_R   0.459322 0.974053 0.188079 -0.028792
C164  C     C_R   0.048352 0.469388 0.186646 -0.026931
C165  C     C_R   0.999477 0.500275 0.699361 -0.056263
C166  C     C_R   0.504367 0.997307 0.699391 -0.056023
C167  C     C_R   0.490006 0.023912 0.199833 -0.055630
C168  C     C_R   0.000234 0.499931 0.199362 -0.056526
C169  C     C_R   0.467067 0.958113 0.412735 0.147868
C170  C     C_R   0.960649 0.458026 0.414010 0.179324
C171  C     C_R   0.550160 0.036360 0.414810 0.151248
C172  C     C_R   0.039812 0.541914 0.413987 0.179186
C173  C     C_R   0.957912 0.539159 0.914037 0.181507
C174  C     C_R   0.462508 0.955933 0.914058 0.181890
C175  C     C_R   0.041972 0.460947 0.913962 0.181280
C176  C     C_R   0.541361 0.039888 0.913886 0.190180
C177  C     C_R   0.028907 0.548083 0.661469 0.524952
C178  C     C_R   0.451093 0.018284 0.661832 0.526310
C179  C     C_R   0.970077 0.452409 0.661530 0.524898
C180  C     C_R   0.555864 0.979031 0.661204 0.525868
C181  C     C_R   0.525398 0.062792 0.161090 0.523828
C182  C     C_R   0.952585 0.529302 0.161539 0.524019
C183  C     C_R   0.463494 0.969288 0.162944 0.524215
C184  C     C_R   0.047733 0.470504 0.161464 0.523706
N5    N     N_R   0.999516 0.500226 0.649484 -0.357690
N6    N     N_R   0.503171 0.999022 0.649514 -0.358065
N7    N     N_R   0.495807 0.013558 0.149956 -0.356072
N8    N     N_R   0.000138 0.499900 0.149484 -0.357411
H33   H     H_    0.084394 0.634595 0.733324 0.185631
H34   H     H_    0.357094 0.052147 0.734297 0.185694
H35   H     H_    0.914604 0.365962 0.733498 0.185607
H36   H     H_    0.653106 0.939779 0.732530 0.185695
H37   H     H_    0.573745 0.163225 0.231109 0.186050
H38   H     H_    0.866786 0.584875 0.233517 0.185448
H39   H     H_    0.395649 0.900315 0.236226 0.186386
H40   H     H_    0.133827 0.415060 0.233310 0.184627
H41   H     H_    0.081543 0.636152 0.690056 0.201803
H42   H     H_    0.355338 0.051159 0.691032 0.201604
H43   H     H_    0.917385 0.364405 0.690229 0.201788
H44   H     H_    0.652953 0.944091 0.689281 0.201292
H45   H     H_    0.576698 0.155362 0.187989 0.200753
H46   H     H_    0.865098 0.581994 0.190251 0.201285
H47   H     H_    0.403658 0.889738 0.193234 0.201969
H48   H     H_    0.135331 0.417853 0.190039 0.200768
O57   O     O_2   0.056662 0.595020 0.649034 -0.542570
O58   O     O_2   0.399691 0.037071 0.649713 -0.541793
O59   O     O_2   0.942337 0.405450 0.649154 -0.542768
O60   O     O_2   0.606658 0.961064 0.648474 -0.542468
O61   O     O_2   0.555973 0.106354 0.147853 -0.547080
O62   O     O_2   0.905852 0.557015 0.149172 -0.544782
O63   O     O_2   0.435623 0.920711 0.151570 -0.544222
O64   O     O_2   0.094417 0.442774 0.149022 -0.545393
C185  C     C_R   0.528644 0.072883 0.262645 -0.051605
C186  C     C_R   0.963288 0.544433 0.262595 -0.051018
C187  C     C_R   0.438125 0.999878 0.263374 -0.050573
C188  C     C_R   0.037441 0.455558 0.262552 -0.051147
C189  C     C_R   0.043997 0.537740 0.762529 -0.050661
C190  C     C_R   0.460334 0.030775 0.762987 -0.050762
C191  C     C_R   0.955149 0.462756 0.762617 -0.050612
C192  C     C_R   0.551162 0.959031 0.762269 -0.050584
C193  C     C_R   0.483217 0.037240 0.275631 0.032837
C194  C     C_R   0.000384 0.500004 0.275215 0.034104
C195  C     C_R   0.999605 0.500230 0.775215 0.034721
C196  C     C_R   0.506005 0.994424 0.775270 0.035588
C197  C     C_R   0.386085 0.975515 0.276634 0.260935
C198  C     C_R   0.065847 0.405729 0.275652 0.267135
C199  C     C_R   0.576769 0.104513 0.275816 0.263572
C200  C     C_R   0.934933 0.594288 0.275718 0.266482
C201  C     C_R   0.905357 0.433892 0.775780 0.266300
C202  C     C_R   0.589542 0.915753 0.775042 0.267429
C203  C     C_R   0.093852 0.566574 0.775591 0.266380
C204  C     C_R   0.422548 0.073139 0.776478 0.264517
C205  C     C_R   0.386121 0.978991 0.301772 -0.124855
C206  C     C_R   0.065584 0.407023 0.300762 -0.137518
C207  C     C_R   0.573544 0.107262 0.300936 -0.124133
C208  C     C_R   0.935254 0.593020 0.300828 -0.135675
C209  C     C_R   0.906714 0.434143 0.800888 -0.133554
C210  C     C_R   0.589674 0.916221 0.800164 -0.131240
C211  C     C_R   0.092630 0.566242 0.800702 -0.133669
C212  C     C_R   0.423425 0.070812 0.801570 -0.132543
C213  C     C_R   0.435210 0.008396 0.314081 -0.083730
C214  C     C_R   0.033953 0.454014 0.313328 -0.089780
C215  C     C_R   0.527537 0.074066 0.313630 -0.091331
C216  C     C_R   0.966897 0.546029 0.313362 -0.090476
C217  C     C_R   0.953727 0.466196 0.813391 -0.090856
C218  C     C_R   0.549257 0.955160 0.813070 -0.099405
C219  C     C_R   0.045692 0.534139 0.813299 -0.090825
C220  C     C_R   0.464332 0.030924 0.813759 -0.087141
C221  C     C_R   0.482750 0.038857 0.301051 -0.050865
C222  C     C_R   0.000414 0.500018 0.300615 -0.040522
C223  C     C_R   0.999674 0.500190 0.800615 -0.040395
C224  C     C_R   0.506529 0.993492 0.800678 -0.042858
C225  C     C_R   0.526869 0.073084 0.338909 0.634418
C226  C     C_R   0.967619 0.545220 0.338557 0.666883
C227  C     C_R   0.437224 0.009587 0.339348 0.630198
C228  C     C_R   0.033238 0.454814 0.338524 0.666693
C229  C     C_R   0.044953 0.533378 0.838495 0.667256
C230  C     C_R   0.465691 0.029383 0.838943 0.624061
C231  C     C_R   0.954607 0.466871 0.838586 0.667263
C232  C     C_R   0.548978 0.955013 0.838287 0.706290
H49   H     H_    0.941618 0.210560 0.535072 0.167249
H50   H     H_    0.788603 0.895314 0.509976 0.149330
H51   H     H_    0.057948 0.789345 0.535123 0.167777
H52   H     H_    0.211306 0.105827 0.507734 0.146530
H53   H     H_    0.437468 0.710562 0.033983 0.162392
H54   H     H_    0.288601 0.441370 0.034920 0.164153
H55   H     H_    0.560299 0.289346 0.034533 0.163885
H56   H     H_    0.711047 0.559186 0.034670 0.164211
N9    N     N_R   0.427522 0.913039 0.424548 0.267707
O65   O     O_R   0.442662 0.853980 0.424522 -0.260569
O66   O     O_R   0.380120 0.931733 0.437410 -0.344628
N10   N     N_R   0.920003 0.415533 0.426782 0.258371
O67   O     O_R   0.860327 0.413674 0.421955 -0.268744
O68   O     O_R   0.942788 0.377153 0.442694 -0.355426
N11   N     N_R   0.596495 0.068862 0.428775 0.263661
O69   O     O_R   0.600287 0.129746 0.427859 -0.243894
O70   O     O_R   0.633610 0.037876 0.442971 -0.391271
N12   N     N_R   0.080378 0.584394 0.426737 0.258335
O71   O     O_R   0.140091 0.586229 0.421895 -0.269295
O72   O     O_R   0.057489 0.622781 0.442642 -0.355232
N13   N     N_R   0.915342 0.579245 0.926839 0.257486
O73   O     O_R   0.876981 0.555896 0.942747 -0.359307
O74   O     O_R   0.913361 0.638949 0.922029 -0.273807
N14   N     N_R   0.422982 0.912893 0.926952 0.237363
O75   O     O_R   0.435818 0.853297 0.926847 -0.301786
O76   O     O_R   0.369146 0.931573 0.935268 -0.287630
N15   N     N_R   0.084583 0.420834 0.926689 0.257520
O77   O     O_R   0.122913 0.444127 0.942562 -0.358191
O78   O     O_R   0.086585 0.361148 0.921861 -0.273733
N16   N     N_R   0.579668 0.084699 0.926519 0.258163
O79   O     O_R   0.639531 0.088508 0.922121 -0.274444
O80   O     O_R   0.554639 0.122839 0.942034 -0.355816
N17   N     N_R   0.447905 0.907093 0.373665 0.264062
O81   O     O_R   0.481386 0.885006 0.356026 -0.325875
O82   O     O_R   0.394150 0.880874 0.378613 -0.228270
N18   N     N_R   0.922968 0.413676 0.375711 0.255693
O83   O     O_R   0.923525 0.354491 0.381452 -0.242279
O84   O     O_R   0.888648 0.432043 0.357733 -0.327951
N19   N     N_R   0.615916 0.042422 0.378549 0.262186
O85   O     O_R   0.655296 0.084999 0.385959 -0.225979
O86   O     O_R   0.633347 0.004287 0.361545 -0.323183
N20   N     N_R   0.077785 0.586257 0.375664 0.255590
O87   O     O_R   0.077214 0.645437 0.381394 -0.242771
O88   O     O_R   0.112195 0.567897 0.357671 -0.329607
N21   N     N_R   0.913443 0.576557 0.875768 0.255628
O89   O     O_R   0.854283 0.575331 0.881554 -0.242878
O90   O     O_R   0.931709 0.611156 0.857768 -0.327619
N22   N     N_R   0.426675 0.908786 0.876028 0.251625
O91   O     O_R   0.449366 0.873563 0.859044 -0.316683
O92   O     O_R   0.367357 0.904362 0.881338 -0.249532
N23   N     N_R   0.086297 0.423619 0.875610 0.255618
O93   O     O_R   0.145479 0.424839 0.881285 -0.242952
O94   O     O_R   0.067968 0.389060 0.857643 -0.327849
N24   N     N_R   0.582310 0.080629 0.875459 0.251712
O95   O     O_R   0.577471 0.140384 0.879830 -0.250836
O96   O     O_R   0.621004 0.061784 0.858887 -0.317965
H57   H     H_    0.899474 0.512616 0.620834 0.158454
H58   H     H_    0.502846 0.898416 0.620775 0.156919
H59   H     H_    0.099781 0.487671 0.620839 0.158350
H60   H     H_    0.501500 0.100353 0.621042 0.157058
H61   H     H_    0.397074 0.020587 0.120299 0.158365
H62   H     H_    0.987031 0.399703 0.120849 0.157704
H63   H     H_    0.597506 0.997059 0.121883 0.159708
H64   H     H_    0.013172 0.600136 0.120820 0.157498
H65   H     H_    0.899123 0.512228 0.576782 0.174405
H66   H     H_    0.501488 0.898283 0.576730 0.178209
H67   H     H_    0.100509 0.487853 0.576787 0.174451
H68   H     H_    0.499899 0.101301 0.576964 0.177586
H69   H     H_    0.398330 0.014238 0.076382 0.173430
H70   H     H_    0.987261 0.399205 0.076796 0.173266
H71   H     H_    0.599739 0.991486 0.077783 0.172447
H72   H     H_    0.012810 0.600712 0.076769 0.173265
N25   N     N_R   0.329518 0.954644 0.265034 0.199798
O97   O     O_R   0.296531 0.909113 0.274296 -0.321656
O98   O     O_R   0.305783 0.987339 0.247522 -0.333253
N26   N     N_R   0.087331 0.349422 0.264119 0.199737
O99   O     O_R   0.136030 0.319924 0.272424 -0.333134
O100  O     O_R   0.052588 0.322180 0.247937 -0.328917
N27   N     N_R   0.633762 0.125909 0.264629 0.198518
O101  O     O_R   0.660877 0.177192 0.272028 -0.328370
O102  O     O_R   0.664111 0.088946 0.250112 -0.327269
N28   N     N_R   0.913433 0.650584 0.264192 0.199653
O103  O     O_R   0.864778 0.680120 0.272571 -0.328025
O104  O     O_R   0.948122 0.677775 0.247926 -0.330375
N29   N     N_R   0.849033 0.411909 0.764310 0.199789
O105  O     O_R   0.819538 0.362946 0.772680 -0.326154
O106  O     O_R   0.821786 0.446410 0.748115 -0.328613
N30   N     N_R   0.621834 0.865438 0.763166 0.199441
O107  O     O_R   0.675814 0.846368 0.771176 -0.327064
O108  O     O_R   0.592954 0.832118 0.746957 -0.329784
N31   N     N_R   0.150113 0.588601 0.764006 0.199705
O109  O     O_R   0.179626 0.637560 0.772316 -0.326516
O110  O     O_R   0.177304 0.554136 0.747761 -0.329329
N32   N     N_R   0.389897 0.124372 0.765374 0.199633
O111  O     O_R   0.336289 0.142941 0.773973 -0.326779
O112  O     O_R   0.418186 0.158808 0.749306 -0.329192
N33   N     N_R   0.064920 0.293455 0.460232 0.219165
O113  O     O_R   0.047056 0.278978 0.438577 -0.294666
O114  O     O_R   0.115414 0.326916 0.463311 -0.343596
N34   N     N_R   0.709145 0.120056 0.488831 0.233255
O115  O     O_R   0.721505 0.144701 0.467949 -0.283793
O116  O     O_R   0.680985 0.153422 0.505140 -0.355828
N35   N     N_R   0.935562 0.706661 0.460216 0.219838
O117  O     O_R   0.953655 0.721248 0.438572 -0.292754
O118  O     O_R   0.885046 0.673170 0.463269 -0.341358
N36   N     N_R   0.291009 0.878566 0.491170 0.230184
O119  O     O_R   0.279159 0.851228 0.470765 -0.295393
O120  O     O_R   0.319019 0.847472 0.508139 -0.354728
N37   N     N_R   0.569586 0.793453 0.961375 0.212139
O121  O     O_R   0.554140 0.779254 0.939424 -0.294084
O122  O     O_R   0.620006 0.826374 0.965342 -0.338463
N38   N     N_R   0.207467 0.566391 0.960518 0.220970
O123  O     O_R   0.221861 0.548963 0.938798 -0.287838
O124  O     O_R   0.174494 0.616853 0.963784 -0.337069
N39   N     N_R   0.432913 0.206718 0.960849 0.222127
O125  O     O_R   0.449695 0.221148 0.939036 -0.287353
O126  O     O_R   0.382416 0.173523 0.964389 -0.332339
N40   N     N_R   0.792956 0.432990 0.960622 0.220858
O127  O     O_R   0.778879 0.450135 0.938851 -0.288329
O128  O     O_R   0.825831 0.382540 0.964030 -0.337456
H73   H     H_    0.948898 0.210394 0.463000 0.209128
H74   H     H_    0.789690 0.030888 0.459935 0.210430
H75   H     H_    0.051558 0.789704 0.463048 0.208500
H76   H     H_    0.210533 0.963638 0.460521 0.206067
H77   H     H_    0.453373 0.710413 0.962107 0.210403
H78   H     H_    0.289268 0.450151 0.962874 0.207554
H79   H     H_    0.549080 0.289688 0.962548 0.207543
H80   H     H_    0.711105 0.549255 0.962649 0.208029

loop_
_geom_bond_atom_site_label_1
_geom_bond_atom_site_label_2
_geom_bond_distance
_ccdc_geom_bond_type
O42   C118  1.272968 A    
C71   H31   1.110197 S    
O18   C226  1.349852 S    
O42   Zn8   2.018527 S    
C200  C208  1.396477 A    
N38   O124  1.300217 A    
O29   C115  1.289279 A    
C29   C85   1.534354 S    
N25   O97   1.301454 A    
C100  N24   1.437640 S    
C27   C83   1.534380 S    
C156  H48   1.083217 S    
C48   C124  1.439156 S    
N19   O86   1.301887 A    
O46   C122  1.275613 A    
N2    C226  1.366312 A    
C37   C45   1.534555 S    
C26   H18   1.110279 S    
C39   C47   1.534588 S    
O9    Zn3   2.017470 S    
C30   C38   1.551326 S    
C60   H76   1.110304 S    
O45   C121  1.275320 A    
C23   C109  1.405884 A    
C14   C106  1.391756 A    
O34   C118  1.277078 A    
C41   C117  1.438750 S    
C203  C211  1.396483 A    
C47   C55   1.517634 S    
N34   O115  1.300345 A    
N29   O106  1.301632 A    
C72   H32   1.110216 S    
N28   O104  1.301636 A    
C34   C74   1.548377 S    
O3    C3    1.272798 A    
C188  C194  1.422259 A    
C217  C223  1.407094 A    
O1    Zn1   2.019269 S    
C49   C57   1.531902 S    
C38   C78   1.549057 S    
H3    C207  1.083761 S    
O21   C229  1.349850 S    
O44   C120  1.272816 A    
C164  C184  1.400519 A    
C28   C84   1.533846 S    
N32   O112  1.301637 A    
O8    Zn2   2.018053 S    
C200  N28   1.437361 S    
C192  C202  1.425888 A    
C41   C65   1.536566 S    
C67   C75   1.547483 S    
O47   Zn9   2.014765 S    
C61   C85   1.536044 S    
O25   Zn5   2.016570 S    
C112  H72   1.082928 S    
C153  C161  1.400541 A    
O45   Zn11  2.014766 S    
C45   C53   1.517528 S    
C64   C72   1.549174 S    
C155  H47   1.083185 S    
C47   C71   1.536563 S    
C189  C195  1.422257 A    
C141  C149  1.391383 A    
C142  H34   1.080162 S    
O19   C227  1.347701 S    
C14   H58   1.082922 S    
C213  C221  1.401724 A    
C97   N21   1.438016 S    
C33   C41   1.534574 S    
C16   C108  1.392465 A    
C53   N37   1.456784 S    
C89   C93   1.426095 A    
C25   C49   1.531576 S    
O48   C124  1.275605 A    
O13   C5    1.274327 A    
C42   C50   1.520639 S    
C44   C68   1.535365 S    
C29   H21   1.110308 S    
O16   Zn4   2.017835 S    
C59   C83   1.535765 S    
N35   O118  1.300215 A    
C151  C159  1.399979 A    
C104  N8    1.430963 S    
N40   O128  1.300217 A    
C152  C160  1.399927 A    
N1    C225  1.379948 A    
N20   O88   1.301042 A    
C190  C204  1.425525 A    
C148  C156  1.391409 A    
C196  C224  1.413008 A    
C149  C157  1.399981 A    
C58   C82   1.535568 S    
C220  C230  1.401098 A    
O31   Zn11  2.015295 S    
C174  N14   1.433912 S    
C140  C168  1.412654 A    
C199  N27   1.436460 S    
C177  O57   1.349733 S    
C148  H40   1.080217 S    
C28   C52   1.529697 S    
C35   C75   1.548841 S    
C150  C158  1.399748 A    
C50   C58   1.531155 S    
O28   C114  1.288673 A    
C92   C98   1.408416 A    
N17   O82   1.301662 A    
N4    C230  1.366052 A    
C199  C207  1.399619 A    
C99   C175  1.404694 A    
O10   C2    1.274270 A    
O54   C128  1.286245 A    
C182  O62   1.349735 S    
C36   C44   1.534815 S    
C191  C195  1.422259 A    
C42   C66   1.535460 S    
C151  H43   1.083218 S    
C152  H44   1.083219 S    
C146  H38   1.080223 S    
N16   O79   1.301219 A    
C40   C48   1.534465 S    
C108  H68   1.082884 S    
O32   Zn12  2.015767 S    
O5    C5    1.273412 A    
C46   C54   1.517446 S    
C52   N36   1.457083 S    
C41   C49   1.517607 S    
N31   O110  1.301637 A    
C135  C139  1.414004 A    
N21   O89   1.301246 A    
C64   H80   1.110285 S    
C53   C61   1.531640 S    
Zn10  O54   2.015714 S    
O31   C115  1.291566 A    
N13   O74   1.301147 A    
C57   H73   1.110298 S    
O55   C127  1.287497 A    
C32   C88   1.534673 S    
O40   C124  1.274164 A    
C132  C144  1.410926 A    
C37   H13   1.110190 S    
C26   C50   1.529779 S    
C136  C140  1.413094 A    
C129  C141  1.410713 A    
O39   Zn11  2.019618 S    
C216  C222  1.407097 A    
C130  C190  1.417991 A    
N33   O113  1.300345 A    
C185  C199  1.428379 A    
O37   Zn9   2.019618 S    
C149  H41   1.083218 S    
C30   H22   1.110314 S    
C218  C232  1.402169 A    
C74   H50   1.110268 S    
C24   C112  1.404657 A    
C57   C65   1.549491 S    
N22   O91   1.300693 A    
C89   C95   1.422039 A    
C90   C96   1.407429 A    
C34   H10   1.110181 S    
C186  C194  1.422244 A    
C63   C71   1.549507 S    
C11   C128  1.465382 S    
O46   Zn12  2.018527 S    
C131  C137  1.413098 A    
C219  C229  1.401156 A    
C27   C35   1.551056 S    
C178  N6    1.368246 A    
C190  C196  1.422510 A    
C164  C168  1.407145 A    
N14   O75   1.300620 A    
N1    C227  1.378595 A    
O44   Zn6   2.018530 S    
N23   O94   1.301044 A    
C218  C224  1.407303 A    
C156  C164  1.399995 A    
Zn6   O50   2.015714 S    
C157  C165  1.407157 A    
C150  H42   1.083222 S    
C161  C181  1.404724 A    
C147  C155  1.392689 A    
C202  C210  1.396957 A    
C163  C183  1.404051 A    
N4    C92   1.431981 S    
C134  C146  1.410710 A    
O47   C123  1.275258 A    
C45   C69   1.536548 S    
C64   C88   1.535685 S    
C197  C205  1.399776 A    
C133  C145  1.411653 A    
N10   O68   1.300935 A    
N24   O96   1.300645 A    
C80   H56   1.110182 S    
C52   C60   1.531259 S    
N27   O102  1.301619 A    
N32   O111  1.301468 A    
C6    C85   1.437378 S    
C92   C100  1.408293 A    
C22   C108  1.405108 A    
H7    C211  1.083515 S    
N4    C232  1.366435 A    
C133  C185  1.423624 A    
C56   C64   1.531959 S    
C15   C107  1.391627 A    
N36   O119  1.300342 A    
O35   C119  1.274613 A    
C49   N33   1.456752 S    
C195  C223  1.412382 A    
C134  C186  1.417739 A    
O48   Zn10  2.018530 S    
O26   C114  1.288224 A    
C29   C53   1.531781 S    
C77   H53   1.110197 S    
O38   C122  1.274147 A    
C197  N25   1.437464 S    
C214  C228  1.401176 A    
C18   C110  1.391660 A    
O30   C116  1.288092 A    
C12   C174  1.411073 A    
O33   Zn5   2.019618 S    
C130  C138  1.413162 A    
C157  C177  1.400500 A    
N14   O76   1.300827 A    
C46   C122  1.439147 S    
O29   Zn9   2.016570 S    
C99   N23   1.438011 S    
C62   C86   1.535759 S    
C10   C125  1.465434 S    
C35   H11   1.110178 S    
O49   C125  1.286421 A    
C154  C162  1.399986 A    
C170  N10   1.437309 S    
C16   H60   1.082896 S    
C185  C193  1.423702 A    
C32   C56   1.531953 S    
C160  C166  1.407270 A    
C7    C86   1.437563 S    
C55   N39   1.456772 S    
C20   H64   1.082923 S    
N30   O107  1.301465 A    
C13   H57   1.082921 S    
C43   C119  1.438753 S    
O7    Zn2   2.018000 S    
C90   C94   1.407432 A    
C169  N9    1.433686 S    
C132  C192  1.418665 A    
C207  C215  1.397040 A    
C172  N12   1.437314 S    
C181  N7    1.370531 A    
C79   H55   1.110198 S    
O1    C1    1.272962 A    
O23   C231  1.349847 S    
C47   C123  1.438727 S    
O14   C6    1.274517 A    
C204  C212  1.396247 A    
C97   C173  1.404631 A    
N17   O81   1.301564 A    
C217  C231  1.401161 A    
H1    C205  1.083432 S    
C46   C70   1.536894 S    
N2    C90   1.431505 S    
C9    C169  1.408570 A    
O7    C7    1.273291 A    
O8    C8    1.273256 A    
C137  C165  1.412669 A    
C183  N7    1.370516 A    
C66   H26   1.110212 S    
C60   C84   1.535521 S    
C202  N30   1.437297 S    
C180  N6    1.368447 A    
C14   C102  1.399042 A    
C159  C165  1.407159 A    
C65   C73   1.547452 S    
O50   C126  1.288277 A    
N34   O116  1.300404 A    
N29   O105  1.301464 A    
O27   Zn7   2.015295 S    
C111  H71   1.082847 S    
C43   C51   1.517599 S    
C107  H67   1.082926 S    
C19   C111  1.397058 A    
C194  C222  1.412369 A    
Zn9   O53   2.015247 S    
C30   C54   1.531877 S    
C71   C79   1.547441 S    
N26   O100  1.301634 A    
N12   O71   1.301151 A    
C189  C203  1.425508 A    
C22   C106  1.405152 A    
O41   C117  1.275305 A    
N39   O125  1.300329 A    
C153  H45   1.083197 S    
C61   C69   1.549566 S    
N11   O69   1.300816 A    
C34   C42   1.534871 S    
O11   C3    1.274521 A    
C18   C104  1.399721 A    
O52   C126  1.288845 A    
C184  N8    1.368796 A    
C38   H14   1.110172 S    
C38   C46   1.534558 S    
C27   H19   1.110346 S    
C80   C88   1.533492 S    
C93   C169  1.411339 A    
C219  C223  1.407093 A    
C198  N26   1.437349 S    
C103  N7    1.438107 S    
O6    C6    1.273140 A    
O25   C113  1.288300 A    
N26   O99   1.301465 A    
Zn12  O56   2.016020 S    
C55   C63   1.531717 S    
C201  N29   1.437357 S    
C12   C176  1.412699 A    
O13   Zn4   2.017470 S    
O35   Zn7   2.019618 S    
C42   C118  1.439639 S    
Zn5   O49   2.015247 S    
C187  C193  1.420761 A    
O33   C117  1.274611 A    
C211  C219  1.396850 A    
C56   N40   1.456701 S    
C96   C172  1.404671 A    
C33   C73   1.548824 S    
C21   C105  1.404711 A    
C93   N17   1.440685 S    
O22   C230  1.349969 S    
C3    C82   1.436695 S    
N25   O98   1.301623 A    
C37   C77   1.549058 S    
N31   O109  1.301461 A    
O43   Zn5   2.014765 S    
O5    Zn2   2.019270 S    
C213  C227  1.405944 A    
C1    C84   1.436782 S    
C39   C79   1.548973 S    
C9    C171  1.408938 A    
C215  C225  1.405856 A    
C39   H15   1.110197 S    
N38   O123  1.300340 A    
C15   C101  1.399694 A    
C180  O60   1.349686 S    
C58   H74   1.110315 S    
O26   Zn6   2.016069 S    
O28   Zn8   2.015767 S    
N3    C231  1.366323 A    
O43   C119  1.275304 A    
C91   C97   1.407440 A    
C163  C167  1.407198 A    
C133  C139  1.415212 A    
N18   O83   1.301249 A    
C142  C150  1.391295 A    
O20   C228  1.349845 S    
C10   C172  1.413005 A    
C147  H39   1.080341 S    
O10   Zn3   2.017529 S    
C61   H77   1.110297 S    
C69   H29   1.110202 S    
C135  C187  1.419216 A    
C59   H75   1.110289 S    
C136  C188  1.417794 A    
C162  C182  1.400496 A    
C192  C196  1.422382 A    
O17   C225  1.346244 S    
C35   C43   1.534593 S    
N1    C89   1.480260 S    
C173  N13   1.437255 S    
C179  O59   1.349732 S    
N16   O80   1.301042 A    
C146  C154  1.391379 A    
C58   C66   1.549235 S    
C136  C148  1.410718 A    
C17   C103  1.400829 A    
C160  C180  1.401020 A    
C54   C62   1.531840 S    
N37   O122  1.300232 A    
C4    C83   1.437269 S    
O56   C128  1.286245 A    
C101  N5    1.430905 S    
N13   O73   1.300924 A    
C105  H65   1.082929 S    
C68   C76   1.549369 S    
C75   C83   1.533594 S    
C73   C81   1.533604 S    
C72   C80   1.546985 S    
O27   C113  1.288261 A    
C182  N8    1.368787 A    
C51   C59   1.531889 S    
C75   H51   1.110180 S    
C54   N38   1.456697 S    
C145  C153  1.393328 A    
C216  C226  1.401135 A    
C60   C68   1.549593 S    
O12   Zn3   2.017835 S    
N22   O92   1.301138 A    
C161  C167  1.406915 A    
C162  C168  1.407150 A    
C130  C142  1.410882 A    
C50   N34   1.457142 S    
C158  C178  1.400837 A    
C13   C105  1.391663 A    
C26   C82   1.533711 S    
C12   C127  1.466845 S    
C220  C224  1.406959 A    
C43   C67   1.536567 S    
C59   C67   1.549471 S    
C25   C33   1.551036 S    
C63   C87   1.535817 S    
C139  C167  1.416853 A    
O15   Zn4   2.018745 S    
C155  C163  1.400609 A    
C21   C107  1.404677 A    
C62   H78   1.110296 S    
C94   N18   1.438018 S    
O4    Zn1   2.018052 S    
C28   C36   1.551820 S    
C40   H16   1.110172 S    
N40   O127  1.300339 A    
C22   C114  1.467851 S    
C24   C110  1.404670 A    
N20   O87   1.301249 A    
C2    C81   1.437270 S    
C91   C99   1.407468 A    
Zn11  O55   2.016520 S    
C32   H24   1.110315 S    
O51   C125  1.286445 A    
C143  C151  1.391396 A    
C145  H37   1.079532 S    
C212  C220  1.396787 A    
N28   O103  1.301463 A    
H6    C210  1.083510 S    
O2    C2    1.273333 A    
C27   C51   1.531548 S    
N19   O85   1.301065 A    
C191  C201  1.425492 A    
N3    C229  1.366315 A    
C95   N19   1.442878 S    
C36   C76   1.548306 S    
Zn8   O52   2.016020 S    
C98   C174  1.404003 A    
C33   H9    1.110188 S    
N15   O77   1.300942 A    
O38   Zn10  2.016695 S    
C179  N5    1.368762 A    
C129  C189  1.417767 A    
C10   C170  1.412982 A    
C171  N11   1.433720 S    
O53   C127  1.286263 A    
C11   C175  1.412934 A    
C40   C80   1.548940 S    
C73   H49   1.110187 S    
C138  C166  1.413348 A    
C25   C81   1.534386 S    
O24   C232  1.349767 S    
C17   C109  1.393669 A    
N36   O120  1.300423 A    
N11   O70   1.300723 A    
C158  C166  1.407476 A    
C183  O63   1.349572 S    
C134  C140  1.413079 A    
C159  C179  1.400522 A    
C144  H36   1.080130 S    
C106  H66   1.082891 S    
C132  C138  1.413512 A    
C131  C143  1.410725 A    
C21   C113  1.466519 S    
C129  C137  1.413094 A    
C154  H46   1.083218 S    
C209  C217  1.396860 A    
C26   C34   1.552110 S    
C204  N32   1.437376 S    
C24   C116  1.466455 S    
C141  H33   1.080222 S    
C17   H61   1.082917 S    
C19   H63   1.082800 S    
C15   H59   1.082925 S    
N21   O90   1.301046 A    
C31   C55   1.531609 S    
C210  C218  1.396810 A    
C5    C88   1.437563 S    
O41   Zn7   2.014766 S    
C205  C213  1.397649 A    
O15   C7    1.274450 A    
C201  C209  1.396499 A    
O16   C8    1.274353 A    
O36   C120  1.277220 A    
O12   C4    1.274286 A    
C198  C206  1.396506 A    
C76   H52   1.110281 S    
C178  O58   1.349706 S    
C78   C86   1.533420 S    
C131  C191  1.417781 A    
O40   Zn12  2.016695 S    
C76   C84   1.532753 S    
C94   C170  1.404649 A    
N33   O114  1.300220 A    
C203  N31   1.437349 S    
C135  C147  1.410961 A    
N35   O117  1.300338 A    
N18   O84   1.301041 A    
C57   C81   1.535756 S    
C187  C197  1.426820 A    
N37   O121  1.300214 A    
N15   O78   1.301149 A    
O32   C116  1.288075 A    
C13   C101  1.399681 A    
C31   C87   1.534329 S    
C78   H54   1.110177 S    
N2    C228  1.366314 A    
C109  H69   1.082877 S    
C44   C120  1.439559 S    
C98   N22   1.438954 S    
H4    C208  1.083514 S    
C19   C103  1.402562 A    
O39   C123  1.274660 A    
O37   C121  1.274567 A    
N23   O93   1.301246 A    
C20   C104  1.399717 A    
N3    C91   1.431537 S    
C144  C152  1.391632 A    
C67   H27   1.110207 S    
C77   C85   1.533447 S    
O6    Zn2   2.018355 S    
C51   N35   1.456754 S    
C36   H12   1.110183 S    
C215  C221  1.400102 A    
O11   Zn3   2.018745 S    
C62   C70   1.549042 S    
O34   Zn6   2.016695 S    
C23   C111  1.405661 A    
C8    C87   1.437267 S    
O9    C1    1.274390 A    
C186  C200  1.425482 A    
C181  O61   1.349463 S    
O30   Zn10  2.016069 S    
C23   C115  1.474881 S    
C45   C121  1.438644 S    
C25   H17   1.110347 S    
C184  O64   1.349735 S    
C9    C126  1.474369 S    
H8    C212  1.083517 S    
C96   N20   1.438020 S    
N10   O67   1.301149 A    
C44   C52   1.520714 S    
N24   O95   1.301258 A    
C29   C37   1.550859 S    
N12   O72   1.300931 A    
C11   C173  1.412925 A    
C31   H23   1.110310 S    
C48   C72   1.536900 S    
C31   C39   1.550984 S    
C70   H30   1.110218 S    
Zn7   O51   2.016520 S    
C63   H79   1.110286 S    
N39   O126  1.300229 A    
O4    C4    1.273315 A    
C208  C216  1.396858 A    
C110  H70   1.082930 S    
H5    C209  1.083513 S    
C206  C214  1.396866 A    
C175  N15   1.437300 S    
C95   C171  1.410458 A    
C30   C86   1.534672 S    
N30   O108  1.301636 A    
C48   C56   1.517540 S    
N27   O101  1.301437 A    
H2    C206  1.083513 S    
N9    O65   1.300951 A    
C143  H35   1.080215 S    
C28   H20   1.110282 S    
O2    Zn1   2.018353 S    
C69   C77   1.547433 S    
N9    O66   1.301124 A    
C74   C82   1.532736 S    
C65   H25   1.110206 S    
C32   C40   1.551252 S    
C79   C87   1.533532 S    
C16   C102  1.399411 A    
O14   Zn4   2.017529 S    
C66   C74   1.549246 S    
C102  N6    1.430368 S    
C176  N16   1.438086 S    
C188  C198  1.425505 A    
C100  C176  1.405435 A    
C214  C222  1.407091 A    
C70   C78   1.547100 S    
C20   C112  1.391624 A    
O36   Zn8   2.016695 S    
C18   H62   1.082922 S    
O3    Zn1   2.017999 S    
C177  N5    1.368760 A    
C68   H28   1.110205 S    
C193  C221  1.413928 A    
