data_mof_unit_31181.cif
_audit_creation_date              2012-12-10T17:17:29-0500
_audit_creation_method            fapswitch 2.2
_symmetry_space_group_name_H-M    P1
_symmetry_Int_Tables_number       1
_space_group_crystal_system       triclinic
_cell_length_a                    10.24019
_cell_length_b                    10.802789
_cell_length_c                    12.202822
_cell_angle_alpha                 90.695594
_cell_angle_beta                  109.047766
_cell_angle_gamma                 95.554308
_cell_volume                      1268.6328334

loop_
_atom_site_label
_atom_site_type_symbol
_atom_type_description
_atom_site_fract_x
_atom_site_fract_y
_atom_site_fract_z
_atom_type_partial_charge
C1    C     C_R   0.053533 0.732606 0.496295 0.943033
C2    C     C_R   0.202271 0.504769 0.839343 -0.119941
C3    C     C_2   0.090489 0.865444 0.505882 -0.379880
C4    C     C_R   0.132222 0.505655 0.714433 0.847972
C5    C     C_2   0.012283 0.936521 0.542642 -0.155295
C6    C     C_2   0.929320 0.136936 0.529217 -0.391795
C7    C     C_2   0.034287 0.068947 0.539629 -0.148010
C8    C     C_2   0.432516 0.511295 0.507385 -0.057245
C9    C     C_2   0.569737 0.485148 0.494852 -0.068743
C10   C     C_R   0.950631 0.267890 0.511087 0.933888
C11   C     C_R   0.866122 0.487923 0.285597 0.888600
C12   C     C_R   0.420106 0.489244 0.993079 0.104374
C13   C     C_R   0.734505 0.341548 0.984115 0.214493
C14   C     C_R   0.788788 0.465730 0.162968 -0.093267
C15   C     C_R   0.156147 0.574951 0.914119 -0.212251
C16   C     C_R   0.238428 0.597858 0.029261 -0.140772
C17   C     C_R   0.370947 0.559089 0.068063 -0.202174
C18   C     C_3   0.775043 0.689099 0.711598 -0.705873
C19   C     C_3   0.285348 0.341610 0.275887 -0.724060
C20   C     C_3   0.810243 0.322735 0.817780 -0.768137
C21   C     C_R   0.327054 0.449168 0.882783 0.097463
C22   C     C_R   0.558190 0.457866 0.023545 0.035544
C23   C     C_R   0.596331 0.373352 0.951671 0.134435
C24   C     C_R   0.494576 0.319436 0.851562 -0.241130
C25   C     C_R   0.361812 0.356360 0.817853 -0.215811
C26   C     C_R   0.659797 0.509876 0.123475 -0.267042
C27   C     C_R   0.828771 0.384854 0.092432 -0.272661
H1    H     H_    0.930687 0.352181 0.122823 0.155102
H2    H     H_    0.286106 0.310657 0.740590 0.168036
H3    H     H_    0.134524 0.109572 0.536676 0.188494
H4    H     H_    0.430909 0.591332 0.561241 0.164478
H5    H     H_    0.680782 0.738740 0.543172 0.223192
H6    H     H_    0.748292 0.770701 0.752877 0.206858
H7    H     H_    0.881914 0.710454 0.708651 0.248828
H8    H     H_    0.770237 0.607447 0.765150 0.237257
H9    H     H_    0.389786 0.279696 0.441360 0.195688
H10   H     H_    0.268647 0.246331 0.235317 0.217322
H11   H     H_    0.375016 0.393863 0.258962 0.217029
H12   H     H_    0.924016 0.897299 0.566679 0.183302
H13   H     H_    0.190618 0.388881 0.236003 0.253761
H14   H     H_    0.853678 0.207881 0.956596 0.225348
H15   H     H_    0.900898 0.394075 0.853153 0.245699
H16   H     H_    0.720215 0.367839 0.762277 0.247896
H17   H     H_    0.836608 0.253157 0.762800 0.239558
H18   H     H_    0.058824 0.615588 0.882749 0.152518
H19   H     H_    0.829290 0.095885 0.532044 0.148911
H20   H     H_    0.178351 0.905143 0.481675 0.150022
H21   H     H_    0.573844 0.404970 0.442464 0.138975
H22   H     H_    0.517061 0.249269 0.798129 0.177286
H23   H     H_    0.639201 0.581554 0.175993 0.156611
H24   H     H_    0.430793 0.582569 0.157697 0.130642
H25   H     H_    0.202199 0.651025 0.087315 0.145695
N1    N     N_2   0.313640 0.446500 0.454900 -0.024605
N2    N     N_2   0.686360 0.553430 0.545150 -0.025090
N3    N     N_2   0.677259 0.665478 0.595878 -0.255907
N4    N     N_2   0.312691 0.334097 0.399300 -0.218270
N5    N     N_2   0.777035 0.261306 0.911589 -0.329600
O1    O     O_R   0.936910 0.692950 0.509080 -0.612497
O2    O     O_R   0.138320 0.658600 0.480130 -0.614721
O3    O     O_R   0.002900 0.525670 0.675280 -0.613336
O4    O     O_R   0.204310 0.491320 0.646330 -0.612501
O5    O     O_R   0.861680 0.341400 0.519870 -0.617955
O6    O     O_R   0.063090 0.307050 0.490920 -0.594022
O7    O     O_R   0.795690 0.508680 0.353670 -0.615353
O8    O     O_R   0.997100 0.474330 0.324720 -0.604158
Zn1   Zn    Zn3+2 0.865520 0.522940 0.519330 0.927451
Zn2   Zn    Zn3+2 0.134480 0.477060 0.480670 0.956344

loop_
_geom_bond_atom_site_label_1
_geom_bond_atom_site_label_2
_ccdc_geom_bond_type
C8    N1    D    
C6    C10   S    
C20   H15   S    
C23   C24   A    
C6    C7    D    
N2    Zn1   S    
C19   H11   S    
C14   C27   A    
C19   H10   S    
C18   H8    S    
O4    Zn2   S    
H5    N3    S    
C2    C4    S    
C10   O6    A    
C19   N4    S    
C3    C5    D    
O2    Zn2   S    
C17   H24   S    
C2    C21   A    
C26   H23   S    
H14   N5    S    
C11   C14   S    
C7    H3    S    
C1    O1    A    
C14   C26   A    
C12   C17   A    
C2    C15   A    
C18   H7    S    
C4    O3    A    
C10   O5    A    
C18   N3    S    
H9    N4    S    
C12   C21   A    
C3    H20   S    
C20   H17   S    
C1    O2    A    
C25   H2    S    
N1    Zn2   S    
C18   H6    S    
O6    Zn2   S    
C13   N5    S    
C19   H13   S    
C15   H18   S    
O3    Zn1   S    
C15   C16   A    
C12   C22   A    
C24   H22   S    
C20   H16   S    
C24   C25   A    
C13   C23   A    
C9    H21   S    
C11   O7    A    
C22   C26   A    
N1    N4    S    
C27   H1    S    
C5    C7    S    
C5    H12   S    
O5    Zn1   S    
C22   C23   A    
C13   C27   A    
C21   C25   A    
C9    N2    D    
C6    H19   S    
C1    C3    S    
C20   N5    S    
N2    N3    S    
C8    H4    S    
C11   O8    A    
C4    O4    A    
O1    Zn1   S    
C16   H25   S    
C16   C17   A    
C8    C9    S    
O8    Zn2   S    
O7    Zn1   S    
