data_mof_unit_28902.cif
_audit_creation_date              2013-03-05T16:11:30-0500
_audit_creation_method            fapswitch 2.2
_symmetry_space_group_name_H-M    P1
_symmetry_Int_Tables_number       1
_space_group_crystal_system       triclinic
_cell_length_a                    9.596475
_cell_length_b                    10.783643
_cell_length_c                    17.159448
_cell_angle_alpha                 88.407239
_cell_angle_beta                  86.803206
_cell_angle_gamma                 91.299126
_cell_volume                      1771.77450379

loop_
_atom_site_label
_atom_site_type_symbol
_atom_site_description
_atom_site_fract_x
_atom_site_fract_y
_atom_site_fract_z
_atom_type_partial_charge
O1    O     O_R   0.379740 0.682430 0.499960 -0.598841
O2    O     O_R   0.620260 0.682190 0.500020 -0.561905
C1    C     C_R   0.500644 0.739814 0.499802 0.846941
O3    O     O_R   0.365800 0.500150 0.613560 -0.599758
O4    O     O_R   0.606310 0.499910 0.613620 -0.524120
C2    C     C_R   0.482026 0.496852 0.649445 0.831919
Cu1   Cu    Cu3+1 0.357600 0.500140 0.499960 0.939926
Cu2   Cu    Cu3+1 0.642400 0.499860 0.500040 0.975495
O5    O     O_R   0.379740 0.317810 0.499980 -0.587524
O6    O     O_R   0.620260 0.317570 0.500040 -0.579346
O7    O     O_R   0.393690 0.500090 0.386380 -0.588412
O8    O     O_R   0.634200 0.499850 0.386440 -0.600381
C3    C     C_R   0.499219 0.260902 0.497426 0.779342
C4    C     C_R   0.517728 0.501969 0.350039 0.820984
C5    C     C_R   0.470991 0.479710 0.733661 -0.105272
C6    C     C_R   0.534099 0.378278 0.767970 -0.189980
C7    C     C_R   0.519280 0.355880 0.848440 0.207139
C8    C     C_R   0.440204 0.438072 0.894960 0.073021
C9    C     C_R   0.370807 0.537993 0.859796 -0.010665
C10   C     C_R   0.386975 0.557085 0.778779 -0.195475
C11   C     C_R   0.439182 0.531667 0.136973 -0.140597
C12   C     C_R   0.429625 0.551766 0.216843 0.198276
C13   C     C_R   0.636847 0.427934 0.230212 -0.239837
C14   C     C_R   0.647795 0.409893 0.149618 0.028778
C15   C     C_R   0.545711 0.460686 0.103019 0.042029
C16   C     C_2   0.436312 0.424489 0.980233 -0.229910
C17   C     C_2   0.551896 0.447831 0.017962 -0.221943
C18   C     C_R   0.527671 0.496097 0.264598 -0.062518
H1    H     H_    0.591475 0.314425 0.731581 0.177445
H2    H     H_    0.712103 0.385734 0.266914 0.185504
H3    H     H_    0.651164 0.464901 0.985358 0.161256
H4    H     H_    0.364692 0.575336 0.100421 0.140114
H5    H     H_    0.335405 0.632980 0.750467 0.217526
H6    H     H_    0.335910 0.409778 0.012027 0.157676
C19   C     C_3   0.403742 0.929579 0.433572 -0.139126
H7    H     H_    0.296147 0.890462 0.444535 0.087933
C20   C     C_3   0.394981 0.073031 0.437744 -0.470568
H8    H     H_    0.415587 0.119669 0.379423 0.160402
H9    H     H_    0.286736 0.097472 0.457312 0.165984
H10   H     H_    0.353033 0.114153 0.599401 0.190821
C21   C     C_3   0.440687 0.926976 0.581649 0.095899
C22   C     C_3   0.649180 0.933998 0.481627 -0.379652
C23   C     C_3   0.499066 0.878903 0.499391 0.049119
H11   H     H_    0.718924 0.907052 0.528201 0.156849
H12   H     H_    0.695626 0.895599 0.427553 0.233023
C24   C     C_3   0.498914 0.123194 0.496036 0.110266
C25   C     C_3   0.453321 0.072069 0.579301 -0.484567
C26   C     C_3   0.648756 0.076028 0.473301 0.011341
H13   H     H_    0.722731 0.112590 0.515384 0.180271
H14   H     H_    0.530830 0.105507 0.620436 0.182154
C27   C     C_3   0.914468 0.377994 0.472891 -0.231376
H15   H     H_    0.870902 0.353997 0.416395 0.150314
H16   H     H_    0.878549 0.298801 0.511006 0.206269
C28   C     C_3   0.081233 0.379759 0.465791 0.134011
H17   H     H_    0.115609 0.296988 0.497810 0.208530
H18   H     H_    0.929169 0.547136 0.378645 0.160487
H19   H     H_    0.154958 0.613858 0.396391 0.160553
C29   C     C_3   0.933545 0.587753 0.437708 0.091011
C30   C     C_3   0.911662 0.522184 0.579440 0.045340
N1    N     N_3   0.856560 0.499750 0.498270 -0.148263
N2    N     N_3   0.143860 0.496700 0.498910 -0.146029
C31   C     C_3   0.093588 0.603376 0.452714 -0.221371
C32   C     C_3   0.077946 0.507414 0.579698 -0.179746
H20   H     H_    0.124572 0.592874 0.603531 0.142262
H21   H     H_    0.114114 0.691633 0.482641 0.143354
C33   C     C_2   0.762664 0.334342 0.115790 0.359341
H22   H     H_    0.767372 0.311825 0.054569 0.069451
O9    O     O_2   0.853951 0.295540 0.156219 -0.550793
C34   C     C_2   0.443674 0.892456 0.350728 0.302295
H23   H     H_    0.384839 0.928867 0.303325 0.089785
O10   O     O_2   0.537505 0.820969 0.335554 -0.584774
C35   C     C_2   0.286575 0.889406 0.597274 0.399721
H24   H     H_    0.206937 0.937346 0.566500 0.055017
O11   O     O_2   0.249263 0.806516 0.644352 -0.565917
C36   C     C_3   0.706029 0.119316 0.390405 -0.854568
H25   H     H_    0.653452 0.069270 0.344288 0.268328
H26   H     H_    0.692036 0.219545 0.378951 0.229663
H27   H     H_    0.819456 0.100956 0.383742 0.227686
C37   C     C_3   0.317089 0.636883 0.246223 -0.841806
H28   H     H_    0.316619 0.721421 0.207701 0.229369
H29   H     H_    0.213641 0.588967 0.245436 0.217850
H30   H     H_    0.333170 0.669725 0.305360 0.253297
C38   C     C_3   0.523191 0.876011 0.650773 -0.701495
H31   H     H_    0.474925 0.906915 0.707151 0.245634
H32   H     H_    0.522106 0.773082 0.652807 0.245832
H33   H     H_    0.633051 0.910450 0.647932 0.227969
C39   C     C_3   0.133763 0.352821 0.381244 -0.853755
H34   H     H_    0.121515 0.431601 0.339821 0.235816
H35   H     H_    0.243566 0.323813 0.378672 0.264595
H36   H     H_    0.073925 0.272479 0.359774 0.205443
C40   C     C_2   0.880585 0.654638 0.604440 0.314986
H37   H     H_    0.951346 0.730720 0.585542 0.072067
O12   O     O_2   0.780837 0.678602 0.648283 -0.554341
C41   C     C_2   0.846123 0.434784 0.644976 0.494081
H38   H     H_    0.848295 0.463316 0.705181 0.060575
O13   O     O_2   0.797654 0.331835 0.633407 -0.574156
C42   C     C_2   0.121309 0.407066 0.638863 0.409472
H39   H     H_    0.154923 0.436398 0.695026 0.078606
O14   O     O_2   0.107297 0.295948 0.629185 -0.569504
C43   C     C_3   0.872940 0.714099 0.420722 -0.834844
H40   H     H_    0.775032 0.704020 0.390051 0.294363
H41   H     H_    0.861541 0.769243 0.473201 0.224929
H42   H     H_    0.945430 0.768131 0.379102 0.194009
C44   C     C_2   0.284147 0.624615 0.906739 0.373698
H43   H     H_    0.270372 0.612757 0.969604 0.060498
O15   O     O_2   0.226378 0.711071 0.875533 -0.517894
C45   C     C_3   0.584658 0.242558 0.883149 -0.815176
H44   H     H_    0.630357 0.182561 0.837233 0.233141
H45   H     H_    0.669649 0.270329 0.920688 0.224266
H46   H     H_    0.504316 0.186482 0.918419 0.244860

loop_
_geom_bond_atom_site_label_1
_geom_bond_atom_site_label_2
_geom_bond_distance
_ccdc_geom_bond_type
C29   C31   1.577440 S    
H10   C25   1.114736 S    
C33   O9    1.221491 D    
C39   H34   1.105005 S    
C45   H45   1.108180 S    
C19   H7    1.110689 S    
C8    C16   1.464813 S    
C44   O15   1.221507 D    
C42   H39   1.086211 S    
H19   C31   1.105036 S    
C28   C39   1.546531 S    
Cu1   O7    1.960413 S    
C1    C23   1.500129 S    
C16   C17   1.337652 D    
C19   C20   1.554533 S    
C12   C37   1.507610 S    
C7    C45   1.509201 S    
O4    C2    1.310265 A    
O7    C4    1.312088 A    
C29   N1    1.534312 S    
C5    C6    1.394196 A    
C21   C38   1.556932 S    
N2    C32   1.499885 S    
C8    C9    1.417688 A    
C34   O10   1.220389 D    
O5    C3    1.311848 A    
Cu1   N2    2.051738 S    
C2    C5    1.449454 S    
C28   H17   1.101676 S    
C16   H6    1.086631 S    
C9    C10   1.399180 A    
C6    C7    1.394001 A    
C45   H44   1.111022 S    
C30   C41   1.543950 S    
C19   C23   1.585762 S    
N2    C31   1.483767 S    
C14   C33   1.487108 S    
C33   H22   1.083509 S    
C30   N1    1.540525 S    
C12   C18   1.414719 A    
C11   C12   1.391802 A    
C21   C23   1.593922 S    
C26   C36   1.551639 S    
C41   H38   1.087280 S    
C22   H11   1.107551 S    
O3    Cu1   1.955285 S    
C44   H43   1.083110 S    
C42   O14   1.219728 D    
C25   H14   1.114463 S    
C5    C10   1.393711 A    
C11   H4    1.083972 S    
C24   C26   1.568514 S    
C17   H3    1.086860 S    
C27   H15   1.111678 S    
C13   H2    1.083969 S    
Cu1   Cu2   2.733224 S    
C29   C43   1.520620 S    
C14   C15   1.409422 A    
C35   O11   1.221832 D    
C40   H37   1.083875 S    
C37   H29   1.109646 S    
C22   C26   1.534409 S    
C6    H1    1.081628 S    
C43   H42   1.111998 S    
C32   H20   1.113292 S    
O1    C1    1.302348 A    
C22   H12   1.102138 S    
C36   H25   1.108142 S    
C20   H8    1.113098 S    
C40   O12   1.220972 D    
C9    C44   1.488405 S    
C38   H31   1.111961 S    
Cu2   O8    1.955282 S    
C43   H41   1.094649 S    
C7    C8    1.414534 A    
C21   C25   1.565797 S    
C30   C40   1.533694 S    
C13   C18   1.405778 A    
C41   O13   1.219571 D    
C36   H26   1.105709 S    
C21   C35   1.531615 S    
C10   H5    1.083436 S    
O3    C2    1.304472 A    
C26   H13   1.114088 S    
C38   H32   1.109314 S    
O8    C4    1.310795 A    
C39   H35   1.104835 S    
C45   H46   1.110346 S    
O4    Cu2   1.960414 S    
C22   C23   1.556680 S    
Cu1   O5    1.982404 S    
C11   C15   1.401534 A    
C24   C25   1.553173 S    
C31   H21   1.112768 S    
O1    Cu1   1.972404 S    
Cu2   O6    1.972404 S    
O2    Cu2   1.982405 S    
C35   H24   1.085328 S    
O6    C3    1.303771 A    
C37   H30   1.101793 S    
C28   N2    1.522493 S    
C15   C17   1.467956 S    
C30   C32   1.607499 S    
C27   C28   1.597837 S    
C4    C18   1.467129 S    
O2    C1    1.317769 A    
C20   H9    1.113412 S    
Cu2   N1    2.053739 S    
C3    C24   1.485794 S    
C43   H40   1.106930 S    
H18   C29   1.117742 S    
C34   H23   1.085421 S    
C36   H27   1.110969 S    
C13   C14   1.400398 A    
C37   H28   1.111330 S    
C38   H33   1.107834 S    
C19   C34   1.518467 S    
C32   C42   1.543151 S    
C39   H36   1.111250 S    
C27   N1    1.503407 S    
C27   H16   1.098325 S    
C20   C24   1.550756 S    
