data_mof_unit_48615.cif
_audit_creation_date              2013-03-05T15:40:28-0500
_audit_creation_method            fapswitch 2.2
_symmetry_space_group_name_H-M    P1
_symmetry_Int_Tables_number       1
_space_group_crystal_system       triclinic
_cell_length_a                    7.419817
_cell_length_b                    8.711622
_cell_length_c                    13.482518
_cell_angle_alpha                 94.156529
_cell_angle_beta                  77.791827
_cell_angle_gamma                 103.04964
_cell_volume                      829.506007719

loop_
_atom_site_label
_atom_site_type_symbol
_atom_site_description
_atom_site_fract_x
_atom_site_fract_y
_atom_site_fract_z
_atom_type_partial_charge
O1    O     O_R   0.383920 0.714220 0.492660 -0.630350
O2    O     O_R   0.685730 0.742660 0.511730 -0.546545
C1    C     C_R   0.545346 0.799926 0.503122 0.754690
O3    O     O_R   0.275440 0.478800 0.636790 -0.594510
O4    O     O_R   0.577250 0.507240 0.655860 -0.589339
C2    C     C_R   0.400326 0.497029 0.694265 0.817721
Cu1   Cu    Cu3+1 0.321300 0.483160 0.488710 1.037303
Cu2   Cu    Cu3+1 0.678700 0.516840 0.511290 1.022958
O5    O     O_R   0.314270 0.257340 0.488270 -0.562138
O6    O     O_R   0.616080 0.285780 0.507340 -0.516820
O7    O     O_R   0.422750 0.492760 0.344140 -0.501520
O8    O     O_R   0.724560 0.521200 0.363210 -0.598401
C3    C     C_R   0.455074 0.199846 0.497063 0.928111
C4    C     C_R   0.600627 0.510360 0.305973 0.849255
C5    C     C_R   0.896684 0.606884 0.045979 -0.143229
H1    H     H_    0.958542 0.594425 0.192922 0.222109
H2    H     H_    0.934085 0.713484 0.861063 0.151614
H3    H     H_    0.041960 0.659900 0.013004 0.165465
C6    C     C_R   0.658525 0.521748 0.195153 -0.183315
C7    C     C_R   0.160952 0.391193 0.843200 -0.363625
C8    C     C_R   0.122676 0.320452 0.936498 0.600022
C9    C     C_R   0.261669 0.342539 0.994830 0.360313
C10   C     C_R   0.432874 0.457676 0.967040 -0.078592
C11   C     C_R   0.474668 0.524085 0.869583 0.024929
C12   C     C_R   0.568954 0.503365 0.029936 0.040220
C13   C     C_R   0.756156 0.580353 0.987724 0.086818
C14   C     C_R   0.795574 0.642949 0.891593 -0.166787
C15   C     C_R   0.652096 0.627177 0.837623 -0.107696
C16   C     C_R   0.518882 0.493487 0.135544 0.616174
C17   C     C_R   0.848886 0.571218 0.148628 -0.185374
C18   C     C_R   0.341241 0.480887 0.805097 -0.191911
H4    H     H_    0.055919 0.360533 0.796035 0.218235
H5    H     H_    0.683855 0.695645 0.769982 0.161574
C19   C     C_2   0.572686 0.967165 0.504804 0.444554
C20   C     C_2   0.431048 0.032320 0.495753 -0.471198
H6    H     H_    0.294178 0.961269 0.487191 0.165918
N1    N     N_2   0.947230 0.542220 0.528320 -0.213287
H7    H     H_    0.011392 0.617464 0.579216 0.219527
N2    N     N_2   0.052770 0.457780 0.471680 -0.170679
H8    H     H_    0.988560 0.382503 0.420820 0.272867
F1    F     F_    0.334123 0.480941 0.180543 -0.637254
Cl1   Cl    Cl    0.230436 0.197799 0.086240 -0.468107
F2    F     F_    0.955432 0.217155 0.965448 -0.610045
F3    F     F_    0.745480 0.053701 0.515651 -0.629658

loop_
_geom_bond_atom_site_label_1
_geom_bond_atom_site_label_2
_geom_bond_distance
_ccdc_geom_bond_type
C5    H3    1.084038 S    
C10   C11   1.419233 A    
N1    H7    1.029187 S    
O4    Cu2   1.935857 S    
C20   H6    1.087721 S    
Cu2   O8    1.954749 S    
O2    C1    1.281218 A    
C11   C18   1.423371 A    
Cu1   Cu2   2.681074 S    
N1    N2    1.289690 D    
C8    F2    1.357866 S    
C8    C9    1.396635 A    
Cu1   O7    1.935856 S    
C13   C14   1.390282 A    
C9    Cl1   1.770604 S    
O3    Cu1   1.954749 S    
Cu1   N2    2.014601 S    
Cu2   O6    1.960378 S    
O8    C4    1.303979 A    
C15   H5    1.080510 S    
C3    C20   1.429027 S    
C10   C12   1.424325 A    
C12   C16   1.397292 A    
O4    C2    1.290651 A    
O7    C4    1.289585 A    
Cu2   N1    2.014602 S    
H1    C17   1.083150 S    
H2    C14   1.084337 S    
C14   C15   1.388793 A    
C19   F3    1.363940 S    
C7    C8    1.387447 A    
C5    C17   1.393796 A    
O3    C2    1.305279 A    
C19   C20   1.332356 D    
C7    H4    1.083521 S    
N2    H8    1.029143 S    
Cu1   O5    1.955751 S    
O5    C3    1.285962 A    
C9    C10   1.427556 A    
C5    C13   1.403118 A    
C2    C18   1.473235 S    
C1    C19   1.424069 S    
C16   F1    1.359980 S    
C12   C13   1.415397 A    
O1    Cu1   1.960378 S    
C6    C17   1.401353 A    
C4    C6    1.468890 S    
O6    C3    1.287589 A    
O2    Cu2   1.955751 S    
C11   C15   1.416912 A    
O1    C1    1.290083 A    
C7    C18   1.399810 A    
C6    C16   1.410088 A    
