data_mof_unit_31131.cif
_audit_creation_date              2013-03-05T16:43:42-0500
_audit_creation_method            fapswitch 2.2
_symmetry_space_group_name_H-M    P1
_symmetry_Int_Tables_number       1
_space_group_crystal_system       triclinic
_cell_length_a                    15.711044
_cell_length_b                    10.708331
_cell_length_c                    9.887087
_cell_angle_alpha                 89.089136
_cell_angle_beta                  89.518764
_cell_angle_gamma                 90.6961
_cell_volume                      1662.99986658

loop_
_atom_site_label
_atom_site_type_symbol
_atom_site_description
_atom_site_fract_x
_atom_site_fract_y
_atom_site_fract_z
_atom_type_partial_charge
O1    O     O_R   0.500010 0.316790 0.614690 -0.598120
O2    O     O_R   0.500000 0.316760 0.385350 -0.636896
C1    C     C_R   0.503564 0.260317 0.500929 0.885533
O3    O     O_R   0.376780 0.500010 0.614650 -0.636111
O4    O     O_R   0.376770 0.499970 0.385310 -0.618802
C2    C     C_R   0.338024 0.500112 0.500146 0.884096
Zn1   Zn    Zn3+2 0.500010 0.500020 0.653130 1.001743
Zn2   Zn    Zn3+2 0.499990 0.499980 0.346870 0.997971
O5    O     O_R   0.500000 0.683240 0.614650 -0.597633
O6    O     O_R   0.499990 0.683210 0.385310 -0.571686
O7    O     O_R   0.623230 0.500030 0.614690 -0.611657
O8    O     O_R   0.623220 0.499990 0.385350 -0.618083
C3    C     C_R   0.502323 0.740288 0.498529 0.904030
C4    C     C_R   0.662062 0.500198 0.499438 0.907373
C5    C     C_3   0.970991 0.442168 0.605429 -0.122859
C6    C     C_3   0.027301 0.382486 0.495093 -0.228226
H1    H     H_    0.051061 0.285352 0.497757 0.161632
H2    H     H_    0.945181 0.393898 0.697417 0.156144
H3    H     H_    0.947002 0.393719 0.291393 0.167347
C7    C     C_1   0.249235 0.500799 0.498987 -0.164850
C8    C     C_1   0.751041 0.500515 0.497677 -0.147415
C9    C     C_3   0.028285 0.560936 0.602907 -0.206128
C10   C     C_3   0.083230 0.501132 0.492883 0.096328
C11   C     C_3   0.972605 0.620488 0.490687 -0.209351
C12   C     C_3   0.917276 0.501270 0.493071 0.147884
C13   C     C_3   0.028288 0.558774 0.383158 0.362327
C14   C     C_3   0.971554 0.441175 0.382414 -0.220488
C15   C     C_1   0.173998 0.501051 0.495806 -0.001296
C16   C     C_1   0.826390 0.500853 0.495412 -0.015815
H4    H     H_    0.948796 0.717661 0.487085 0.170322
H5    H     H_    0.053305 0.609016 0.693233 0.173355
C17   C     C_R   0.515103 0.061611 0.622994 0.088574
C18   C     C_R   0.519276 0.129930 0.502420 -0.200605
C19   C     C_R   0.539480 0.070161 0.381502 -0.227691
H6    H     H_    0.550059 0.122776 0.288149 0.221092
C20   C     C_R   0.537025 0.940870 0.376958 0.309188
C21   C     C_R   0.514946 0.872631 0.496290 -0.278016
C22   C     C_R   0.511602 0.934155 0.619075 -0.003650
C23   C     C_3   0.446913 0.924892 0.730995 0.070671
C24   C     C_3   0.452831 0.067159 0.738632 0.051001
H7    H     H_    0.383649 0.890220 0.696897 0.084962
H8    H     H_    0.392524 0.114602 0.712779 0.039933
C25   C     C_R   0.444819 0.424560 0.073383 0.158274
N1    N     N_R   0.499430 0.499140 0.142800 -0.129662
C26   C     C_R   0.560435 0.563798 0.069955 -0.001613
H9    H     H_    0.607924 0.618099 0.122452 0.179191
C27   C     C_R   0.560744 0.563188 0.926152 0.004869
H10   H     H_    0.608604 0.616734 0.870505 0.169795
N2    N     N_R   0.499430 0.499180 0.857150 -0.121962
C28   C     C_R   0.444030 0.424958 0.931082 0.212405
C29   C     C_3   0.348297 0.430437 0.931760 -0.180781
C30   C     C_3   0.350358 0.422049 0.087765 -0.168307
H11   H     H_    0.327807 0.524198 0.894999 0.197191
H12   H     H_    0.326396 0.508298 0.135543 0.216280
N3    N     N_R   0.478376 0.857046 0.849740 0.289965
O9    O     O_R   0.427660 0.779439 0.914269 -0.367019
O10   O     O_R   0.557687 0.866272 0.885953 -0.299864
N4    N     N_R   0.491567 0.113014 0.863061 0.265727
O11   O     O_R   0.563212 0.175420 0.859760 -0.347085
O12   O     O_R   0.451973 0.096519 0.978030 -0.385019
C31   C     C_3   0.304451 0.324168 0.854259 -0.337881
C32   C     C_3   0.210874 0.355119 0.827709 -0.361268
C33   C     C_3   0.164413 0.246177 0.762164 -0.874628
H13   H     H_    0.193544 0.226085 0.662216 0.253389
H14   H     H_    0.167269 0.161424 0.828132 0.272731
H15   H     H_    0.096611 0.270278 0.747494 0.259620
H16   H     H_    0.177500 0.379732 0.922544 0.237281
H17   H     H_    0.207434 0.438508 0.760413 0.233352
H18   H     H_    0.336815 0.314003 0.755098 0.217329
H19   H     H_    0.309467 0.232625 0.906615 0.227445
C34   C     C_3   0.322298 0.301031 0.164954 -0.332125
C35   C     C_3   0.225736 0.289942 0.187310 -0.357214
C36   C     C_3   0.203941 0.199459 0.303770 -0.864485
H20   H     H_    0.231621 0.106353 0.284579 0.284088
H21   H     H_    0.228952 0.235523 0.400542 0.244242
H22   H     H_    0.133773 0.188677 0.312941 0.257298
H23   H     H_    0.198434 0.382630 0.209948 0.260329
H24   H     H_    0.195571 0.252753 0.095359 0.239890
H25   H     H_    0.346259 0.215781 0.116533 0.239305
H26   H     H_    0.353000 0.302132 0.265430 0.237282
N5    N     N_R   0.058997 0.622745 0.260667 0.198884
O13   O     O_R   0.004731 0.667672 0.174641 -0.378881
O14   O     O_R   0.140136 0.635100 0.236150 -0.409217
N6    N     N_R   0.548870 0.883072 0.248904 0.228947
O15   O     O_R   0.622480 0.892382 0.188192 -0.346990
O16   O     O_R   0.482411 0.850499 0.179696 -0.287239

loop_
_geom_bond_atom_site_label_1
_geom_bond_atom_site_label_2
_geom_bond_distance
_ccdc_geom_bond_type
C31   H19   1.105228 S    
C5    H2    1.110211 S    
N3    O9    1.300424 A    
C33   H14   1.110744 S    
C36   H20   1.110994 S    
C29   C31   1.540840 S    
C34   H25   1.106115 S    
N5    O13   1.300356 A    
C27   N2    1.368596 A    
C26   H9    1.081538 S    
Zn1   O7    1.969731 S    
C13   C14   1.534116 S    
C35   H23   1.111311 S    
C32   H16   1.107492 S    
C4    C8    1.397877 S    
C20   C21   1.416293 A    
C21   C22   1.391314 A    
C11   C13   1.533978 S    
O4    C2    1.283807 A    
O7    C4    1.287992 A    
C25   C30   1.489578 S    
C5    C12   1.534014 S    
C1    C18   1.420703 S    
N4    O12   1.299747 A    
C5    C6    1.549474 S    
C19   H6    1.084238 S    
C10   C13   1.520006 S    
O5    C3    1.291932 A    
C35   H24   1.106277 S    
C5    C9    1.548922 S    
C23   N3    1.463519 S    
C6    H1    1.109351 S    
C17   C22   1.366457 A    
H3    C14   1.110188 S    
C3    C21   1.428392 S    
C6    C14   1.552655 S    
C24   H8    1.110332 S    
C33   H15   1.109273 S    
C36   H21   1.110569 S    
O3    Zn1   1.976231 S    
C34   H26   1.108131 S    
N5    O14   1.300379 A    
C30   H12   1.112296 S    
C18   C19   1.400915 A    
C26   C27   1.421880 A    
C12   C16   1.427854 S    
C24   N4    1.466117 S    
C9    H5    1.110295 S    
C29   C30   1.544265 S    
N6    O15   1.300519 A    
Zn1   N2    2.016984 S    
O3    C2    1.289959 A    
C23   C24   1.528253 S    
C7    C15   1.182763 T    
N4    O11   1.301942 A    
C8    C16   1.183789 T    
O1    C1    1.286583 A    
C25   N1    1.362235 A    
C32   C33   1.524794 S    
C27   H10   1.081401 S    
Zn2   O8    1.976233 S    
C28   C29   1.505881 S    
C10   C15   1.426606 S    
C11   C12   1.535492 S    
O8    C4    1.287017 A    
C13   N5    1.457574 S    
N3    O10   1.302412 A    
C36   H22   1.109858 S    
C9    C11   1.552531 S    
C12   C14   1.535698 S    
N1    C26   1.368641 A    
C31   H18   1.108143 S    
Zn1   O5    1.992585 S    
O1    Zn1   2.004480 S    
O2    Zn2   1.992582 S    
Zn2   N1    2.017913 S    
N6    O16   1.300329 A    
C35   C36   1.527002 S    
O6    C3    1.284486 A    
O4    Zn2   1.969732 S    
C25   C28   1.407036 A    
C6    C10   1.535727 S    
C2    C7    1.395211 S    
C32   H17   1.107197 S    
C17   C18   1.389415 A    
O2    C1    1.286177 A    
C34   C35   1.534168 S    
C30   C34   1.550859 S    
C22   C23   1.497476 S    
C20   N6    1.429835 S    
C19   C20   1.386012 A    
C17   C24   1.500885 S    
C31   C32   1.534853 S    
C11   H4    1.110163 S    
C33   H13   1.110789 S    
C23   H7    1.113585 S    
Zn2   O6    2.004480 S    
N2    C28   1.370273 A    
C9    C10   1.535732 S    
C29   H11   1.114450 S    
