data_mof_unit_20616.cif
_audit_creation_date              2012-12-10T18:19:13-0500
_audit_creation_method            fapswitch 2.2
_symmetry_space_group_name_H-M    P1
_symmetry_Int_Tables_number       1
_space_group_crystal_system       triclinic
_cell_length_a                    14.918362
_cell_length_b                    14.2287
_cell_length_c                    11.51956
_cell_angle_alpha                 89.976648
_cell_angle_beta                  87.748286
_cell_angle_gamma                 89.281737
_cell_volume                      2443.16423567

loop_
_atom_site_label
_atom_site_type_symbol
_atom_type_description
_atom_site_fract_x
_atom_site_fract_y
_atom_site_fract_z
_atom_type_partial_charge
C1    C     C_R   0.327333 0.500572 0.504364 0.924895
C2    C     C_R   0.448119 0.201552 0.580277 0.042798
C3    C     C_R   0.446586 0.799722 0.578713 0.044626
C4    C     C_R   0.552155 0.200764 0.419244 0.038944
C5    C     C_R   0.438112 0.900099 0.571355 -0.084176
C6    C     C_R   0.560802 0.100124 0.424981 -0.090729
C7    C     C_R   0.561378 0.898204 0.426591 -0.084044
C8    C     C_R   0.439121 0.101513 0.572814 -0.088430
C9    C     C_R   0.500087 0.949687 0.499264 0.102831
C10   C     C_R   0.500166 0.050369 0.499159 0.106694
C11   C     C_R   0.368409 0.951906 0.631211 -0.082008
C12   C     C_R   0.672694 0.499440 0.496439 0.929311
C13   C     C_R   0.628360 0.047718 0.360788 -0.088634
C14   C     C_R   0.629524 0.948093 0.363461 -0.083836
C15   C     C_R   0.369616 0.051464 0.633627 -0.089094
C16   C     C_R   0.499567 0.500020 0.282228 0.911081
C17   C     C_R   0.500441 0.499982 0.717773 0.904844
C18   C     C_1   0.499520 0.500043 0.161681 -0.107771
C19   C     C_1   0.500541 0.499963 0.838318 -0.109544
C20   C     C_1   0.499812 0.500022 0.059381 0.043211
C21   C     C_1   0.500281 0.499983 0.940617 0.043083
C22   C     C_R   0.817738 0.482139 0.390477 0.169072
C23   C     C_R   0.911697 0.471976 0.394938 0.014809
C24   C     C_R   0.182413 0.518138 0.610901 0.186307
C25   C     C_R   0.768162 0.497931 0.494070 -0.071501
C26   C     C_R   0.231889 0.502153 0.507204 -0.076917
C27   C     C_R   0.808357 0.515185 0.597632 -0.219028
C28   C     C_R   0.191614 0.484795 0.403814 -0.232308
C29   C     C_R   0.900946 0.522476 0.600479 0.046975
C30   C     C_R   0.099072 0.477812 0.401143 0.080280
C31   C     C_R   0.953285 0.498857 0.499166 0.049019
C32   C     C_R   0.046770 0.501640 0.502416 0.057138
C33   C     C_2   0.884966 0.587282 0.803519 0.942457
C34   C     C_R   0.088421 0.528443 0.606609 -0.016408
C35   C     C_2   0.115264 0.411934 0.198489 0.985094
C36   C     C_2   0.074514 0.623260 0.792358 0.978476
C37   C     C_2   0.925835 0.377361 0.209127 0.973430
C38   C     C_2   0.590354 0.746798 0.318193 0.974256
C39   C     C_2   0.410344 0.252386 0.682442 0.968717
C40   C     C_2   0.406092 0.749714 0.679256 0.971489
C41   C     C_2   0.591499 0.252225 0.319323 0.970109
C42   C     C_2   0.284532 0.904385 0.670394 0.928732
C43   C     C_2   0.705819 0.094646 0.301920 0.932705
C44   C     C_2   0.710837 0.897837 0.315747 0.926743
C45   C     C_R   0.941235 0.554880 0.701611 -0.092737
C46   C     C_2   0.289378 0.101651 0.684052 0.933997
C47   C     C_R   0.058839 0.445133 0.300266 -0.225891
C48   C     C_R   0.035075 0.562989 0.702445 -0.101066
C49   C     C_R   0.965092 0.437305 0.299281 -0.116285
C50   C     C_R   0.552623 0.798029 0.420086 0.047928
H1    H     H_    0.765674 0.527084 0.674711 0.154744
H2    H     H_    0.587579 0.280196 0.148035 0.357989
H3    H     H_    0.174755 0.834891 0.623180 0.392312
H4    H     H_    0.771133 0.125300 0.150245 0.357936
H5    H     H_    0.819706 0.818438 0.349271 0.372547
H6    H     H_    0.215868 0.138065 0.827950 0.377237
H7    H     H_    0.234181 0.472438 0.326713 0.153678
H8    H     H_    0.843236 0.564086 0.969463 0.368895
H9    H     H_    0.087489 0.526685 0.103567 0.354363
H10   H     H_    0.155433 0.731504 0.826408 0.380410
H11   H     H_    0.845598 0.269160 0.174410 0.358015
H12   H     H_    0.584457 0.722321 0.146336 0.363313
H13   H     H_    0.415677 0.275674 0.854606 0.365351
H14   H     H_    0.407143 0.725672 0.851644 0.360207
I1    I     I_    0.749220 0.499450 0.230339 -0.234053
I2    I     I_    0.250918 0.500381 0.770969 -0.145842
N1    N     N_R   0.500000 0.750030 0.500000 -0.181700
N2    N     N_R   0.500000 0.249970 0.500000 -0.181243
O1    O     O_R   0.367850 0.580280 0.500030 -0.583218
O2    O     O_R   0.883920 0.535062 0.906307 -0.700146
O3    O     O_2   0.156114 0.337291 0.203950 -0.516586
O4    O     O_R   0.122747 0.465466 0.097006 -0.688711
O5    O     O_2   0.057048 0.609864 0.895562 -0.559503
O6    O     O_R   0.132188 0.695623 0.758012 -0.771572
O7    O     O_2   0.942530 0.391927 0.105931 -0.546588
O8    O     O_R   0.869312 0.303940 0.243252 -0.710480
O9    O     O_2   0.656290 0.696133 0.326808 -0.579625
O10   O     O_R   0.552445 0.760201 0.210324 -0.760263
O11   O     O_2   0.344806 0.303638 0.673841 -0.569347
O12   O     O_R   0.632150 0.419720 0.499970 -0.581373
O13   O     O_R   0.447702 0.237977 0.790460 -0.757955
O14   O     O_2   0.340516 0.700713 0.667855 -0.570434
O15   O     O_R   0.440861 0.762546 0.788918 -0.758074
O16   O     O_2   0.658030 0.299884 0.330369 -0.561524
O17   O     O_R   0.554366 0.242609 0.210530 -0.754377
O18   O     O_2   0.260752 0.904231 0.773192 -0.542959
O19   O     O_R   0.232423 0.861193 0.587988 -0.745238
O20   O     O_2   0.762792 0.131452 0.359675 -0.539021
O21   O     O_R   0.714156 0.094326 0.180641 -0.711661
O22   O     O_2   0.728611 0.898076 0.211217 -0.529402
O23   O     O_R   0.632150 0.580280 0.499970 -0.577382
O24   O     O_R   0.766703 0.850323 0.391426 -0.744353
O25   O     O_2   0.238329 0.142569 0.620037 -0.553560
O26   O     O_R   0.272300 0.101335 0.804206 -0.705154
O27   O     O_R   0.367850 0.419720 0.500030 -0.576339
O28   O     O_R   0.500010 0.580270 0.334450 -0.614284
O29   O     O_R   0.499990 0.419730 0.665550 -0.615375
O30   O     O_R   0.499990 0.580270 0.665550 -0.613422
O31   O     O_R   0.500010 0.419730 0.334450 -0.611991
O32   O     O_2   0.839468 0.659018 0.796774 -0.580097
Zn1   Zn    Zn3+2 0.500000 0.607200 0.500000 1.042516
Zn2   Zn    Zn3+2 0.500000 0.392800 0.500000 1.043693

loop_
_geom_bond_atom_site_label_1
_geom_bond_atom_site_label_2
_ccdc_geom_bond_type
C27   C29   A    
C33   C45   S    
C12   O23   A    
C35   C47   S    
C47   C49   A    
C28   H7    S    
H6    O26   S    
C43   O21   S    
H13   O13   S    
C43   O20   D    
H2    O17   S    
C19   C21   T    
N2    Zn2   S    
C5    C11   A    
C2    N2    A    
C23   C49   A    
C4    C41   S    
C11   C42   S    
C32   C34   A    
C11   C15   A    
C2    C39   S    
C7    C14   A    
C22   C25   A    
C42   O18   D    
C17   O30   A    
O29   Zn2   S    
C44   O24   S    
O27   Zn2   S    
C24   I2    S    
H9    O4    S    
C37   O7    D    
C35   O3    D    
C13   C14   A    
C40   O15   S    
O23   Zn1   S    
C27   H1    S    
H11   O8    S    
C3    N1    A    
C16   O28   A    
C40   O14   D    
C30   C47   A    
C39   O13   S    
H4    O21   S    
C4    C6    A    
C4    N2    A    
H8    O2    S    
C38   O10   S    
C41   O16   D    
C22   I1    S    
C24   C34   A    
C50   N1    A    
C29   C45   A    
C39   O11   D    
H14   O15   S    
C5    C9    A    
H5    O24   S    
C37   C49   S    
C31   C32   A    
C46   O26   S    
C1    O27   A    
H3    O19   S    
C36   O6    S    
C33   O2    S    
C16   C18   S    
C37   O8    S    
C35   O4    S    
C8    C15   A    
C1    C26   S    
C34   C48   A    
C13   C43   S    
C44   O22   D    
N1    Zn1   S    
C14   C44   S    
C9    C10   A    
C45   C48   A    
C7    C9    A    
C3    C40   S    
H12   O10   S    
C2    C8    A    
C7    C50   A    
C24   C26   A    
C3    C5    A    
C6    C10   A    
C16   O31   A    
C38   C50   S    
C38   O9    D    
O1    Zn1   S    
C25   C27   A    
O30   Zn1   S    
C41   O17   S    
C26   C28   A    
C12   C25   S    
C33   O32   D    
C28   C30   A    
C29   C31   A    
C6    C13   A    
C30   C32   A    
C46   O25   D    
C12   O12   A    
H10   O6    S    
C17   C19   S    
C36   C48   S    
C18   C20   T    
C1    O1    A    
C36   O5    D    
O31   Zn2   S    
C20   C21   S    
C8    C10   A    
O12   Zn2   S    
C22   C23   A    
C42   O19   S    
C15   C46   S    
O28   Zn1   S    
C17   O29   A    
C23   C31   A    
