data_mof_unit_65873.cif
_audit_creation_date              2013-03-05T15:42:52-0500
_audit_creation_method            fapswitch 2.2
_symmetry_space_group_name_H-M    P1
_symmetry_Int_Tables_number       1
_space_group_crystal_system       triclinic
_cell_length_a                    38.01205
_cell_length_b                    38.084313
_cell_length_c                    38.076972
_cell_angle_alpha                 60.085014
_cell_angle_beta                  119.730912
_cell_angle_gamma                 119.842932
_cell_volume                      39127.7859674

loop_
_atom_site_label
_atom_site_type_symbol
_atom_site_description
_atom_site_fract_x
_atom_site_fract_y
_atom_site_fract_z
_atom_type_partial_charge
O1    O     O_R   0.445310 0.938650 0.996390 -0.542290
O2    O     O_R   0.503720 0.010500 0.054630 -0.557725
O3    O     O_R   0.496230 0.061430 0.945380 -0.587413
O4    O     O_R   0.554740 0.989420 0.003600 -0.586178
O5    O     O_R   0.554690 0.061350 0.003610 -0.538814
O6    O     O_R   0.496280 0.989500 0.945370 -0.571221
O7    O     O_R   0.503770 0.938570 0.054620 -0.591227
O8    O     O_R   0.445260 0.010580 0.996400 -0.571992
Cu1   Cu    Cu3+1 0.465520 0.000050 0.965650 1.074512
Cu2   Cu    Cu3+1 0.534480 0.999950 0.034350 1.084468
C1    C     C_R   0.465697 0.013035 0.034329 0.882526
C2    C     C_R   0.534174 0.986393 0.965652 0.800252
C3    C     C_R   0.533865 0.081894 0.966081 0.848907
C4    C     C_R   0.466657 0.917974 0.033327 0.854531
C5    C     C_R   0.323714 0.676551 0.114797 0.476060
C6    C     C_R   0.385333 0.675582 0.176410 0.442626
C7    C     C_R   0.386141 0.737723 0.114899 0.387906
N1    N     N_R   0.343918 0.655852 0.155878 -0.360971
N2    N     N_R   0.406125 0.716671 0.155988 -0.342546
N3    N     N_R   0.344925 0.717438 0.094426 -0.328744
C8    C     C_R   0.263179 0.614322 0.091532 -0.157204
C9    C     C_R   0.218958 0.594788 0.072012 0.284492
C10   C     C_R   0.189833 0.616771 0.053774 -0.256566
C11   C     C_R   0.204673 0.658126 0.055758 -0.154551
C12   C     C_R   0.248535 0.677426 0.075866 0.298392
C13   C     C_R   0.277897 0.655789 0.093467 -0.126987
C14   C     C_R   0.394481 0.800895 0.048550 -0.136907
C15   C     C_R   0.414558 0.844167 0.027693 -0.031949
C16   C     C_R   0.447538 0.870909 0.052636 -0.096968
C17   C     C_R   0.461443 0.852446 0.097603 -0.149563
C18   C     C_R   0.442276 0.809042 0.117737 -0.096078
C19   C     C_R   0.408099 0.783078 0.093457 0.083536
H1    H     H_    0.486666 0.871888 0.117486 0.175882
H2    H     H_    0.368974 0.780566 0.029625 0.193842
H3    H     H_    0.453399 0.796129 0.152467 0.175199
C20   C     C_R   0.382225 0.630546 0.249569 -0.198133
C21   C     C_R   0.401095 0.612824 0.293751 -0.074342
C22   C     C_R   0.445042 0.616592 0.310592 -0.254951
C23   C     C_R   0.469404 0.639336 0.282587 0.243816
C24   C     C_R   0.450134 0.658147 0.238217 0.262805
C25   C     C_R   0.406283 0.653782 0.221832 -0.069554
H4    H     H_    0.348836 0.628314 0.236840 0.213856
C26   C     C_R   0.386961 0.035306 0.175757 0.462098
C27   C     C_R   0.325796 0.038442 0.113789 0.435951
C28   C     C_R   0.386853 0.037919 0.112574 0.473727
N4    N     N_R   0.346004 0.035812 0.155608 -0.364839
N5    N     N_R   0.346245 0.039134 0.092624 -0.311108
N6    N     N_R   0.407193 0.036137 0.154160 -0.322507
C29   C     C_R   0.406956 0.056935 0.237547 -0.112177
C30   C     C_R   0.425393 0.050816 0.281913 0.242978
C31   C     C_R   0.446699 0.020361 0.310163 -0.242892
C32   C     C_R   0.449473 0.995681 0.294294 0.257184
C33   C     C_R   0.429271 0.999882 0.250526 -0.106463
C34   C     C_R   0.408279 0.030897 0.221849 -0.106890
C35   C     C_R   0.450451 0.056026 0.094301 0.305764
C36   C     C_R   0.469151 0.047727 0.076704 -0.197361
C37   C     C_R   0.445002 0.018252 0.054654 -0.210900
C38   C     C_R   0.401205 0.995206 0.051051 -0.132603
C39   C     C_R   0.382079 0.003024 0.068896 0.271166
C40   C     C_R   0.406634 0.033250 0.090792 -0.136702
H5    H     H_    0.502545 0.065609 0.078853 0.231965
C41   C     C_R   0.252224 0.004498 0.116213 -0.164378
C42   C     C_R   0.207838 0.995087 0.096919 0.327521
C43   C     C_R   0.190739 0.018228 0.053265 -0.222628
C44   C     C_R   0.218764 0.050293 0.029379 -0.132601
C45   C     C_R   0.263756 0.058894 0.049164 -0.053854
C46   C     C_R   0.280183 0.035261 0.092831 -0.015552
H6    H     H_    0.264935 0.985723 0.149332 0.206959
C47   C     C_R   0.719430 0.965819 0.843916 -0.147730
C48   C     C_R   0.655015 0.966092 0.780542 -0.036628
C49   C     C_R   0.655811 0.966432 0.844783 -0.033419
C50   C     C_R   0.697592 0.965575 0.801215 0.293051
C51   C     C_R   0.634505 0.966366 0.802426 -0.233326
H7    H     H_    0.601832 0.966941 0.786212 0.212306
C52   C     C_R   0.698607 0.966365 0.865814 0.287714
C53   C     C_R   0.869109 0.976615 0.882334 -0.148073
C54   C     C_R   0.912675 0.980998 0.902552 -0.152352
C55   C     C_R   0.933167 0.977587 0.946115 -0.147330
C56   C     C_R   0.908139 0.968657 0.969620 -0.124425
C57   C     C_R   0.863813 0.963693 0.949026 0.289815
C58   C     C_R   0.844633 0.968275 0.905135 -0.009804
H8    H     H_    0.930577 0.987780 0.883658 0.187990
H9    H     H_    0.854560 0.980328 0.848509 0.191901
C59   C     C_R   0.615900 0.976792 0.943813 -0.112046
C60   C     C_R   0.596579 0.980128 0.964677 -0.153681
C61   C     C_R   0.554291 0.980733 0.944567 -0.065821
C62   C     C_R   0.531596 0.977367 0.903250 -0.181995
C63   C     C_R   0.550625 0.974218 0.881570 -0.019067
C64   C     C_R   0.593580 0.974072 0.902360 0.032558
H10   H     H_    0.614976 0.982670 0.996452 0.177122
H11   H     H_    0.498990 0.977966 0.887449 0.202111
H12   H     H_    0.648665 0.976586 0.960091 0.185677
C65   C     C_R   0.598641 0.950508 0.637630 0.352665
C66   C     C_R   0.580720 0.957683 0.593293 -0.176301
C67   C     C_R   0.555149 0.984002 0.565626 -0.173503
C68   C     C_R   0.548322 0.005128 0.582500 -0.098770
C69   C     C_R   0.566295 0.998371 0.627214 -0.091917
C70   C     C_R   0.591532 0.971062 0.654745 -0.086543
H13   H     H_    0.585741 0.941508 0.580322 0.226699
C71   C     C_1   0.800381 0.966966 0.882768 0.119745
C72   C     C_1   0.763534 0.966278 0.864977 0.184154
C73   C     C_1   0.615576 0.970948 0.882389 0.077425
C74   C     C_1   0.633904 0.968711 0.865441 0.142357
C75   C     C_1   0.631976 0.966496 0.736655 0.149873
C76   C     C_1   0.613446 0.967840 0.699666 0.135708
C77   C     C_R   0.656739 0.406218 0.779824 -0.097870
C78   C     C_R   0.721351 0.404439 0.843344 -0.100224
C79   C     C_R   0.657696 0.339969 0.841546 -0.145916
C80   C     C_R   0.699298 0.427504 0.801924 -0.123132
C81   C     C_R   0.700455 0.360816 0.863176 0.282315
C82   C     C_R   0.635847 0.362461 0.799697 0.289687
C83   C     C_R   0.607509 0.511871 0.637263 0.261891
C84   C     C_R   0.585460 0.532764 0.594471 -0.129303
C85   C     C_R   0.553312 0.508242 0.567216 -0.200847
C86   C     C_R   0.542348 0.463345 0.584106 -0.226365
C87   C     C_R   0.563639 0.442274 0.626646 0.323580
C88   C     C_R   0.596672 0.466775 0.653401 -0.133428
H14   H     H_    0.518026 0.444483 0.563392 0.207610
C89   C     C_R   0.566828 0.187399 0.880857 -0.144816
C90   C     C_R   0.545677 0.144723 0.901070 -0.207865
C91   C     C_R   0.554133 0.128514 0.945581 -0.184182
C92   C     C_R   0.583451 0.156547 0.969805 0.242798
C93   C     C_R   0.604643 0.200066 0.949127 0.265997
C94   C     C_R   0.596554 0.215140 0.904482 -0.051683
H15   H     H_    0.523472 0.123893 0.881919 0.186231
H16   H     H_    0.560083 0.198782 0.846538 0.198250
C95   C     C_R   0.861537 0.506876 0.898537 -0.219195
C96   C     C_R   0.904439 0.528887 0.918316 0.338427
C97   C     C_R   0.934101 0.506267 0.945341 -0.202586
C98   C     C_R   0.919722 0.462136 0.952508 -0.271223
C99   C     C_R   0.876775 0.439973 0.933179 0.366791
C100  C     C_R   0.847391 0.462842 0.905778 -0.064125
H17   H     H_    0.942415 0.444806 0.973148 0.206695
H18   H     H_    0.838738 0.524103 0.877837 0.204515
C101  C     C_1   0.617967 0.445882 0.698157 0.177607
C102  C     C_1   0.635593 0.428154 0.735351 0.168242
C103  C     C_1   0.617649 0.259233 0.882084 0.131872
C104  C     C_1   0.635606 0.295933 0.863467 0.177613
C105  C     C_1   0.765794 0.425203 0.865597 0.157063
C106  C     C_1   0.802902 0.442351 0.883917 0.135374
O9    O     O_R   0.503250 0.616760 0.377070 -0.548268
O10   O     O_R   0.444360 0.558610 0.448360 -0.562966
O11   O     O_R   0.553910 0.565980 0.499810 -0.575639
O12   O     O_R   0.496220 0.507360 0.428420 -0.578975
O13   O     O_R   0.495620 0.507600 0.499760 -0.581016
O14   O     O_R   0.554510 0.565750 0.428470 -0.563872
O15   O     O_R   0.444960 0.558380 0.377020 -0.552819
O16   O     O_R   0.502660 0.617000 0.448410 -0.581975
Cu3   Cu    Cu3+1 0.533820 0.596620 0.438450 1.094992
Cu4   Cu    Cu3+1 0.465050 0.527740 0.438380 1.088820
C107  C     C_R   0.465231 0.596070 0.452235 0.861334
C108  C     C_R   0.533668 0.528342 0.424276 0.846584
C109  C     C_R   0.533015 0.528514 0.520416 0.838085
C110  C     C_R   0.465403 0.596319 0.356908 0.917677
O17   O     O_R   0.123550 0.557920 0.054250 -0.539449
O18   O     O_R   0.051380 0.616340 0.995310 -0.563964
O19   O     O_R   0.000830 0.506860 0.002990 -0.585842
O20   O     O_R   0.073110 0.565030 0.945140 -0.588054
O21   O     O_R   0.000880 0.565150 0.944590 -0.541469
O22   O     O_R   0.073050 0.506740 0.003540 -0.566818
O23   O     O_R   0.123600 0.616220 0.995860 -0.554946
O24   O     O_R   0.051330 0.558040 0.053710 -0.586478
Cu5   Cu    Cu3+1 0.062190 0.527150 0.033870 1.091959
Cu6   Cu    Cu3+1 0.062250 0.595920 0.964980 1.098922
C111  C     C_R   0.048247 0.595742 0.033106 0.838745
C112  C     C_R   0.076205 0.527147 0.965775 0.821636
C113  C     C_R   0.980409 0.527481 0.965398 0.859717
C114  C     C_R   0.143649 0.595912 0.033719 0.863892
O25   O     O_R   0.496460 0.989960 0.499360 -0.573849
O26   O     O_R   0.555020 0.061660 0.427790 -0.592750
O27   O     O_R   0.445550 0.011170 0.376700 -0.536917
O28   O     O_R   0.503780 0.938910 0.448180 -0.528152
O29   O     O_R   0.503940 0.010900 0.376650 -0.552465
O30   O     O_R   0.445380 0.939190 0.448220 -0.552199
O31   O     O_R   0.554860 0.989680 0.499320 -0.565816
O32   O     O_R   0.496630 0.061940 0.427830 -0.553278
Cu7   Cu    Cu3+1 0.465760 0.000590 0.438030 1.168726
Cu8   Cu    Cu3+1 0.534650 0.000260 0.437980 1.149166
C115  C     C_R   0.534439 0.082428 0.424557 0.844382
C116  C     C_R   0.465940 0.918849 0.451350 0.910299
C117  C     C_R   0.466331 0.014205 0.356489 0.893330
C118  C     C_R   0.534672 0.987967 0.519447 0.846358
O33   O     O_R   0.000890 0.987010 0.945020 -0.584246
O34   O     O_R   0.072840 0.058540 0.003530 -0.589744
O35   O     O_R   0.123730 0.007180 0.995970 -0.565157
O36   O     O_R   0.051790 0.935610 0.054170 -0.548535
O37   O     O_R   0.123730 0.007160 0.054320 -0.546572
O38   O     O_R   0.051780 0.935630 0.995810 -0.586832
O39   O     O_R   0.000890 0.986990 0.003380 -0.562123
O40   O     O_R   0.072840 0.058560 0.945170 -0.529842
Cu9   Cu    Cu3+1 0.062310 0.997100 0.965250 1.106808
Cu10  Cu    Cu3+1 0.062310 0.997070 0.034090 1.105149
C119  C     C_R   0.076695 0.079221 0.965868 0.829698
C120  C     C_R   0.046964 0.915056 0.032919 0.870524
C121  C     C_R   0.143995 0.010486 0.033570 0.868178
C122  C     C_R   0.980239 0.983777 0.965762 0.817271
C123  C     C_R   0.660085 0.341070 0.413554 -0.109807
C124  C     C_R   0.722914 0.406314 0.414086 0.012954
C125  C     C_R   0.656482 0.405012 0.410340 -0.024230
C126  C     C_R   0.703743 0.362957 0.415874 -0.071143
C127  C     C_R   0.699292 0.426802 0.411550 -0.198260
H19   H     H_    0.714553 0.459744 0.411192 0.180200
C128  C     C_R   0.636515 0.362159 0.410857 0.318551
C129  C     C_R   0.618922 0.193876 0.413519 -0.053263
C130  C     C_R   0.597552 0.149937 0.418773 -0.191751
C131  C     C_R   0.554769 0.129513 0.418276 -0.137686
C132  C     C_R   0.532641 0.154582 0.411548 -0.102917
C133  C     C_R   0.554004 0.198746 0.406745 0.279200
C134  C     C_R   0.597388 0.218148 0.408753 -0.067490
H20   H     H_    0.614523 0.131527 0.422851 0.204771
C135  C     C_R   0.549241 0.456840 0.393050 0.306757
C136  C     C_R   0.528862 0.478623 0.394433 -0.133357
C137  C     C_R   0.553654 0.508354 0.417152 -0.129402
C138  C     C_R   0.598312 0.517241 0.435814 -0.147357
C139  C     C_R   0.618188 0.496152 0.433739 -0.164488
C140  C     C_R   0.593984 0.465630 0.412974 -0.001554
H21   H     H_    0.617892 0.539810 0.453207 0.175019
H22   H     H_    0.652650 0.503390 0.448855 0.170919
C141  C     C_R   0.875760 0.441985 0.443224 0.279025
C142  C     C_R   0.919109 0.460861 0.444973 -0.166653
C143  C     C_R   0.936516 0.505812 0.425034 -0.289772
C144  C     C_R   0.909588 0.531200 0.402891 0.260221
C145  C     C_R   0.866170 0.512159 0.400780 0.226348
C146  C     C_R   0.849431 0.467671 0.421125 -0.165964
C147  C     C_1   0.620227 0.261759 0.409866 0.162641
C148  C     C_1   0.638536 0.297808 0.411482 0.153853
C149  C     C_1   0.615708 0.444299 0.411488 0.079261
C150  C     C_1   0.634068 0.426473 0.410618 0.092926
C151  C     C_1   0.767431 0.429735 0.416424 0.106187
C152  C     C_1   0.804678 0.447771 0.418464 0.200874
C153  C     C_R   0.032811 0.736196 0.118745 0.428833
C154  C     C_R   0.038041 0.677116 0.182821 0.487372
C155  C     C_R   0.040452 0.676393 0.122501 0.414147
N7    N     N_R   0.034008 0.716691 0.160241 -0.300497
N8    N     N_R   0.041512 0.657278 0.163941 -0.320141
N9    N     N_R   0.035798 0.715730 0.100149 -0.342614
C156  C     C_R   0.012901 0.797857 0.103755 0.298012
C157  C     C_R   0.015305 0.841471 0.081903 -0.134414
C158  C     C_R   0.038516 0.868171 0.052478 -0.132269
C159  C     C_R   0.056014 0.850289 0.043175 -0.136628
C160  C     C_R   0.052689 0.807241 0.063930 -0.128636
C161  C     C_R   0.032165 0.780813 0.094993 -0.023415
H23   H     H_    0.073638 0.870071 0.020669 0.189177
H24   H     H_    0.067690 0.795001 0.056627 0.228909
C162  C     C_R   0.061788 0.680551 0.067108 0.372971
C163  C     C_R   0.060089 0.660850 0.043300 -0.166523
C164  C     C_R   0.044318 0.616201 0.054489 -0.096497
C165  C     C_R   0.028993 0.590941 0.089223 -0.187428
C166  C     C_R   0.029045 0.609687 0.112825 -0.048981
C167  C     C_R   0.044655 0.655155 0.101462 -0.076282
H25   H     H_    0.073700 0.680447 0.017580 0.186605
H26   H     H_    0.017460 0.556211 0.098511 0.181511
C168  C     C_R   0.071504 0.677784 0.258323 -0.048219
C169  C     C_R   0.073114 0.657393 0.301217 -0.190842
C170  C     C_R   0.046305 0.615389 0.315364 -0.165810
C171  C     C_R   0.015573 0.593519 0.285939 0.255296
C172  C     C_R   0.011307 0.614427 0.241870 0.241320
C173  C     C_R   0.040278 0.656312 0.228225 -0.097382
H27   H     H_    0.097073 0.673566 0.324437 0.201318
C174  C     C_R   0.094850 0.402573 0.783739 -0.099084
C175  C     C_R   0.097420 0.339948 0.849249 -0.057536
C176  C     C_R   0.096158 0.404324 0.847614 -0.097866
C177  C     C_R   0.096030 0.360121 0.805921 -0.071843
C178  C     C_R   0.098184 0.362200 0.870451 -0.065399
C179  C     C_R   0.094609 0.424536 0.804404 0.315754
C180  C     C_R   0.116709 0.468728 0.643419 -0.169591
C181  C     C_R   0.115419 0.491098 0.600601 0.330519
C182  C     C_R   0.080698 0.506395 0.569905 -0.207168
C183  C     C_R   0.047751 0.499219 0.582874 -0.116577
C184  C     C_R   0.049982 0.477055 0.626536 -0.042968
C185  C     C_R   0.084808 0.461926 0.656571 -0.022761
H28   H     H_    0.143540 0.457429 0.667056 0.194385
C186  C     C_R   0.094513 0.508325 0.888163 -0.113002
C187  C     C_R   0.091417 0.529141 0.907599 -0.140903
C188  C     C_R   0.081381 0.505977 0.945719 -0.051071
C189  C     C_R   0.074471 0.461607 0.963998 -0.175369
C190  C     C_R   0.076357 0.440022 0.944231 -0.004307
C191  C     C_R   0.086941 0.463941 0.906016 0.033651
H29   H     H_    0.096923 0.563360 0.892821 0.174315
H30   H     H_    0.065969 0.443339 0.993037 0.195607
H31   H     H_    0.102637 0.526919 0.858907 0.180246
C192  C     C_R   0.090693 0.193915 0.885928 -0.165857
C193  C     C_R   0.087270 0.150446 0.904102 0.343194
C194  C     C_R   0.083879 0.126276 0.945962 -0.146658
C195  C     C_R   0.085378 0.147414 0.968566 -0.195606
C196  C     C_R   0.089348 0.190887 0.950159 -0.108501
C197  C     C_R   0.091756 0.214109 0.908739 0.044990
H32   H     H_    0.082914 0.130185 0.000482 0.192251
H33   H     H_    0.092935 0.212141 0.853904 0.189535
H34   H     H_    0.090069 0.206259 0.968094 0.181978
C198  C     C_1   0.089460 0.440905 0.701666 0.120950
C199  C     C_1   0.092403 0.423498 0.739085 0.153005
C200  C     C_1   0.091013 0.443918 0.885071 0.094668
C201  C     C_1   0.093835 0.426390 0.867940 0.168144
C202  C     C_1   0.096348 0.295651 0.871408 0.109083
C203  C     C_1   0.094606 0.258565 0.888997 0.067053
C204  C     C_R   0.390516 0.674082 0.481997 0.415536
C205  C     C_R   0.327382 0.674406 0.479272 0.494287
C206  C     C_R   0.388120 0.737001 0.477381 0.478285
N10   N     N_R   0.349226 0.653809 0.481327 -0.283390
N11   N     N_R   0.346903 0.716081 0.477199 -0.290118
N12   N     N_R   0.409659 0.715982 0.479438 -0.384190
C207  C     C_R   0.398292 0.607147 0.491332 0.359768
C208  C     C_R   0.414921 0.589165 0.480997 -0.192677
C209  C     C_R   0.446766 0.615208 0.461511 -0.072988
C210  C     C_R   0.462263 0.659675 0.452454 -0.135906
C211  C     C_R   0.445022 0.678119 0.461103 -0.159292
C212  C     C_R   0.412302 0.652500 0.479674 -0.000779
H35   H     H_    0.404105 0.554594 0.489668 0.195162
H36   H     H_    0.487085 0.680421 0.437655 0.178382
H37   H     H_    0.456509 0.712786 0.451883 0.190548
C213  C     C_R   0.450874 0.799922 0.497504 -0.150841
C214  C     C_R   0.469824 0.844518 0.490257 0.256784
C215  C     C_R   0.445940 0.872247 0.458763 -0.284980
C216  C     C_R   0.403166 0.855525 0.433954 0.225731
C217  C     C_R   0.384654 0.811426 0.439724 0.272563
C218  C     C_R   0.408206 0.783354 0.471754 -0.162719
C219  C     C_R   0.254032 0.629524 0.445887 0.248268
C220  C     C_R   0.209740 0.610654 0.439473 0.244719
C221  C     C_R   0.192595 0.615502 0.461572 -0.229452
C222  C     C_R   0.219616 0.639057 0.489682 -0.212394
C223  C     C_R   0.263966 0.657171 0.497247 0.325453
C224  C     C_R   0.281394 0.652880 0.474808 -0.157619
H38   H     H_    0.206227 0.641962 0.507095 0.218631
O41   O     O_R   0.003310 0.564970 0.431960 -0.528421
O42   O     O_R   0.075360 0.506600 0.504280 -0.565467
O43   O     O_R   0.126300 0.615920 0.453270 -0.590695
O44   O     O_R   0.055140 0.557300 0.381780 -0.528988
O45   O     O_R   0.126740 0.557420 0.453690 -0.529638
O46   O     O_R   0.054700 0.615800 0.381360 -0.571980
O47   O     O_R   0.003760 0.506470 0.432380 -0.565045
O48   O     O_R   0.074910 0.565090 0.503860 -0.545844
Cu11  Cu    Cu3+1 0.064760 0.595700 0.442570 1.155481
Cu12  Cu    Cu3+1 0.065290 0.526690 0.443070 1.174349
C225  C     C_R   0.077032 0.526983 0.524015 0.840761
C226  C     C_R   0.051531 0.594892 0.361374 0.890668
C227  C     C_R   0.146559 0.595369 0.456124 0.906023
C228  C     C_R   0.983139 0.526793 0.429539 0.860897
N13   N     N_R   0.203851 0.553625 0.068198 0.145369
O49   O     O_R   0.196816 0.518854 0.100589 -0.253578
O50   O     O_R   0.190650 0.550699 0.030732 -0.342706
N14   N     N_R   0.512956 0.640830 0.298692 0.162622
O51   O     O_R   0.544415 0.675511 0.305000 -0.262256
O52   O     O_R   0.521113 0.605887 0.312598 -0.300214
N15   N     N_R   0.512292 0.861355 0.517247 0.151639
O53   O     O_R   0.545479 0.870294 0.508543 -0.245995
O54   O     O_R   0.517533 0.873525 0.546433 -0.353353
N16   N     N_R   0.379119 0.883652 0.400811 0.159763
O55   O     O_R   0.360945 0.897110 0.410799 -0.261385
O56   O     O_R   0.368479 0.888823 0.360802 -0.244544
C229  C     C_2   0.475037 0.770729 0.533747 0.957577
O57   O     O_2   0.457608 0.738509 0.558630 -0.524754
O58   O     O_R   0.517690 0.780098 0.539529 -0.676103
H39   H     H_    0.530562 0.757824 0.565272 0.360957
N17   N     N_R   0.342190 0.795538 0.411887 0.165286
O59   O     O_R   0.335717 0.775378 0.388800 -0.275460
O60   O     O_R   0.310350 0.803185 0.407803 -0.231363
N18   N     N_R   0.181858 0.589789 0.407770 0.160066
O61   O     O_R   0.186627 0.556512 0.411305 -0.227630
O62   O     O_R   0.151234 0.603745 0.375506 -0.355727
N19   N     N_R   0.270437 0.628188 0.419976 0.159693
O63   O     O_R   0.275079 0.592993 0.428089 -0.232157
O64   O     O_R   0.284288 0.663135 0.390767 -0.277401
N20   N     N_R   0.290816 0.678480 0.528740 0.158891
O65   O     O_R   0.327318 0.672578 0.555509 -0.269908
O66   O     O_R   0.276249 0.698902 0.534719 -0.276629
N21   N     N_R   0.474362 0.679120 0.209646 0.152659
O67   O     O_R   0.510839 0.709938 0.216264 -0.258755
O68   O     O_R   0.459475 0.668140 0.176245 -0.291068
N22   N     N_R   0.425577 0.077969 0.297910 0.148515
O69   O     O_R   0.391569 0.069923 0.304733 -0.246100
O70   O     O_R   0.461407 0.106449 0.311590 -0.331473
N23   N     N_R   0.470539 0.964175 0.323259 0.146305
O71   O     O_R   0.509560 0.972851 0.326620 -0.251939
O72   O     O_R   0.452770 0.929064 0.349699 -0.322760
C230  C     C_2   0.388874 0.092478 0.207376 0.944871
O73   O     O_2   0.364748 0.097935 0.215181 -0.491583
O74   O     O_R   0.399520 0.119731 0.169879 -0.703350
H40   H     H_    0.385003 0.142393 0.151763 0.366144
C231  C     C_2   0.427765 0.969438 0.235818 0.945789
O75   O     O_2   0.393268 0.948660 0.216009 -0.534559
O76   O     O_R   0.465692 0.964490 0.244670 -0.670862
H41   H     H_    0.460427 0.942942 0.232917 0.354515
C232  C     C_2   0.376005 0.960519 0.031767 0.939949
O77   O     O_2   0.391301 0.933711 0.042182 -0.595828
O78   O     O_R   0.334734 0.958304 0.001996 -0.666201
H42   H     H_    0.320900 0.933221 0.991358 0.360728
N24   N     N_R   0.476032 0.088607 0.114292 0.154431
O79   O     O_R   0.517134 0.095768 0.133753 -0.263831
O80   O     O_R   0.459703 0.114963 0.108250 -0.279933
C233  C     C_2   0.174085 0.680125 0.040113 0.928844
O81   O     O_2   0.166133 0.682895 0.065883 -0.540641
O82   O     O_R   0.155485 0.698703 0.996058 -0.696448
H43   H     H_    0.135646 0.713276 0.989395 0.347143
N25   N     N_R   0.338669 0.977318 0.068192 0.144809
O83   O     O_R   0.331137 0.945802 0.102466 -0.285121
O84   O     O_R   0.306904 0.988272 0.034963 -0.251257
N26   N     N_R   0.180554 0.960435 0.121638 0.144104
O85   O     O_R   0.147054 0.932048 0.105268 -0.343784
O86   O     O_R   0.192690 0.953369 0.162430 -0.278650
C234  C     C_2   0.201207 0.076945 0.984785 0.927894
O87   O     O_2   0.188917 0.104545 0.978166 -0.568101
O88   O     O_R   0.198176 0.069900 0.950560 -0.659261
H44   H     H_    0.185919 0.090201 0.921666 0.378361
C235  C     C_2   0.293872 0.094297 0.025454 0.895807
O89   O     O_2   0.287258 0.098131 0.989059 -0.502884
O90   O     O_R   0.330232 0.122985 0.045227 -0.724829
H45   H     H_    0.348527 0.145339 0.026216 0.366856
N27   N     N_R   0.718640 0.964969 0.778917 0.140916
O91   O     O_R   0.718422 0.992200 0.740578 -0.305726
O92   O     O_R   0.737897 0.936997 0.796763 -0.295949
N28   N     N_R   0.721012 0.967489 0.908938 0.146561
O93   O     O_R   0.703130 0.941076 0.938542 -0.296622
O94   O     O_R   0.758783 0.995921 0.918426 -0.284165
C236  C     C_2   0.926904 0.963227 0.015830 0.981371
O95   O     O_2   0.917551 0.927523 0.042187 -0.507277
O96   O     O_R   0.953785 0.999201 0.028954 -0.714407
H46   H     H_    0.964220 0.991469 0.061253 0.348708
C237  C     C_2   0.294230 0.592475 0.107469 0.943172
O97   O     O_2   0.286285 0.554234 0.128609 -0.488086
O98   O     O_R   0.332704 0.615797 0.098250 -0.728008
H47   H     H_    0.351284 0.597558 0.111059 0.367376
N29   N     N_R   0.838450 0.954724 0.972544 0.147077
O99   O     O_R   0.850871 0.978894 0.994257 -0.263029
O100  O     O_R   0.802393 0.922829 0.971617 -0.255970
C238  C     C_2   0.524798 0.971503 0.837477 0.872731
O101  O     O_2   0.485730 0.961949 0.824808 -0.546870
O102  O     O_R   0.544671 0.980397 0.810006 -0.762976
H48   H     H_    0.523440 0.977451 0.781088 0.363689
C239  C     C_2   0.523273 0.035053 0.553451 0.952258
O103  O     O_2   0.533047 0.064462 0.522330 -0.559821
O104  O     O_R   0.488835 0.029772 0.561985 -0.708079
H49   H     H_    0.474457 0.052227 0.540024 0.372394
N30   N     N_R   0.624127 0.922503 0.664563 0.158265
O105  O     O_R   0.643750 0.917141 0.648583 -0.264028
O106  O     O_R   0.624492 0.898986 0.703822 -0.280313
C240  C     C_2   0.560453 0.021478 0.645013 0.907717
O107  O     O_2   0.549369 0.001836 0.676862 -0.568996
O108  O     O_R   0.567904 0.065709 0.625448 -0.715586
H50   H     H_    0.562847 0.077668 0.640473 0.360885
N31   N     N_R   0.263051 0.718682 0.079484 0.146971
O109  O     O_R   0.283077 0.723412 0.116992 -0.295163
O110  O     O_R   0.255205 0.751305 0.045412 -0.276064
C241  C     C_2   0.720624 0.473971 0.781957 0.903496
O111  O     O_2   0.702192 0.499504 0.767170 -0.496165
O112  O     O_R   0.761870 0.488533 0.780603 -0.740778
H51   H     H_    0.772963 0.520816 0.766508 0.366443
N32   N     N_R   0.722530 0.337737 0.905677 0.166916
O113  O     O_R   0.738304 0.351725 0.937231 -0.248382
O114  O     O_R   0.726161 0.302244 0.913075 -0.257860
N33   N     N_R   0.592467 0.340890 0.777394 0.150737
O115  O     O_R   0.582277 0.303555 0.775727 -0.304406
O116  O     O_R   0.562961 0.358479 0.758675 -0.284968
C242  C     C_2   0.595846 0.579989 0.579148 0.954758
O117  O     O_2   0.566940 0.595236 0.560243 -0.573443
O118  O     O_R   0.638685 0.606957 0.586818 -0.681798
H52   H     H_    0.641599 0.638385 0.575035 0.355905
N34   N     N_R   0.640700 0.536452 0.664745 0.161277
O119  O     O_R   0.680449 0.539761 0.676718 -0.276701
O120  O     O_R   0.631630 0.557656 0.675590 -0.264447
N35   N     N_R   0.551459 0.396142 0.641750 0.158926
O121  O     O_R   0.512561 0.373232 0.624848 -0.278297
O122  O     O_R   0.579945 0.377083 0.669058 -0.291226
N36   N     N_R   0.591716 0.141123 0.015179 0.164645
O123  O     O_R   0.630971 0.147322 0.041644 -0.239625
O124  O     O_R   0.560057 0.122014 0.030072 -0.330314
C243  C     C_2   0.401495 0.859085 0.980243 0.881490
O125  O     O_2   0.428431 0.883331 0.962218 -0.574377
O126  O     O_R   0.358430 0.843630 0.956232 -0.718843
H53   H     H_    0.353513 0.855538 0.924299 0.358303
N37   N     N_R   0.632973 0.229036 0.973226 0.154895
O127  O     O_R   0.620731 0.231218 0.998298 -0.229876
O128  O     O_R   0.671022 0.253456 0.970132 -0.241522
N38   N     N_R   0.916666 0.573440 0.911883 0.144572
O129  O     O_R   0.897868 0.598148 0.875706 -0.293752
O130  O     O_R   0.941713 0.587873 0.943933 -0.327647
N39   N     N_R   0.864188 0.394809 0.941304 0.144070
O131  O     O_R   0.825319 0.369247 0.940844 -0.252620
O132  O     O_R   0.892676 0.378240 0.952882 -0.301791
C244  C     C_2   0.729459 0.340541 0.420730 0.925214
O133  O     O_2   0.728576 0.304885 0.447619 -0.537540
O134  O     O_R   0.754968 0.360382 0.394890 -0.713040
H54   H     H_    0.771053 0.341997 0.401415 0.373476
N40   N     N_R   0.592249 0.340216 0.408241 0.145632
O135  O     O_R   0.562836 0.355322 0.375078 -0.219852
O136  O     O_R   0.581069 0.304104 0.437895 -0.263150
C245  C     C_2   0.486725 0.136155 0.407475 0.982060
O137  O     O_2   0.476023 0.114195 0.439589 -0.520046
O138  O     O_R   0.455936 0.145083 0.366894 -0.659856
H55   H     H_    0.425662 0.130941 0.368113 0.368724
C246  C     C_2   0.663498 0.213595 0.412413 0.925477
O139  O     O_2   0.687126 0.191971 0.432473 -0.534370
O140  O     O_R   0.678071 0.256427 0.387238 -0.730821
H56   H     H_    0.708627 0.265767 0.388518 0.364769
N41   N     N_R   0.531574 0.223998 0.400013 0.145935
O141  O     O_R   0.511947 0.211616 0.426212 -0.250172
O142  O     O_R   0.530906 0.259608 0.367691 -0.243730
C247  C     C_2   0.482020 0.470448 0.371564 0.945955
O143  O     O_2   0.468295 0.500579 0.348560 -0.543980
O144  O     O_R   0.453665 0.428308 0.375963 -0.676186
H57   H     H_    0.422671 0.426935 0.358677 0.361201
N42   N     N_R   0.524674 0.426279 0.370897 0.151855
O145  O     O_R   0.520783 0.385938 0.392272 -0.223226
O146  O     O_R   0.504341 0.438287 0.329815 -0.261059
C248  C     C_2   0.946372 0.433298 0.470161 0.980928
O147  O     O_2   0.959127 0.421408 0.509350 -0.532803
O148  O     O_R   0.956357 0.420018 0.448967 -0.670524
H58   H     H_    0.974945 0.401084 0.469577 0.351202
N43   N     N_R   0.925493 0.576103 0.380096 0.175095
O149  O     O_R   0.935067 0.604434 0.395811 -0.240769
O150  O     O_R   0.935661 0.588441 0.346765 -0.265137
N44   N     N_R   0.858399 0.396487 0.463848 0.149076
O151  O     O_R   0.862275 0.369273 0.455951 -0.283616
O152  O     O_R   0.838687 0.382120 0.490619 -0.304571
N45   N     N_R   0.838727 0.537946 0.376665 0.156571
O153  O     O_R   0.802852 0.527300 0.346713 -0.286565
O154  O     O_R   0.848665 0.571212 0.385628 -0.244151
C249  C     C_2   0.990852 0.857895 0.087484 0.937075
O155  O     O_2   0.968200 0.878266 0.055937 -0.571936
O156  O     O_R   0.993538 0.850089 0.128552 -0.655944
H59   H     H_    0.975355 0.862954 0.127941 0.368752
N46   N     N_R   0.988505 0.770300 0.132531 0.141082
O157  O     O_R   0.952592 0.740309 0.121954 -0.271045
O158  O     O_R   0.005262 0.770849 0.171546 -0.243443
N47   N     N_R   0.084017 0.725969 0.057988 0.127517
O159  O     O_R   0.080401 0.751455 0.018505 -0.323489
O160  O     O_R   0.113691 0.740734 0.089018 -0.292972
C250  C     C_2   0.013592 0.580133 0.149750 0.927504
O161  O     O_2   0.975512 0.558820 0.143744 -0.487482
O162  O     O_R   0.043097 0.574846 0.191381 -0.705871
H60   H     H_    0.029180 0.552336 0.214107 0.375625
N48   N     N_R   0.986829 0.551258 0.300444 0.163169
O163  O     O_R   0.994644 0.517957 0.308369 -0.250625
O164  O     O_R   0.957485 0.545909 0.312596 -0.274243
C251  C     C_2   0.104195 0.720704 0.246663 0.942040
O165  O     O_2   0.117194 0.745717 0.265066 -0.513449
O166  O     O_R   0.121287 0.732118 0.215825 -0.723531
H61   H     H_    0.143285 0.762061 0.210958 0.371681
N49   N     N_R   0.975887 0.594592 0.210795 0.148226
O167  O     O_R   0.954050 0.617163 0.175283 -0.267602
O168  O     O_R   0.962751 0.553383 0.219255 -0.238415
C252  C     C_2   0.095669 0.336654 0.783891 0.873897
O169  O     O_2   0.070557 0.337332 0.747691 -0.544098
O170  O     O_R   0.124025 0.313667 0.804723 -0.742738
H62   H     H_    0.120507 0.298882 0.786664 0.357399
C253  C     C_2   0.101332 0.341662 0.916554 0.895949
O171  O     O_2   0.078532 0.304720 0.929722 -0.582276
O172  O     O_R   0.130468 0.364789 0.944854 -0.734173
H63   H     H_    0.129545 0.347561 0.975199 0.357858
N50   N     N_R   0.092426 0.467367 0.781307 0.124310
O173  O     O_R   0.120020 0.497348 0.761751 -0.316747
O174  O     O_R   0.062485 0.476379 0.779255 -0.325238
N51   N     N_R   0.150074 0.498708 0.589122 0.142431
O175  O     O_R   0.164475 0.535027 0.561334 -0.352580
O176  O     O_R   0.170871 0.471563 0.610266 -0.281690
C254  C     C_2   0.009123 0.511589 0.550526 0.879939
O177  O     O_2   0.012645 0.549270 0.529000 -0.521529
O178  O     O_R   0.968518 0.480015 0.545908 -0.703841
H64   H     H_    0.944688 0.492213 0.522995 0.344760
C255  C     C_2   0.016504 0.470373 0.641041 0.937302
O179  O     O_2   0.003336 0.499635 0.628012 -0.524228
O180  O     O_R   0.000205 0.430662 0.669737 -0.716772
H65   H     H_    0.977918 0.430233 0.677364 0.362975
C256  C     C_2   0.374200 0.593006 0.321152 0.913172
O181  O     O_2   0.389702 0.597625 0.356027 -0.591952
O182  O     O_R   0.330420 0.570519 0.306079 -0.713264
H66   H     H_    0.315304 0.558999 0.327247 0.365869
C257  C     C_2   0.065955 0.392607 0.963680 0.874499
O183  O     O_2   0.073135 0.375301 0.002443 -0.539609
O184  O     O_R   0.046628 0.367450 0.937776 -0.743599
H67   H     H_    0.040558 0.335654 0.954860 0.367590
N52   N     N_R   0.087532 0.131908 0.879489 0.137432
O185  O     O_R   0.062306 0.137283 0.839828 -0.312717
O186  O     O_R   0.119078 0.118602 0.893041 -0.302562
N53   N     N_R   0.368820 0.578911 0.515078 0.146040
O187  O     O_R   0.341167 0.543035 0.508240 -0.262498
O188  O     O_R   0.374398 0.585255 0.548325 -0.279084

loop_
_geom_bond_atom_site_label_1
_geom_bond_atom_site_label_2
_geom_bond_distance
_ccdc_geom_bond_type
C162  N47   1.436589 S    
C162  C167  1.423707 A    
N53   O188  1.301472 A    
C62   H11   1.083264 S    
C213  C229  1.487591 S    
N51   O175  1.301371 A    
C20   H4    1.084685 S    
C198  C199  1.206519 T    
C111  C164  1.470171 S    
O16   C107  1.281331 A    
C39   N25   1.434053 S    
C8    C13   1.417154 A    
C244  O133  1.222857 D    
C85   C86   1.403816 A    
C99   N39   1.442273 S    
C219  N19   1.434094 S    
Cu11  Cu12  2.628801 S    
C165  C166  1.397915 A    
C206  C218  1.479435 S    
C192  C193  1.403091 A    
C210  H36   1.083242 S    
C219  C224  1.416307 A    
O26   Cu8   1.951693 S    
O38   Cu9   1.951155 S    
C62   C63   1.412931 A    
C194  C195  1.410259 A    
C84   C85   1.419702 A    
C252  O169  1.223042 D    
C84   C242  1.485300 S    
O9    C110  1.284947 A    
O34   C119  1.290455 A    
C43   C121  1.477824 S    
C257  O183  1.223367 D    
N52   O186  1.300460 A    
O162  H60   1.013091 S    
C144  N43   1.433307 S    
O25   Cu7   1.950229 S    
N40   O135  1.300317 A    
C157  C158  1.420896 A    
C168  C173  1.417918 A    
O32   C115  1.286270 A    
C189  H30   1.083713 S    
C256  O182  1.398854 S    
C250  O161  1.222236 D    
O45   Cu12  1.950333 S    
C155  N8    1.357123 A    
C153  N9    1.356519 A    
O22   C112  1.284423 A    
O4    C2    1.291647 A    
C204  C212  1.480484 S    
O5    C3    1.288425 A    
O3    C3    1.288382 A    
C163  H25   1.083071 S    
C35   C40   1.414705 A    
C9    N13   1.434154 S    
C14   C19   1.402362 A    
C39   C40   1.416863 A    
C8    C9    1.413904 A    
C145  N45   1.437330 S    
C246  O140  1.398007 S    
C205  N10   1.354044 A    
O35   C121  1.283883 A    
C53   H9    1.083666 S    
C185  C198  1.445370 S    
C75   C76   1.209291 T    
C27   N4    1.356441 A    
C155  C167  1.491058 S    
N30   O105  1.301589 A    
C28   N5    1.354539 A    
C5    N3    1.357390 A    
N42   O146  1.300964 A    
C107  C209  1.469876 S    
C31   C32   1.409967 A    
O22   Cu5   1.948316 S    
C94   C103  1.449115 S    
O15   Cu4   1.949736 S    
C172  N49   1.443138 S    
C21   C256  1.485948 S    
C131  C132  1.423426 A    
C215  C216  1.409861 A    
O126  H53   1.013888 S    
C217  C218  1.414565 A    
O10   C107  1.286034 A    
C139  C140  1.397698 A    
C21   C22   1.418841 A    
C93   N37   1.437423 S    
O24   C111  1.282040 A    
C247  O143  1.223204 D    
C26   C34   1.481854 S    
C207  C208  1.403469 A    
C60   H10   1.082820 S    
C86   H14   1.083399 S    
N44   O151  1.301173 A    
C154  N7    1.356828 A    
O180  H65   1.013820 S    
C245  O138  1.396893 S    
C11   C12   1.407790 A    
O30   Cu7   1.951656 S    
C68   C239  1.485596 S    
C156  C161  1.414316 A    
O104  H49   1.013857 S    
C243  O126  1.398373 S    
C193  N52   1.432860 S    
C56   C236  1.478705 S    
C78   C81   1.411212 A    
C88   C101  1.453550 S    
C130  C131  1.405469 A    
O178  H64   1.013991 S    
C168  C251  1.488272 S    
C55   C56   1.428524 A    
C52   N28   1.438808 S    
O27   C117  1.285651 A    
C31   C117  1.476268 S    
C232  O78   1.397509 S    
C105  C106  1.210133 T    
C249  O155  1.222954 D    
C47   C72   1.450958 S    
O82   H43   1.013619 S    
C186  C191  1.402103 A    
C79   C82   1.413009 A    
C41   H6    1.084050 S    
N32   O113  1.301100 A    
C98   C99   1.405596 A    
N39   O132  1.301646 A    
C142  C248  1.479307 S    
O170  H62   1.013844 S    
O39   C122  1.283304 A    
N38   O129  1.301386 A    
C17   C18   1.393679 A    
C169  H27   1.084784 S    
N16   O55   1.300738 A    
O21   C113  1.287657 A    
C153  N7    1.357203 A    
N14   O52   1.300971 A    
C216  N16   1.434406 S    
C154  N8    1.356529 A    
C80   C241  1.486094 S    
C239  O104  1.398000 S    
O25   C118  1.284702 A    
O11   C109  1.286842 A    
C206  N12   1.357712 A    
C126  C244  1.487380 S    
C89   H16   1.083801 S    
O11   Cu3   1.949736 S    
C63   C64   1.419650 A    
N41   O141  1.301169 A    
C222  C223  1.400012 A    
C7    C19   1.476894 S    
C9    C10   1.410256 A    
C124  C126  1.414813 A    
O74   H40   1.013809 S    
C235  O89   1.222367 D    
O16   Cu3   1.950204 S    
C165  H26   1.084793 S    
C231  O75   1.223199 D    
C220  N18   1.435820 S    
C5    N1    1.356152 A    
N50   O174  1.301185 A    
C170  C226  1.470761 S    
C174  C199  1.449174 S    
C24   C25   1.411222 A    
O40   Cu9   1.951813 S    
O42   Cu12  1.947304 S    
O88   H44   1.013379 S    
C251  O165  1.223350 D    
C237  O97   1.222394 D    
C95   H18   1.084131 S    
C217  N17   1.437288 S    
C96   C97   1.415635 A    
O6    Cu1   1.948697 S    
C69   C70   1.417373 A    
C93   C94   1.413405 A    
C60   C61   1.403275 A    
C36   C37   1.399194 A    
C166  C167  1.422149 A    
C16   C17   1.406041 A    
C54   H8    1.082915 S    
C11   C233  1.481004 S    
N28   O93   1.301164 A    
C197  C203  1.439476 S    
C187  C188  1.402740 A    
C180  C185  1.395940 A    
N37   O128  1.300615 A    
N50   O173  1.301185 A    
C86   C87   1.404370 A    
N20   O65   1.301461 A    
C172  C173  1.421186 A    
C128  N40   1.434176 S    
O12   Cu4   1.950537 S    
C50   N27   1.439894 S    
C141  C146  1.408801 A    
C236  O95   1.222377 D    
O118  H52   1.013821 S    
C141  C142  1.412957 A    
C65   N30   1.442119 S    
C236  O96   1.397832 S    
C242  O117  1.223242 D    
C125  C150  1.450800 S    
O13   Cu4   1.950964 S    
C123  C148  1.454008 S    
C256  O181  1.222819 D    
C77   C102  1.455625 S    
C135  C140  1.409673 A    
C192  C197  1.395733 A    
C190  C191  1.415233 A    
C68   C69   1.419873 A    
C132  C245  1.477799 S    
O2    C1    1.285353 A    
C81   N32   1.436662 S    
C142  C143  1.421087 A    
C151  C152  1.207776 T    
C230  O74   1.398742 S    
O156  H59   1.013906 S    
C77   C82   1.414752 A    
C112  C188  1.480854 S    
C248  O148  1.397489 S    
N34   O119  1.300483 A    
C187  H29   1.082909 S    
C63   C238  1.493505 S    
O48   Cu11  1.948119 S    
C139  H22   1.083658 S    
C23   C24   1.411269 A    
N36   O123  1.301150 A    
C23   N14   1.433221 S    
O17   Cu5   1.951190 S    
C12   C13   1.412951 A    
C213  C218  1.418182 A    
C220  C221  1.409069 A    
C241  O111  1.222355 D    
C47   C50   1.414729 A    
C200  C201  1.207316 T    
O3    Cu1   1.949638 S    
C3    C91   1.485925 S    
C18   C19   1.400818 A    
C204  N12   1.358320 A    
C222  H38   1.083840 S    
C176  C201  1.450308 S    
C55   C122  1.498422 S    
C136  C137  1.422999 A    
N18   O62   1.301103 A    
O37   Cu10  1.952036 S    
N17   O60   1.301063 A    
C209  C210  1.400009 A    
C129  C246  1.486475 S    
C175  C202  1.451043 S    
N26   O86   1.301410 A    
C4    C16   1.483428 S    
N45   O153  1.301190 A    
O30   C116  1.281868 A    
O102  H48   1.013944 S    
C97   C98   1.405041 A    
O28   Cu8   1.950676 S    
C233  O82   1.397202 S    
N17   O59   1.301343 A    
C49   C74   1.452386 S    
C163  C164  1.395929 A    
C208  C209  1.400516 A    
C136  C247  1.485410 S    
C36   H5    1.083518 S    
O36   C120  1.281744 A    
C42   C43   1.414024 A    
C244  O134  1.398129 S    
C175  C178  1.416117 A    
C181  C182  1.415406 A    
C33   C34   1.418346 A    
C207  C212  1.420647 A    
C57   N29   1.439298 S    
C87   N35   1.441698 S    
O26   C115  1.294595 A    
C160  H24   1.082056 S    
N27   O91   1.301210 A    
O12   C108  1.286341 A    
C252  O170  1.398497 S    
C37   C38   1.414239 A    
C130  H20   1.083558 S    
C43   C44   1.418364 A    
C71   C72   1.208908 T    
C79   C81   1.410896 A    
C24   N21   1.436826 S    
C251  O166  1.398683 S    
C78   C105  1.454737 S    
C73   C74   1.212026 T    
O47   Cu12  1.950613 S    
C141  N44   1.439917 S    
N33   O115  1.301261 A    
C92   N36   1.435877 S    
C129  C130  1.405171 A    
C156  N46   1.433236 S    
C250  O162  1.397938 S    
C29   C30   1.412388 A    
C193  C194  1.423638 A    
O21   Cu6   1.951498 S    
O27   Cu7   1.948359 S    
C27   C46   1.474034 S    
C184  C255  1.491277 S    
O1    C4    1.286835 A    
C59   H12   1.083820 S    
O43   C227  1.284305 A    
C162  C163  1.400325 A    
C246  O139  1.223349 D    
C6    C25   1.474597 S    
C240  O107  1.223130 D    
C30   N22   1.434328 S    
C77   C80   1.416815 A    
O7    Cu2   1.949634 S    
C35   C36   1.400479 A    
O76   H41   1.013842 S    
N51   O176  1.301477 A    
C51   H7    1.084971 S    
C158  C159  1.398867 A    
O48   C225  1.282933 A    
O19   C113  1.285151 A    
C176  C179  1.410257 A    
O58   H39   1.013839 S    
C124  C151  1.447246 S    
C101  C102  1.210688 T    
N29   O100  1.301211 A    
C178  C253  1.490966 S    
C54   C55   1.406891 A    
C32   C33   1.407035 A    
N19   O64   1.300962 A    
O98   H47   1.013822 S    
C12   N31   1.438684 S    
C15   C16   1.422673 A    
C237  O98   1.398698 S    
C147  C148  1.209904 T    
N23   O72   1.300233 A    
O6    C2    1.288577 A    
N43   O149  1.300711 A    
C48   C75   1.447756 S    
N31   O110  1.301161 A    
C238  O101  1.223607 D    
C44   C234  1.479868 S    
C96   N38   1.438255 S    
C7    N3    1.357871 A    
C253  O171  1.223023 D    
C143  C144  1.417482 A    
C179  N50   1.439625 S    
O44   Cu12  1.948119 S    
O40   C119  1.284937 A    
O182  H66   1.013955 S    
Cu5   Cu6   2.624459 S    
C254  O178  1.397736 S    
C133  C134  1.410681 A    
O46   Cu11  1.947334 S    
N44   O152  1.301222 A    
C129  C134  1.412708 A    
C247  O144  1.398147 S    
O34   Cu10  1.951155 S    
C69   C240  1.490552 S    
N15   O54   1.300669 A    
O28   C116  1.285958 A    
C255  O180  1.398457 S    
C223  C224  1.415580 A    
O29   C117  1.281853 A    
C216  C217  1.404717 A    
C154  C173  1.476094 S    
C183  C184  1.419623 A    
C125  C128  1.410618 A    
C78   C80   1.414688 A    
C20   C25   1.398277 A    
C134  C147  1.453533 S    
C174  C177  1.414860 A    
C234  O87   1.222425 D    
O31   Cu8   1.948705 S    
C240  O108  1.398398 S    
C208  H35   1.083449 S    
C181  N51   1.440530 S    
C196  H34   1.083553 S    
C211  C212  1.405472 A    
C233  O81   1.222528 D    
C153  C161  1.480727 S    
O1    Cu1   1.949926 S    
C59   C60   1.399612 A    
C145  C146  1.407971 A    
C202  C203  1.206324 T    
C61   C62   1.407378 A    
C171  N48   1.432141 S    
C249  O156  1.397253 S    
C38   C39   1.409309 A    
N35   O121  1.301536 A    
C159  H23   1.083485 S    
Cu9   Cu10  2.620647 S    
N52   O185  1.301048 A    
C205  N11   1.355343 A    
N32   O114  1.301103 A    
C123  C126  1.417025 A    
O108  H50   1.013823 S    
O45   C227  1.282836 A    
C38   C232  1.487377 S    
C41   C42   1.395063 A    
C8    C237  1.488967 S    
C146  C152  1.449499 S    
O14   Cu3   1.951254 S    
N38   O130  1.301414 A    
N13   O49   1.300755 A    
C137  C138  1.404563 A    
O17   C114  1.285449 A    
C48   C51   1.401209 A    
N16   O56   1.300778 A    
C30   C31   1.408802 A    
N21   O68   1.301419 A    
C15   C243  1.483518 S    
C91   C92   1.418117 A    
N34   O120  1.300921 A    
C135  N42   1.433358 S    
N48   O164  1.300584 A    
C18   H3    1.083086 S    
C98   H17   1.083594 S    
C95   C96   1.407235 A    
O43   Cu11  1.950879 S    
O23   Cu6   1.952246 S    
C254  O177  1.222120 D    
O20   C112  1.288138 A    
C231  O76   1.397391 S    
O24   Cu5   1.950428 S    
C103  C104  1.210011 T    
C28   N6    1.356647 A    
N42   O145  1.300264 A    
C20   C21   1.397349 A    
O42   C225  1.287105 A    
N14   O51   1.300694 A    
N45   O154  1.300500 A    
N22   O70   1.300910 A    
N25   O83   1.300742 A    
C229  O58   1.397511 S    
C58   C71   1.447510 S    
C100  C106  1.449121 S    
C108  C137  1.488680 S    
C186  H31   1.083753 S    
C32   N23   1.434443 S    
O10   Cu4   1.951258 S    
C169  C170  1.396514 A    
N28   O94   1.301098 A    
O78   H42   1.013874 S    
O184  H67   1.013835 S    
O44   C226  1.285474 A    
C177  C252  1.492254 S    
C180  H28   1.084171 S    
Cu3   Cu4   2.624910 S    
C79   C104  1.453207 S    
C166  C250  1.473579 S    
C214  C215  1.410211 A    
C22   C23   1.415891 A    
O18   C111  1.285189 A    
C6    N2    1.357595 A    
C133  N41   1.439068 S    
C90   H15   1.083335 S    
N20   O66   1.301403 A    
C47   C52   1.417927 A    
C211  H37   1.083047 S    
C66   C67   1.400058 A    
C221  C227  1.468467 S    
C10   C114  1.477681 S    
C182  C183  1.423090 A    
C45   C235  1.489395 S    
N24   O80   1.301496 A    
Cu7   Cu8   2.625874 S    
C143  C228  1.494857 S    
C125  C127  1.399497 A    
C132  C133  1.415258 A    
C184  C185  1.411606 A    
C242  O118  1.398134 S    
C174  C179  1.410706 A    
C1    C37   1.473131 S    
N33   O116  1.301274 A    
C49   C52   1.413364 A    
C2    C61   1.490413 S    
C28   C40   1.477701 S    
O112  H51   1.013824 S    
C64   C73   1.453016 S    
N49   O168  1.300570 A    
C127  H19   1.084960 S    
O41   Cu11  1.950371 S    
C67   C68   1.419929 A    
N37   O127  1.301196 A    
C232  O77   1.223088 D    
N40   O136  1.300903 A    
O96   H46   1.013791 S    
O9    Cu3   1.950963 S    
O148  H58   1.013786 S    
C238  O102  1.398280 S    
C89   C94   1.397792 A    
O144  H57   1.013830 S    
C248  O147  1.222208 D    
C195  C196  1.397848 A    
C70   C76   1.453913 S    
C214  N15   1.433498 S    
C41   C46   1.397701 A    
O29   Cu8   1.950234 S    
O172  H63   1.013865 S    
C160  C161  1.402500 A    
C195  H32   1.082842 S    
C235  O90   1.398666 S    
C196  C197  1.396167 A    
O35   Cu9   1.952853 S    
C157  C249  1.485781 S    
C29   C34   1.419102 A    
C182  C225  1.479241 S    
C87   C88   1.413698 A    
N49   O167  1.301501 A    
C241  O112  1.398110 S    
O15   C110  1.283411 A    
C239  O103  1.222855 D    
C159  C160  1.388846 A    
O41   C228  1.290118 A    
C95   C100  1.402113 A    
O7    C4    1.288937 A    
C149  C150  1.210766 T    
C257  O184  1.397800 S    
O8    Cu1   1.948060 S    
C33   C231  1.486881 S    
C190  C257  1.487139 S    
O90   H45   1.013800 S    
C123  C128  1.414579 A    
C83   N34   1.433654 S    
C120  C158  1.478573 S    
N27   O92   1.301205 A    
C210  C211  1.390769 A    
N22   O69   1.300760 A    
O19   Cu5   1.952476 S    
C85   C109  1.491221 S    
C27   N5    1.354331 A    
O20   Cu6   1.950431 S    
O13   C109  1.289453 A    
N48   O163  1.300782 A    
C115  C131  1.498775 S    
O38   C120  1.285885 A    
O46   C226  1.282856 A    
C144  C145  1.411235 A    
C67   C118  1.488298 S    
C83   C84   1.416523 A    
C234  O88   1.397350 S    
C42   N26   1.438843 S    
O33   C122  1.294930 A    
N35   O122  1.301243 A    
C14   H2    1.084044 S    
C140  C149  1.450825 S    
C97   C113  1.483647 S    
C53   C54   1.396944 A    
N39   O131  1.300307 A    
C35   N24   1.439315 S    
N46   O157  1.300777 A    
N43   O150  1.300724 A    
N29   O99   1.301204 A    
C175  C177  1.415836 A    
C138  C139  1.395922 A    
N24   O79   1.301436 A    
C5    C13   1.478203 S    
C176  C178  1.414536 A    
O166  H61   1.013819 S    
C191  C200  1.444960 S    
O134  H54   1.013757 S    
C183  C254  1.486915 S    
N53   O187  1.301345 A    
C82   N33   1.440115 S    
O39   Cu10  1.952810 S    
C135  C136  1.419358 A    
C219  C220  1.404914 A    
C168  C169  1.399099 A    
N21   O67   1.300923 A    
C155  N9    1.357461 A    
C192  H33   1.084387 S    
C213  C214  1.411281 A    
C243  O125  1.223069 D    
C10   C11   1.413036 A    
C26   N6    1.358641 A    
C171  C172  1.414895 A    
C124  C127  1.400222 A    
C186  C187  1.398032 A    
N41   O142  1.301161 A    
C65   C66   1.404753 A    
C189  C190  1.405978 A    
C89   C90   1.394958 A    
C206  N11   1.357186 A    
N46   O158  1.300888 A    
O31   C118  1.290024 A    
O14   C108  1.288776 A    
N36   O124  1.301177 A    
O32   Cu7   1.950681 S    
N13   O50   1.300887 A    
C188  C189  1.405465 A    
C119  C194  1.491304 S    
N47   O160  1.301580 A    
C205  C224  1.474750 S    
C204  N10   1.354253 A    
C59   C64   1.403331 A    
C22   C110  1.479232 S    
C83   C88   1.411111 A    
O4    Cu2   1.948057 S    
C170  C171  1.406388 A    
O2    Cu2   1.948699 S    
C245  O137  1.222694 D    
C230  O73   1.222417 D    
Cu1   Cu2   2.629246 S    
C255  O179  1.223090 D    
C17   H1    1.083200 S    
O37   C121  1.280794 A    
N26   O85   1.301384 A    
C223  N20   1.438989 S    
C57   C58   1.407904 A    
C138  H21   1.083291 S    
O33   Cu9   1.952029 S    
C53   C58   1.397247 A    
N30   O106  1.301303 A    
C164  C165  1.396936 A    
O47   C228  1.288937 A    
N19   O63   1.300584 A    
O138  H55   1.013755 S    
O140  H56   1.013885 S    
C221  C222  1.398466 A    
N15   O53   1.300720 A    
O5    Cu2   1.949928 S    
N23   O71   1.300707 A    
C207  N53   1.436961 S    
N25   O84   1.300939 A    
C229  O57   1.223198 D    
N31   O109  1.301298 A    
C116  C215  1.475757 S    
C66   H13   1.083432 S    
O8    C1    1.283574 A    
C7    N2    1.357890 A    
C45   C46   1.414728 A    
C253  O172  1.398462 S    
O36   Cu10  1.951889 S    
N18   O61   1.300523 A    
C26   N4    1.357627 A    
C156  C157  1.416133 A    
O23   C114  1.281396 A    
C180  C181  1.401159 A    
C56   C57   1.417716 A    
C29   C230  1.488676 S    
O18   Cu6   1.948891 S    
C6    N1    1.357216 A    
C44   C45   1.417911 A    
C49   C51   1.401273 A    
C14   C15   1.404636 A    
C90   C91   1.403740 A    
C48   C50   1.411366 A    
C92   C93   1.419328 A    
N47   O159  1.301355 A    
C65   C70   1.415759 A    
C99   C100  1.414462 A    
