data_mof_unit_65118.cif
_audit_creation_date              2012-12-10T19:02:10-0500
_audit_creation_method            fapswitch 2.2
_symmetry_space_group_name_H-M    P1
_symmetry_Int_Tables_number       1
_space_group_crystal_system       triclinic
_cell_length_a                    13.393887
_cell_length_b                    14.248865
_cell_length_c                    17.953866
_cell_angle_alpha                 89.67651
_cell_angle_beta                  84.83922
_cell_angle_gamma                 89.805903
_cell_volume                      3412.49501275

loop_
_atom_site_label
_atom_site_type_symbol
_atom_type_description
_atom_site_fract_x
_atom_site_fract_y
_atom_site_fract_z
_atom_type_partial_charge
C1    C     C_R   0.499888 0.673390 0.499975 0.933268
C2    C     C_1   0.169417 0.500001 0.500027 0.079811
C3    C     C_1   0.950485 0.499999 0.499989 -0.036270
C4    C     C_1   0.049515 0.500001 0.500011 -0.036270
C5    C     C_R   0.486581 0.499313 0.652370 0.912171
C6    C     C_R   0.513419 0.500687 0.347630 0.912171
C7    C     C_R   0.478518 0.496467 0.732155 -0.037223
C8    C     C_R   0.521482 0.503533 0.267845 -0.037223
C9    C     C_R   0.565374 0.499934 0.767809 -0.209583
C10   C     C_R   0.434626 0.500066 0.232191 -0.209583
C11   C     C_R   0.560561 0.496545 0.844393 -0.132076
C12   C     C_R   0.500112 0.326610 0.500025 0.933268
C13   C     C_R   0.439439 0.503455 0.155607 -0.132076
C14   C     C_R   0.469183 0.491563 0.890269 0.164722
C15   C     C_R   0.530817 0.508435 0.109731 0.164722
C16   C     C_R   0.381288 0.484015 0.850193 -0.104303
C17   C     C_R   0.618712 0.515984 0.149807 -0.104303
C18   C     C_R   0.386029 0.487373 0.772981 -0.212294
C19   C     C_R   0.613971 0.512626 0.227018 -0.212294
C20   C     C_2   0.460046 0.496876 0.976499 0.065987
C21   C     C_2   0.539954 0.503123 0.023501 0.065988
C22   C     C_1   0.499694 0.774048 0.499982 -0.212618
C23   C     C_1   0.500306 0.225952 0.500018 -0.212618
C24   C     C_1   0.499729 0.858632 0.499989 0.003936
C25   C     C_1   0.500271 0.141368 0.500011 0.003936
C26   C     C_1   0.499906 0.957710 0.499996 0.021227
C27   C     C_1   0.500094 0.042290 0.500004 0.021227
C28   C     C_1   0.830583 0.499999 0.499973 0.079811
H1    H     H_    0.682819 0.517683 0.254645 0.163270
H2    H     H_    0.317181 0.482316 0.745355 0.163270
H3    H     H_    0.305340 0.474677 0.874647 0.178798
H4    H     H_    0.694660 0.525321 0.125353 0.178798
H5    H     H_    0.367720 0.503670 0.139756 0.187662
H6    H     H_    0.632279 0.496329 0.860244 0.187662
H7    H     H_    0.638416 0.504961 0.736102 0.170092
H8    H     H_    0.361584 0.495039 0.263898 0.170092
I1    I     I_    0.699564 0.496992 0.983073 -0.405294
I2    I     I_    0.300436 0.503008 0.016927 -0.405294
N1    N     N_1   0.738130 0.500000 0.500020 -0.069898
N2    N     N_1   0.261870 0.500000 0.499980 -0.069898
O1    O     O_R   0.423530 0.626280 0.499990 -0.598646
O2    O     O_R   0.576470 0.373720 0.500010 -0.598646
O3    O     O_R   0.576470 0.626280 0.500010 -0.599814
O4    O     O_R   0.423530 0.373720 0.499990 -0.599815
O5    O     O_R   0.414510 0.500000 0.615790 -0.623591
O6    O     O_R   0.585490 0.500000 0.384210 -0.623591
O7    O     O_R   0.567420 0.500000 0.615810 -0.624802
O8    O     O_R   0.432580 0.500000 0.384190 -0.624802
Zn1   Zn    Zn3+2 0.397910 0.500000 0.499990 0.985466
Zn2   Zn    Zn3+2 0.602090 0.500000 0.500010 0.985466

loop_
_geom_bond_atom_site_label_1
_geom_bond_atom_site_label_2
_ccdc_geom_bond_type
O4    Zn1   S    
C2    C4    S    
O3    Zn2   S    
C13   H5    S    
C18   H2    S    
C14   C20   S    
C25   C27   S    
C20   I2    S    
O6    Zn2   S    
O5    Zn1   S    
C7    C18   A    
C7    C9    A    
C23   C25   T    
C1    C22   S    
C12   O4    A    
C16   H3    S    
C9    C11   A    
C12   C23   S    
C26   C27   T    
C6    O8    A    
O2    Zn2   S    
O1    Zn1   S    
C3    C28   S    
C5    O7    A    
C24   C26   S    
O7    Zn2   S    
C22   C24   T    
C13   C15   A    
C8    C10   A    
C11   C14   A    
C14   C16   A    
C8    C19   A    
C12   O2    A    
N2    Zn1   S    
C19   H1    S    
C2    N2    T    
C15   C21   S    
N1    Zn2   S    
C21   I1    S    
C20   C21   D    
C16   C18   A    
C1    O1    A    
C5    C7    S    
C17   H4    S    
O8    Zn1   S    
C9    H7    S    
C6    C8    S    
C6    O6    A    
C28   N1    T    
C17   C19   A    
C15   C17   A    
C5    O5    A    
C1    O3    A    
C11   H6    S    
C3    C4    T    
C10   H8    S    
C10   C13   A    
