data_mof_unit_17370.cif
_audit_creation_date              2012-12-10T17:55:07-0500
_audit_creation_method            fapswitch 2.2
_symmetry_space_group_name_H-M    P1
_symmetry_Int_Tables_number       1
_space_group_crystal_system       triclinic
_cell_length_a                    8.849171
_cell_length_b                    10.886032
_cell_length_c                    9.503408
_cell_angle_alpha                 88.75375
_cell_angle_beta                  97.770554
_cell_angle_gamma                 92.43337
_cell_volume                      906.142768276

loop_
_atom_site_label
_atom_site_type_symbol
_atom_type_description
_atom_site_fract_x
_atom_site_fract_y
_atom_site_fract_z
_atom_type_partial_charge
C1    C     C_R   0.495406 0.262073 0.501141 0.939119
C2    C     C_R   0.618388 0.069084 0.586793 0.005991
C3    C     C_R   0.510875 0.872629 0.493243 -0.233067
C4    C     C_R   0.494854 0.127740 0.505920 -0.231978
C5    C     C_R   0.404088 0.421691 0.064215 0.010627
C6    C     C_R   0.596072 0.578299 0.935708 -0.004974
C7    C     C_R   0.404749 0.421136 0.915473 -0.026559
C8    C     C_R   0.595354 0.578860 0.084514 -0.033859
C9    C     C_3   0.974942 0.581515 0.308845 -0.813285
C10   C     C_3   0.026006 0.428353 0.696794 -0.833045
C11   C     C_3   0.285654 0.861162 0.296048 -0.650349
C12   C     C_R   0.505405 0.738038 0.498735 0.919839
C13   C     C_3   0.734548 0.145513 0.685171 -0.686487
C14   C     C_R   0.204980 0.505650 0.464641 0.941670
C15   C     C_R   0.795155 0.495352 0.535632 0.942293
C16   C     C_2   0.041831 0.519819 0.447442 -0.020751
C17   C     C_2   0.958786 0.484698 0.554699 -0.001012
C18   C     C_R   0.376348 0.059125 0.424272 0.412660
C19   C     C_R   0.630051 0.940884 0.575704 0.317581
C20   C     C_R   0.392147 0.932697 0.407299 -0.000805
Cu1   Cu    Cu3+1 0.500000 0.500020 0.640660 0.990334
Cu2   Cu    Cu3+1 0.500000 0.499980 0.359340 0.985097
H1    H     H_    0.326846 0.359673 0.112098 0.187976
H2    H     H_    0.094931 0.499099 0.762451 0.268487
H3    H     H_    0.057956 0.256991 0.441831 0.363483
H4    H     H_    0.702311 0.864478 0.846164 0.320690
H5    H     H_    0.352610 0.813944 0.224475 0.218880
H6    H     H_    0.213873 0.793373 0.348881 0.221762
H7    H     H_    0.211441 0.919215 0.221763 0.278661
H8    H     H_    0.676183 0.194161 0.762364 0.224058
H9    H     H_    0.820025 0.092618 0.753534 0.285256
H10   H     H_    0.795737 0.213043 0.621726 0.206402
H11   H     H_    0.673565 0.640204 0.887636 0.173607
H12   H     H_    0.329465 0.357233 0.851458 0.144003
H13   H     H_    0.670795 0.642667 0.148576 0.140125
H14   H     H_    0.063978 0.619652 0.246581 0.228567
H15   H     H_    0.905196 0.513660 0.239636 0.251762
H16   H     H_    0.906773 0.660572 0.330672 0.266873
H17   H     H_    0.937517 0.391837 0.760692 0.231473
H18   H     H_    0.095178 0.348670 0.680818 0.258113
N1    N     N_R   0.500040 0.500030 0.852080 -0.176808
N2    N     N_R   0.499960 0.499970 0.147920 -0.178421
O1    O     O_R   0.499990 0.319660 0.618740 -0.593854
O2    O     O_2   0.068672 0.034106 0.366512 -0.250133
O3    O     O_3   0.168884 0.244136 0.463460 -0.576758
O4    O     O_2   0.816378 0.746564 0.588821 -0.316027
O5    O     O_2   0.937775 0.949065 0.618481 -0.207842
O6    O     O_3   0.808719 0.855733 0.827428 -0.519576
O7    O     O_R   0.500010 0.680340 0.381260 -0.600159
O8    O     O_R   0.499990 0.319630 0.381170 -0.566380
O9    O     O_R   0.500010 0.680370 0.618830 -0.572447
O10   O     O_R   0.274840 0.500010 0.591370 -0.587094
O11   O     O_R   0.725160 0.499990 0.408630 -0.605792
O12   O     O_R   0.274830 0.499980 0.353800 -0.576705
O13   O     O_R   0.725170 0.500020 0.646200 -0.570008
O14   O     O_2   0.200230 0.171486 0.211161 -0.320499
S1    S     S_3+6 0.198972 0.126749 0.361523 0.001775
S2    S     S_3+6 0.802521 0.870190 0.650147 0.017511

loop_
_geom_bond_atom_site_label_1
_geom_bond_atom_site_label_2
_ccdc_geom_bond_type
C9    H14   S    
C2    C4    A    
C5    N2    A    
O6    S2    S    
C11   H5    S    
C5    C7    A    
C1    O8    A    
C8    H13   S    
C18   S1    S    
C5    H1    S    
C6    H11   S    
H4    O6    S    
O2    S1    D    
Cu2   O8    S    
C1    C4    S    
C4    C18   A    
C9    H15   S    
C12   O7    A    
C3    C20   A    
Cu2   O12   S    
Cu1   O1    S    
Cu1   Cu2   S    
O4    S2    D    
O5    S2    D    
C3    C19   A    
O3    S1    S    
Cu2   N2    S    
C11   H6    S    
Cu2   O7    S    
Cu1   N1    S    
C15   O11   A    
C9    H16   S    
C14   O12   A    
C9    C16   S    
C1    O1    A    
Cu2   O11   S    
C18   C20   A    
C7    N1    A    
C19   S2    S    
C7    H12   S    
C14   C16   S    
C11   C20   S    
C10   C17   S    
H3    O3    S    
C13   H8    S    
Cu1   O9    S    
C12   O9    A    
O14   S1    D    
C11   H7    S    
C10   H18   S    
Cu1   O13   S    
C2    C13   S    
C16   C17   D    
C6    C8    A    
C3    C12   S    
C13   H10   S    
C10   H2    S    
C2    C19   A    
C15   C17   S    
C13   H9    S    
Cu1   O10   S    
C14   O10   A    
C8    N2    A    
C10   H17   S    
C6    N1    A    
C15   O13   A    
