data_mof_unit_60069.cif
_audit_creation_date              2012-10-26T18:17:52-0400
_audit_creation_method            fapswitch 2.2
_symmetry_space_group_name_H-M    P1
_symmetry_Int_Tables_number       1
_space_group_crystal_system       triclinic
_cell_length_a                    50.522131
_cell_length_b                    39.025738
_cell_length_c                    32.022987
_cell_angle_alpha                 89.989889
_cell_angle_beta                  129.480106
_cell_angle_gamma                 90.034908
_cell_volume                      48733.1903695

loop_
_atom_site_label
_atom_site_type_symbol
_atom_type_description
_atom_site_fract_x
_atom_site_fract_y
_atom_site_fract_z
_atom_type_partial_charge
C1    C     C_R   0.066285 0.000021 0.566065 0.545209
C2    C     C_3   0.037166 0.994062 0.762737 -0.192696
C3    C     C_R   0.341495 0.530060 0.344885 -0.096009
C4    C     C_R   0.176223 0.999819 0.671064 0.059925
C5    C     C_R   0.823703 0.998847 0.324371 0.058475
C6    C     C_R   0.676223 0.499818 0.671072 0.059997
C7    C     C_R   0.323695 0.498891 0.324482 0.058564
C8    C     C_R   0.000013 0.066124 0.000002 0.545216
C9    C     C_R   0.500013 0.566124 0.000003 0.544996
C10   C     C_R   0.000045 0.999903 0.080052 0.552185
C11   C     C_R   0.999955 0.999904 0.919948 0.553368
C12   C     C_R   0.500045 0.499904 0.080052 0.552564
C13   C     C_3   0.464063 0.488734 0.238498 -0.193070
C14   C     C_R   0.499955 0.499904 0.919948 0.553617
C15   C     C_R   0.999992 0.933656 0.999987 0.548534
C16   C     C_R   0.499992 0.433656 0.999988 0.549297
C17   C     C_R   0.499922 0.933631 0.999930 0.560224
C18   C     C_R   0.999922 0.433631 0.999930 0.560095
C19   C     C_R   0.433709 0.999251 0.933689 0.571313
C20   C     C_R   0.566278 0.000872 0.066374 0.573808
C21   C     C_R   0.933709 0.499251 0.933689 0.571279
C22   C     C_R   0.066273 0.500871 0.066367 0.574020
C23   C     C_R   0.500035 0.066230 0.000035 0.546826
C24   C     C_3   0.535984 0.488924 0.761551 -0.192548
C25   C     C_R   0.000037 0.566230 0.000037 0.547183
C26   C     C_R   0.513063 0.877712 0.979082 -0.084315
C27   C     C_R   0.486244 0.877898 0.020408 -0.064253
C28   C     C_R   0.013066 0.377712 0.979086 -0.084416
C29   C     C_R   0.986241 0.377898 0.020403 -0.064267
C30   C     C_3   0.020748 0.969762 0.295257 -0.265482
C31   C     C_3   0.977007 0.971384 0.702502 -0.265583
C32   C     C_3   0.526858 0.475022 0.301402 -0.265319
C33   C     C_3   0.473253 0.474851 0.698727 -0.265471
C34   C     C_R   0.513407 0.841919 0.979587 0.259641
C35   C     C_1   0.999991 0.999974 0.162520 -0.022740
C36   C     C_R   0.485760 0.842107 0.020022 0.259738
C37   C     C_R   0.013410 0.341919 0.979591 0.259595
C38   C     C_R   0.985757 0.342107 0.020016 0.259728
C39   C     C_R   0.499594 0.823838 0.999908 0.097927
C40   C     C_R   0.999594 0.323838 0.999906 0.097890
C41   C     C_R   0.499739 0.895919 0.999793 -0.060204
C42   C     C_R   0.999739 0.395919 0.999793 -0.060246
C43   C     C_R   0.524094 0.768179 0.048881 0.299000
C44   C     C_R   0.475596 0.767662 0.952227 0.253099
C45   C     C_R   0.024092 0.268179 0.048879 0.299003
C46   C     C_1   0.000013 0.999950 0.837484 -0.021836
C47   C     C_R   0.975598 0.267663 0.952224 0.253089
C48   C     C_R   0.024296 0.232264 0.049633 0.095302
C49   C     C_R   0.976167 0.231614 0.952480 0.098620
C50   C     C_R   0.524298 0.732264 0.049635 0.095406
C51   C     C_R   0.476165 0.731614 0.952484 0.098680
C52   C     C_R   0.000514 0.213806 0.001123 -0.014114
C53   C     C_R   0.500514 0.713806 0.001126 -0.014040
C54   C     C_R   0.499757 0.785956 0.000328 0.053304
C55   C     C_R   0.999757 0.285956 0.000325 0.053276
C56   C     C_R   0.972041 0.157870 0.987840 -0.077129
C57   C     C_1   0.499988 0.499921 0.162517 -0.022690
C58   C     C_R   0.028540 0.157750 0.013042 -0.109937
C59   C     C_R   0.472041 0.657869 0.987845 -0.077238
C60   C     C_R   0.528539 0.657750 0.013042 -0.110086
C61   C     C_R   0.971710 0.122097 0.986951 -0.118457
C62   C     C_R   0.028540 0.121983 0.013278 -0.118985
C63   C     C_R   0.471710 0.622097 0.986956 -0.118656
C64   C     C_R   0.528539 0.621983 0.013277 -0.119238
C65   C     C_R   0.000082 0.103861 0.000090 0.015330
C66   C     C_R   0.500082 0.603861 0.000091 0.015125
C67   C     C_3   0.021570 0.970043 0.247634 -0.227840
C68   C     C_1   0.500014 0.499915 0.837485 -0.021779
C69   C     C_3   0.976208 0.971724 0.750150 -0.228008
C70   C     C_3   0.527602 0.475459 0.253700 -0.227353
C71   C     C_3   0.472507 0.475288 0.746428 -0.227628
C72   C     C_R   0.000497 0.175907 0.001044 0.056297
C73   C     C_R   0.500497 0.675907 0.001047 0.056236
C74   C     C_R   0.494120 0.122145 0.031261 -0.108777
C75   C     C_R   0.506149 0.122161 0.969040 -0.121582
C76   C     C_R   0.994126 0.622145 0.031267 -0.108498
C77   C     C_R   0.006156 0.622161 0.969048 -0.121396
C78   C     C_R   0.493985 0.157879 0.031069 -0.078597
C79   C     C_1   0.999866 0.000199 0.337319 -0.010590
C80   C     C_R   0.506331 0.157897 0.969291 -0.080948
C81   C     C_R   0.993992 0.657879 0.031076 -0.078525
C82   C     C_R   0.006340 0.657896 0.969300 -0.080821
C83   C     C_R   0.500155 0.175971 0.000177 0.091587
C84   C     C_R   0.000164 0.675970 0.000185 0.091582
C85   C     C_R   0.500103 0.103964 0.000112 0.019132
C86   C     C_R   0.000108 0.603964 0.000117 0.019355
C87   C     C_R   0.522634 0.232022 0.049132 0.070038
C88   C     C_R   0.477564 0.231955 0.951108 0.071320
C89   C     C_R   0.022638 0.732023 0.049136 0.070047
C90   C     C_1   0.000158 0.000167 0.662706 -0.009688
C91   C     C_R   0.977571 0.731953 0.951112 0.071318
C92   C     C_R   0.022276 0.767887 0.048763 -0.084490
C93   C     C_R   0.977844 0.767818 0.951405 -0.083458
C94   C     C_R   0.522273 0.267887 0.048762 -0.084406
C95   C     C_R   0.477838 0.267820 0.951404 -0.083449
C96   C     C_R   0.000039 0.785879 0.000064 0.054003
C97   C     C_R   0.500035 0.285879 0.000063 0.054004
C98   C     C_R   0.500122 0.213809 0.000139 0.099222
C99   C     C_R   0.000129 0.713809 0.000143 0.099231
C100  C     C_R   0.969618 0.841861 0.978417 0.072478
C101  C     C_1   0.499802 0.500161 0.337254 -0.010501
C102  C     C_R   0.030393 0.841922 0.021580 0.072034
C103  C     C_R   0.469617 0.341863 0.978425 0.072628
C104  C     C_R   0.530390 0.341921 0.021576 0.072172
C105  C     C_1   0.000099 0.999933 0.124948 -0.004463
C106  C     C_1   0.999902 0.999924 0.875053 -0.002980
C107  C     C_1   0.500099 0.499913 0.124948 -0.004389
C108  C     C_1   0.499902 0.499910 0.875053 -0.002905
C109  C     C_R   0.969766 0.877736 0.978241 -0.127840
C110  C     C_R   0.030217 0.877792 0.021709 -0.127381
C111  C     C_R   0.469766 0.377737 0.978250 -0.127275
C112  C     C_R   0.933716 0.999978 0.433628 0.544366
C113  C     C_1   0.500195 0.500141 0.662743 -0.009589
C114  C     C_R   0.530215 0.377791 0.021705 -0.126981
C115  C     C_R   0.999987 0.895903 0.999971 -0.022683
C116  C     C_R   0.499986 0.395903 0.999973 -0.022296
C117  C     C_R   0.000015 0.823721 0.000019 0.105729
C118  C     C_R   0.500012 0.323721 0.000021 0.105776
C119  C     C_3   0.999663 0.000492 0.291001 0.050102
C120  C     C_3   0.000383 0.000442 0.709047 0.049193
C121  C     C_3   0.499540 0.500388 0.290877 0.049890
C122  C     C_3   0.500455 0.500372 0.709119 0.049028
C123  C     C_3   0.015425 0.033921 0.240759 -0.207248
C124  C     C_1   0.999960 0.000061 0.375094 0.013963
C125  C     C_3   0.987221 0.034958 0.761881 -0.206932
C126  C     C_3   0.507602 0.536431 0.232897 -0.207376
C127  C     C_3   0.492237 0.536375 0.766922 -0.207079
C128  C     C_3   0.999671 0.000045 0.208315 0.056990
C129  C     C_3   0.000338 0.999996 0.791695 0.056238
C130  C     C_3   0.499656 0.499929 0.208300 0.056872
C131  C     C_3   0.500344 0.499920 0.791701 0.056114
C132  C     C_1   0.000051 0.000043 0.624918 0.015312
C133  C     C_1   0.499932 0.500053 0.375065 0.014085
C134  C     C_1   0.500067 0.500037 0.624934 0.015449
C135  C     C_R   0.377077 0.979742 0.906900 0.256665
C136  C     C_R   0.622460 0.020960 0.153144 0.256234
C137  C     C_R   0.877078 0.479742 0.906902 0.256665
C138  C     C_R   0.122395 0.521327 0.152796 0.256216
C139  C     C_R   0.340993 0.979804 0.869352 0.288678
C140  C     C_R   0.566285 0.500021 0.566067 0.545345
C141  C     C_R   0.658531 0.020400 0.189217 0.308176
C142  C     C_R   0.840993 0.479803 0.869355 0.288714
C143  C     C_R   0.158467 0.520812 0.188919 0.308510
C144  C     C_R   0.323824 0.998317 0.820689 0.020088
C145  C     C_R   0.676131 0.000939 0.176696 0.019310
C146  C     C_R   0.823824 0.498316 0.820692 0.020104
C147  C     C_R   0.176113 0.501008 0.176810 0.019253
C148  C     C_R   0.342685 0.016451 0.809723 -0.126308
C149  C     C_R   0.657763 0.983085 0.127707 -0.149114
C150  C     C_R   0.842684 0.516450 0.809724 -0.126362
C151  C     C_R   0.433714 0.499979 0.433636 0.545149
C152  C     C_R   0.157781 0.482820 0.128111 -0.149381
C153  C     C_R   0.378359 0.016377 0.846695 -0.162682
C154  C     C_R   0.622052 0.983659 0.091830 -0.164407
C155  C     C_R   0.878358 0.516376 0.846696 -0.162692
C156  C     C_R   0.122069 0.483380 0.092164 -0.164435
C157  C     C_R   0.000010 0.000019 0.419984 0.552876
C158  C     C_R   0.999991 0.000013 0.580017 0.554426
C159  C     C_R   0.500008 0.500018 0.419983 0.553377
C160  C     C_R   0.499992 0.500013 0.580018 0.554825
C161  C     C_R   0.395911 0.998430 0.895648 -0.015319
C162  C     C_3   0.962267 0.997452 0.187945 0.001757
C163  C     C_R   0.604060 0.001978 0.104426 -0.013550
C164  C     C_R   0.895911 0.498429 0.895649 -0.015299
C165  C     C_R   0.104044 0.502006 0.104414 -0.013345
C166  C     C_R   0.267875 0.017181 0.792816 -0.123184
C167  C     C_R   0.732219 0.018039 0.203454 -0.145216
C168  C     C_R   0.767876 0.517181 0.792820 -0.123212
C169  C     C_R   0.232200 0.517424 0.202980 -0.145611
C170  C     C_R   0.232200 0.017614 0.756528 -0.154236
C171  C     C_R   0.767917 0.017781 0.239511 -0.160395
C172  C     C_R   0.732201 0.517613 0.756533 -0.153994
C173  C     C_3   0.037437 0.994603 0.811763 0.001221
C174  C     C_R   0.267899 0.517161 0.239013 -0.160109
C175  C     C_R   0.214039 0.999763 0.707436 -0.011659
C176  C     C_R   0.785867 0.998408 0.287200 -0.011837
C177  C     C_R   0.714039 0.499762 0.707442 -0.011763
C178  C     C_R   0.285861 0.498478 0.287353 -0.012022
C179  C     C_R   0.232141 0.981855 0.694246 0.272967
C180  C     C_R   0.767538 0.979095 0.298734 0.274916
C181  C     C_R   0.732140 0.481853 0.694252 0.272751
C182  C     C_R   0.267548 0.479860 0.299560 0.274848
C183  C     C_R   0.268226 0.981312 0.731103 0.292619
C184  C     C_3   0.463721 0.489218 0.189400 0.001631
C185  C     C_R   0.731462 0.979238 0.262094 0.311113
C186  C     C_R   0.768226 0.481311 0.731107 0.292669
C187  C     C_R   0.231472 0.479994 0.262943 0.311486
C188  C     C_R   0.286073 0.998898 0.780713 0.020376
C189  C     C_R   0.713841 0.999058 0.214561 0.019440
C190  C     C_R   0.786073 0.498898 0.780716 0.020304
C191  C     C_R   0.213832 0.499143 0.214755 0.019389
C192  C     C_R   0.158109 0.968902 0.656386 -0.057157
C193  C     C_R   0.842124 0.968284 0.337914 -0.067155
C194  C     C_R   0.658109 0.468902 0.656393 -0.056908
C195  C     C_3   0.536325 0.489413 0.810648 0.001241
C196  C     C_R   0.342106 0.468234 0.338925 -0.066773
C197  C     C_R   0.122362 0.968966 0.622379 -0.114246
C198  C     C_R   0.877889 0.968683 0.373464 -0.113467
C199  C     C_R   0.622362 0.468965 0.622384 -0.114089
C200  C     C_R   0.377872 0.468618 0.374424 -0.113156
C201  C     C_R   0.104135 0.000012 0.602874 0.012414
C202  C     C_R   0.895860 0.999743 0.395614 0.012774
C203  C     C_R   0.604135 0.500012 0.602878 0.012596
C204  C     C_R   0.395853 0.499747 0.395657 0.013076
C205  C     C_3   0.015976 0.034079 0.289942 0.124449
C206  C     C_3   0.962498 0.996895 0.236930 -0.193147
C207  C     C_3   0.986688 0.035158 0.712716 0.124371
C208  C     C_3   0.508094 0.536721 0.282022 0.124620
C209  C     C_3   0.491740 0.536658 0.717793 0.124419
C210  C     C_R   0.122415 0.030993 0.618401 -0.114375
C211  C     C_R   0.877307 0.030424 0.381111 -0.115577
C212  C     C_R   0.622416 0.530992 0.618407 -0.114503
C213  C     C_R   0.377305 0.530505 0.380276 -0.114793
C214  C     C_R   0.158182 0.030876 0.652334 -0.103905
C215  C     C_R   0.841497 0.029960 0.345701 -0.096447
C216  C     C_R   0.658182 0.530876 0.652341 -0.104051
Cl1   Cl    Cl    0.995144 0.071767 0.288788 -0.588009
Cl2   Cl    Cl    0.681731 0.044632 0.249633 -0.427920
Cl3   Cl    Cl    0.817315 0.455713 0.882433 -0.452128
Cl4   Cl    Cl    0.181598 0.545562 0.248820 -0.427484
Cl5   Cl    Cl    0.209923 0.961164 0.630975 -0.489722
Cl6   Cl    Cl    0.789421 0.956138 0.360107 -0.480170
Cl7   Cl    Cl    0.709922 0.461162 0.630981 -0.490918
Cl8   Cl    Cl    0.289462 0.457798 0.361692 -0.480706
Cl9   Cl    Cl    0.290983 0.957876 0.715712 -0.445090
Cl10  Cl    Cl    0.708333 0.954514 0.275599 -0.413837
Cl11  Cl    Cl    0.790981 0.457874 0.715715 -0.445236
Cl12  Cl    Cl    0.010348 0.071172 0.716696 -0.587965
Cl13  Cl    Cl    0.208376 0.456043 0.277266 -0.413229
Cl14  Cl    Cl    0.531836 0.820431 0.955232 -0.501895
Cl15  Cl    Cl    0.467235 0.820862 0.044422 -0.462007
Cl16  Cl    Cl    0.031842 0.320432 0.955241 -0.501906
Cl17  Cl    Cl    0.967228 0.320860 0.044409 -0.461935
Cl18  Cl    Cl    0.554926 0.790785 0.109462 -0.443642
Cl19  Cl    Cl    0.444262 0.789819 0.891404 -0.495501
Cl20  Cl    Cl    0.054923 0.290785 0.109461 -0.443497
Cl21  Cl    Cl    0.944266 0.289820 0.891400 -0.495224
Cl22  Cl    Cl    0.479492 0.568929 0.273051 -0.590768
Cl23  Cl    Cl    0.520196 0.569029 0.726597 -0.589807
Cl24  Cl    Cl    0.398144 0.954452 0.966015 -0.447630
Cl25  Cl    Cl    0.600887 0.047002 0.168282 -0.459377
Cl26  Cl    Cl    0.898145 0.454451 0.966016 -0.447558
Cl27  Cl    Cl    0.100737 0.547723 0.167397 -0.459759
Cl28  Cl    Cl    0.317314 0.955713 0.882429 -0.452477
Cu1   Cu    Cu3+1 0.000000 0.034220 0.500000 1.028447
Cu2   Cu    Cu3+1 0.499990 0.999930 0.041330 1.127191
Cu3   Cu    Cu3+1 0.000010 0.499930 0.958670 0.997919
Cu4   Cu    Cu3+1 0.999990 0.499930 0.041330 1.126992
Cu5   Cu    Cu3+1 0.500000 0.534220 0.500000 1.026549
Cu6   Cu    Cu3+1 0.000000 0.965800 0.500000 0.972042
Cu7   Cu    Cu3+1 0.500000 0.465800 0.500000 0.972243
Cu8   Cu    Cu3+1 0.034210 0.999890 0.034180 0.975371
Cu9   Cu    Cu3+1 0.965790 0.999890 0.965820 0.976773
Cu10  Cu    Cu3+1 0.534210 0.499890 0.034180 0.975036
Cu11  Cu    Cu3+1 0.465790 0.499890 0.965820 0.976591
Cu12  Cu    Cu3+1 0.500010 0.999930 0.958670 0.997561
H1    H     H_    0.042078 0.036901 0.255569 0.111656
H2    H     H_    0.671162 0.968302 0.117623 0.146845
H3    H     H_    0.555149 0.509210 0.839795 0.164811
H4    H     H_    0.918306 0.969448 0.134926 0.234800
H5    H     H_    0.953535 0.945113 0.175570 0.237281
H6    H     H_    0.079131 0.963382 0.862526 0.237460
H7    H     H_    0.042143 0.941759 0.820127 0.237789
H8    H     H_    0.426956 0.452281 0.143590 0.234586
H9    H     H_    0.466665 0.436243 0.188754 0.237654
H10   H     H_    0.573252 0.452684 0.856626 0.237193
H11   H     H_    0.533612 0.436424 0.811553 0.237773
H12   H     H_    0.034633 0.198221 0.106222 0.246772
H13   H     H_    0.829667 0.530743 0.772378 0.158497
H14   H     H_    0.065249 0.200895 0.099276 0.237758
H15   H     H_    0.955468 0.220225 0.875386 0.287609
H16   H     H_    0.927452 0.219066 0.887831 0.276529
H17   H     H_    0.534637 0.698221 0.106226 0.246333
H18   H     H_    0.565251 0.700895 0.099275 0.237698
H19   H     H_    0.455463 0.720224 0.875389 0.287333
H20   H     H_    0.427449 0.719066 0.887838 0.276537
H21   H     H_    0.541734 0.221416 0.125437 0.237035
H22   H     H_    0.571147 0.222089 0.116186 0.252778
H23   H     H_    0.458486 0.221310 0.874823 0.233238
H24   H     H_    0.171208 0.467790 0.118314 0.146960
H25   H     H_    0.429073 0.221856 0.884077 0.245534
H26   H     H_    0.041736 0.721418 0.125440 0.236997
H27   H     H_    0.071151 0.722092 0.116193 0.252939
H28   H     H_    0.958497 0.721306 0.874829 0.233216
H29   H     H_    0.929082 0.721852 0.884078 0.245469
H30   H     H_    0.930839 0.831777 0.979479 0.241948
H31   H     H_    0.919788 0.831130 0.917361 0.234239
H32   H     H_    0.069173 0.831914 0.020512 0.243073
H33   H     H_    0.080235 0.831296 0.082638 0.236147
H34   H     H_    0.430843 0.331780 0.979500 0.242270
H35   H     H_    0.392325 0.030771 0.837289 0.150386
H36   H     H_    0.419786 0.331132 0.917377 0.234261
H37   H     H_    0.569165 0.331912 0.020497 0.243194
H38   H     H_    0.580233 0.331294 0.082627 0.236128
H39   H     H_    0.608403 0.969150 0.054560 0.153658
H40   H     H_    0.892324 0.530769 0.837288 0.150336
H41   H     H_    0.108444 0.468619 0.055130 0.153440
H42   H     H_    0.281409 0.030906 0.830756 0.154446
H43   H     H_    0.718831 0.033358 0.167001 0.142036
H44   H     H_    0.781411 0.530907 0.830760 0.154618
H45   H     H_    0.960871 0.039929 0.747369 0.113302
H46   H     H_    0.218804 0.532201 0.166004 0.142262
H47   H     H_    0.218648 0.031506 0.767126 0.139514
H48   H     H_    0.781651 0.032680 0.230138 0.136496
H49   H     H_    0.718650 0.531507 0.767132 0.140212
H50   H     H_    0.281622 0.531511 0.229113 0.137617
H51   H     H_    0.043125 0.035537 0.327772 0.148813
H52   H     H_    0.959730 0.038653 0.675073 0.150038
H53   H     H_    0.534264 0.544093 0.318874 0.148406
H54   H     H_    0.465537 0.543878 0.680906 0.149842
H55   H     H_    0.171693 0.944727 0.671443 0.163463
H56   H     H_    0.532961 0.545167 0.246414 0.110939
H57   H     H_    0.828771 0.944116 0.320918 0.152459
H58   H     H_    0.671693 0.444726 0.671450 0.163554
H59   H     H_    0.328745 0.444002 0.322670 0.152528
H60   H     H_    0.109039 0.944694 0.611440 0.143108
H61   H     H_    0.891435 0.944652 0.383442 0.141226
H62   H     H_    0.609039 0.444694 0.611444 0.143099
H63   H     H_    0.391408 0.444517 0.385112 0.141433
H64   H     H_    0.109110 0.055326 0.604125 0.146007
H65   H     H_    0.890429 0.054751 0.397398 0.146483
H66   H     H_    0.609111 0.555326 0.604131 0.145500
H67   H     H_    0.466839 0.544967 0.753365 0.112941
H68   H     H_    0.390428 0.554887 0.395825 0.146595
H69   H     H_    0.171813 0.054995 0.663659 0.125362
H70   H     H_    0.827633 0.053826 0.335358 0.136369
H71   H     H_    0.671814 0.554995 0.663667 0.125034
H72   H     H_    0.327635 0.553993 0.333836 0.136360
H73   H     H_    0.523800 0.891302 0.963398 0.172908
H74   H     H_    0.475547 0.891636 0.036029 0.199708
H75   H     H_    0.023805 0.391303 0.963406 0.172883
H76   H     H_    0.975542 0.391635 0.036020 0.199722
H77   H     H_    0.950126 0.171542 0.978265 0.143908
H78   H     H_    0.000522 0.056077 0.213609 0.173134
H79   H     H_    0.050343 0.171275 0.021960 0.130114
H80   H     H_    0.450128 0.671542 0.978273 0.144064
H81   H     H_    0.550341 0.671275 0.021958 0.130196
H82   H     H_    0.009327 0.945238 0.294862 0.132832
H83   H     H_    0.986516 0.946073 0.700990 0.133428
H84   H     H_    0.521093 0.448602 0.306694 0.134107
H85   H     H_    0.479135 0.448462 0.693568 0.134047
H86   H     H_    0.949496 0.108702 0.976763 0.137564
H87   H     H_    0.050550 0.108500 0.022910 0.139257
H88   H     H_    0.449497 0.608701 0.976770 0.137665
H89   H     H_    0.003774 0.055932 0.790680 0.173838
H90   H     H_    0.550549 0.608500 0.022906 0.139279
H91   H     H_    0.489241 0.108778 0.055407 0.148138
H92   H     H_    0.511012 0.108807 0.944879 0.138466
H93   H     H_    0.989246 0.608779 0.055412 0.148186
H94   H     H_    0.011020 0.608805 0.944886 0.138548
H95   H     H_    0.488886 0.171456 0.054793 0.135190
H96   H     H_    0.511440 0.171490 0.945581 0.133297
H97   H     H_    0.988893 0.671457 0.054799 0.135174
H98   H     H_    0.011450 0.671488 0.945591 0.133370
H99   H     H_    0.039429 0.781727 0.086585 0.132727
H100  H     H_    0.488205 0.554781 0.201226 0.173007
H101  H     H_    0.960662 0.781604 0.913553 0.131277
H102  H     H_    0.539428 0.281725 0.086584 0.132818
H103  H     H_    0.460654 0.281607 0.913553 0.131354
H104  H     H_    0.946234 0.891307 0.961669 0.140384
H105  H     H_    0.053742 0.891406 0.038266 0.141292
H106  H     H_    0.446236 0.391309 0.961683 0.140540
H107  H     H_    0.553740 0.391404 0.038256 0.141328
H108  H     H_    0.047443 0.970895 0.334269 0.131030
H109  H     H_    0.950475 0.974522 0.663654 0.131860
H110  H     H_    0.552658 0.481979 0.339515 0.131151
H111  H     H_    0.511552 0.554837 0.798500 0.173683
H112  H     H_    0.447421 0.481658 0.660581 0.132249
H113  H     H_    0.048574 0.972839 0.263969 0.127720
H114  H     H_    0.949496 0.976539 0.734105 0.128685
H115  H     H_    0.553343 0.484092 0.268767 0.128214
H116  H     H_    0.446730 0.483776 0.731321 0.129301
H117  H     H_    0.012268 0.945070 0.226039 0.142749
H118  H     H_    0.983575 0.946125 0.769813 0.142863
H119  H     H_    0.524000 0.449056 0.237836 0.143810
H120  H     H_    0.476228 0.448908 0.762426 0.143500
H121  H     H_    0.946230 0.018123 0.232608 0.167783
H122  H     H_    0.329668 0.030745 0.772378 0.158651
H123  H     H_    0.055013 0.014004 0.768633 0.168821
H124  H     H_    0.443530 0.505881 0.229887 0.167223
H125  H     H_    0.556439 0.506188 0.770071 0.168807
H126  H     H_    0.950968 0.972761 0.237483 0.113013
H127  H     H_    0.046814 0.969130 0.760310 0.115312
H128  H     H_    0.458105 0.462668 0.244646 0.113890
H129  H     H_    0.542056 0.462891 0.755532 0.115578
H130  H     H_    0.948132 0.020805 0.163497 0.163833
H131  H     H_    0.053316 0.016829 0.837949 0.164687
H132  H     H_    0.444810 0.508906 0.160153 0.163779
N1    N     N_3   0.944190 0.967607 0.152620 -0.628170
N2    N     N_3   0.453866 0.213970 0.901085 -0.636196
N3    N     N_3   0.046376 0.714112 0.099197 -0.617928
N4    N     N_3   0.953876 0.713967 0.901089 -0.636288
N5    N     N_3   0.938716 0.823858 0.957703 -0.636717
N6    N     N_3   0.061309 0.823983 0.042307 -0.634336
N7    N     N_3   0.438716 0.323860 0.957719 -0.636596
N8    N     N_3   0.561304 0.323981 0.042297 -0.634378
N9    N     N_3   0.053181 0.963489 0.844763 -0.627227
N10   N     N_3   0.452623 0.456144 0.161081 -0.629151
N11   N     N_3   0.547570 0.456403 0.839128 -0.628059
N12   N     N_3   0.048176 0.215010 0.100416 -0.528639
N13   N     N_3   0.952320 0.212740 0.903342 -0.591195
N14   N     N_3   0.548178 0.715011 0.100418 -0.529164
N15   N     N_3   0.452316 0.712740 0.903347 -0.591477
N16   N     N_3   0.546372 0.214110 0.099191 -0.618224
O1    O     O_R   0.049910 0.028900 0.549890 -0.507283
O2    O     O_R   0.549900 0.000010 0.015010 -0.523701
O3    O     O_R   0.950100 0.500010 0.984990 -0.462681
O4    O     O_R   0.049900 0.500010 0.015010 -0.523401
O5    O     O_R   0.500000 0.049850 0.965040 -0.522595
O6    O     O_R   0.500000 0.049850 0.034960 -0.497196
O7    O     O_R   0.000000 0.549850 0.965040 -0.522578
O8    O     O_R   0.000000 0.549850 0.034960 -0.497000
O9    O     O_R   0.049920 0.971120 0.549870 -0.511601
O10   O     O_R   0.950080 0.971120 0.450130 -0.512227
O11   O     O_R   0.549920 0.471120 0.549870 -0.511567
O12   O     O_R   0.950090 0.028900 0.450110 -0.507092
O13   O     O_R   0.450080 0.471120 0.450130 -0.512393
O14   O     O_R   0.000000 0.028900 0.439710 -0.482043
O15   O     O_R   0.000000 0.028900 0.560290 -0.481932
O16   O     O_R   0.500000 0.528900 0.439710 -0.483152
O17   O     O_R   0.500000 0.528900 0.560290 -0.482563
O18   O     O_R   0.000010 0.971120 0.439700 -0.509544
O19   O     O_R   0.999990 0.971120 0.560300 -0.508126
O20   O     O_R   0.500010 0.471120 0.439700 -0.509117
O21   O     O_R   0.499990 0.471120 0.560300 -0.508010
O22   O     O_R   0.028900 0.049810 0.028900 -0.508845
O23   O     O_R   0.549910 0.528900 0.549890 -0.507608
O24   O     O_R   0.971100 0.049810 0.971100 -0.506632
O25   O     O_R   0.528900 0.549810 0.028900 -0.509031
O26   O     O_R   0.471100 0.549810 0.971100 -0.506721
O27   O     O_R   0.028890 0.999890 0.089150 -0.501657
O28   O     O_R   0.971110 0.999890 0.910850 -0.500789
O29   O     O_R   0.528890 0.499890 0.089150 -0.501444
O30   O     O_R   0.471110 0.499890 0.910850 -0.500574
O31   O     O_R   0.971120 0.999910 0.031400 -0.497155
O32   O     O_R   0.028880 0.999910 0.968600 -0.496836
O33   O     O_R   0.471120 0.499910 0.031400 -0.497999
O34   O     O_R   0.450090 0.528900 0.450110 -0.506632
O35   O     O_R   0.528880 0.499910 0.968600 -0.497426
O36   O     O_R   0.028890 0.949980 0.028830 -0.509684
O37   O     O_R   0.971110 0.949980 0.971170 -0.510140
O38   O     O_R   0.528890 0.449980 0.028830 -0.509501
O39   O     O_R   0.471110 0.449980 0.971170 -0.509899
O40   O     O_R   0.500020 0.950020 0.965150 -0.505625
O41   O     O_R   0.499980 0.950020 0.034850 -0.487210
O42   O     O_R   0.000020 0.450020 0.965150 -0.505638
O43   O     O_R   0.999980 0.450020 0.034850 -0.487312
O44   O     O_R   0.450100 0.999940 0.915210 -0.509760
O45   O     O_R   0.549900 0.999940 0.084790 -0.446310
O46   O     O_R   0.950100 0.499940 0.915210 -0.509788
O47   O     O_R   0.049900 0.499940 0.084790 -0.446698
O48   O     O_R   0.450100 0.000010 0.984990 -0.462667

loop_
_geom_bond_atom_site_label_1
_geom_bond_atom_site_label_2
_ccdc_geom_bond_type
C172  C177  A    
C37   Cl16  S    
Cu1   Cu6   S    
Cu9   O31   S    
C76   H93   S    
Cu2   O48   S    
C142  C146  A    
C112  C202  S    
C78   H95   S    
C46   C129  S    
C33   H112  S    
Cu1   O12   S    
C135  C139  A    
C67   H117  S    
C14   O30   A    
C89   C99   A    
C138  C165  A    
C166  C188  A    
C138  C143  A    
C170  H47   S    
C194  H58   S    
C29   C42   A    
C22   O47   A    
Cu4   O47   S    
C87   C94   A    
C20   O45   A    
Cu10  O38   S    
C168  C190  A    
C123  C205  S    
C143  Cl4   S    
C146  C150  A    
Cu5   O16   S    
C127  C209  S    
C113  C122  S    
C152  C156  A    
C123  H78   S    
C56   C72   A    
C16   O39   A    
C169  C174  A    
C180  Cl6   S    
C119  C205  S    
C59   C73   A    
C200  H63   S    
C141  C145  A    
C88   C95   A    
C88   N2    S    
C100  C109  A    
C120  C207  S    
C129  C173  S    
Cu10  O25   S    
Cu12  O5    S    
C80   C83   A    
Cu11  O33   S    
Cu7   O20   S    
Cu5   O23   S    
C20   O2    A    
C71   H116  S    
C173  H131  S    
C21   O3    A    
C195  H3    S    
C50   C53   A    
C4    C214  A    
C61   H86   S    
H15   N13   S    
C159  O16   A    
C167  C171  A    
C11   O32   A    
C94   C97   A    
Cu12  O40   S    
C20   C163  S    
H19   N15   S    
C8    O24   A    
C153  C161  A    
C64   C66   A    
C186  C190  A    
C68   C131  S    
C173  N9    S    
C136  C141  A    
C89   N3    S    
C141  Cl2   S    
C25   O7    A    
C96   C117  S    
C43   C54   A    
C148  H122  S    
C64   H90   S    
H33   N6    S    
C40   C55   S    
C128  C162  S    
C14   O35   A    
H20   N15   S    
C29   H76   S    
C127  H111  S    
H25   N2    S    
C205  H51   S    
C32   H110  S    
C179  Cl5   S    
C82   C84   A    
C6    C177  S    
C21   O46   A    
C5    C176  S    
C15   C115  S    
C148  C153  A    
C6    C194  A    
C102  N6    S    
H28   N4    S    
C32   C121  S    
C131  C195  S    
C69   H114  S    
C43   Cl18  S    
C32   C70   S    
C160  O21   A    
C95   C97   A    
C101  C133  T    
C3    C213  A    
C27   H74   S    
C155  H40   S    
C59   C63   A    
C19   O44   A    
C60   C64   A    
C183  C188  A    
C77   C82   A    
C199  H62   S    
C32   H84   S    
C127  C131  S    
C31   C120  S    
C33   C71   S    
C187  Cl13  S    
C125  C129  S    
C207  Cl12  S    
C48   C52   A    
Cu10  O29   S    
C69   C129  S    
Cu9   O24   S    
H38   N8    S    
H8    N10   S    
C100  C117  A    
C121  C208  S    
C17   O41   A    
C7    C196  A    
C138  Cl27  S    
H4    N1    S    
C74   H91   S    
C211  H65   S    
C134  C160  S    
C137  C142  A    
C114  H107  S    
C103  N7    S    
C181  Cl7   S    
C45   Cl20  S    
C51   N15   S    
C70   H119  S    
C184  N10   S    
C183  Cl9   S    
C38   Cl17  S    
C101  C121  S    
C31   H109  S    
C49   N13   S    
C9    O26   A    
C160  O17   A    
C123  H1    S    
C205  Cl1   S    
C136  Cl25  S    
C216  H71   S    
C37   C40   A    
C18   C42   S    
C24   H125  S    
C39   C54   S    
C5    C215  A    
H34   N7    S    
C92   C96   A    
C139  C144  A    
H26   N3    S    
C162  N1    S    
C30   H108  S    
C186  Cl11  S    
C196  H59   S    
C147  C191  S    
C4    C175  S    
C125  H89   S    
C157  O18   A    
C198  C202  A    
C213  H68   S    
C127  H67   S    
H31   N5    S    
C62   H87   S    
C126  H56   S    
C30   C67   S    
C125  H45   S    
C1    O9    A    
Cu6   O10   S    
C8    C65   S    
C16   O38   A    
C135  C161  A    
C184  H132  S    
C209  H54   S    
C167  C189  A    
H14   N12   S    
C214  H69   S    
C34   C39   A    
C156  H41   S    
C23   O6    A    
C126  C208  S    
C206  H121  S    
C2    C120  S    
Cu3   O7    S    
Cu6   O19   S    
C125  C207  S    
C198  H61   S    
C51   C53   A    
C90   C120  S    
C59   H80   S    
C35   C105  T    
C61   C65   A    
C13   C121  S    
C200  C204  A    
Cu3   O46   S    
C2    H123  S    
H6    N9    S    
C102  C117  A    
C71   H120  S    
H22   N16   S    
C166  C170  A    
C150  C155  A    
C140  O11   A    
C33   C122  S    
C169  C191  A    
C31   H83   S    
C159  O20   A    
C162  H130  S    
C13   H124  S    
C207  H52   S    
C13   H128  S    
C24   H129  S    
C36   C39   A    
C209  Cl23  S    
Cu5   O34   S    
H18   N14   S    
C114  C116  A    
C181  C186  A    
C43   C50   A    
C185  C189  A    
C80   H96   S    
C79   C124  T    
C182  Cl8   S    
C215  H70   S    
C195  N11   S    
C12   O29   A    
C201  C210  A    
C202  C211  A    
C67   C128  S    
Cu1   O15   S    
Cu2   Cu12  S    
C28   C37   A    
C177  C181  A    
C46   C106  T    
C158  O19   A    
H10   N11   S    
C74   C85   A    
C22   O4    A    
C71   C131  S    
C206  H126  S    
C44   C54   A    
C176  C180  A    
C111  H106  S    
C6    C216  A    
C45   C55   A    
C93   H101  S    
Cu8   Cu9   S    
C91   C99   A    
C88   C98   A    
C56   H77   S    
C58   C62   A    
Cu11  O39   S    
C4    C192  A    
C151  C204  S    
C1    C201  S    
C81   C84   A    
H5    N1    S    
C197  H60   S    
C58   H79   S    
C3    C7    A    
C2    C173  S    
C126  C130  S    
C193  C198  A    
C60   C73   A    
C168  H44   S    
C135  Cl24  S    
C103  C111  A    
C19   C161  S    
C18   O42   A    
C210  H64   S    
C47   Cl21  S    
C78   C83   A    
C75   C85   A    
C212  H66   S    
C79   C119  S    
C172  H49   S    
C111  C116  A    
C70   H115  S    
C174  C178  A    
C144  C148  A    
C87   C98   A    
C90   C132  T    
C14   C108  S    
C3    H72   S    
C63   C66   A    
C21   C164  S    
C162  C206  S    
C199  C203  A    
C192  H55   S    
Cu7   O21   S    
C81   H97   S    
C16   C116  S    
Cu12  O2    S    
C166  H42   S    
C104  C118  A    
C170  C175  A    
C154  H39   S    
C100  N5    S    
H21   N16   S    
C94   H102  S    
C44   Cl19  S    
C208  Cl22  S    
C28   H75   S    
C157  O14   A    
C132  C158  S    
C7    C178  S    
C133  C159  S    
C149  C154  A    
H32   N6    S    
Cu10  Cu11  S    
C91   C93   A    
Cu5   O17   S    
H9    N10   S    
C49   C52   A    
C124  C157  S    
C11   C106  S    
C24   C122  S    
C119  C206  S    
C192  C197  A    
C15   O37   A    
C11   O28   A    
C112  O10   A    
C10   O31   A    
C75   H92   S    
C113  C134  T    
C102  C110  A    
C103  C118  A    
C17   O40   A    
C76   C86   A    
C77   H94   S    
H7    N9    S    
Cu8   O22   S    
C48   N12   S    
C5    C193  A    
C171  C176  A    
C45   C48   A    
C33   H85   S    
Cu1   O1    S    
H23   N2    S    
C145  C189  S    
C84   C99   S    
C151  O13   A    
C12   C107  S    
C9    O25   A    
C27   C36   A    
C24   C195  S    
C2    H127  S    
H17   N14   S    
C19   O48   A    
Cu8   O27   S    
C130  C184  S    
C25   O8    A    
C38   C40   A    
C82   H98   S    
C156  C165  A    
C153  H35   S    
C36   Cl15  S    
C95   H103  S    
C35   C128  S    
Cu2   O41   S    
C193  H57   S    
C142  Cl3   S    
C87   N16   S    
H12   N12   S    
C168  C172  A    
Cu9   O37   S    
C74   C78   A    
Cu2   O45   S    
C56   C61   A    
H11   N11   S    
C110  C115  A    
C145  C149  A    
C104  N8    S    
C136  C163  A    
C30   H82   S    
C211  C215  A    
C60   H81   S    
C174  H50   S    
C12   O33   A    
C196  C200  A    
C15   O36   A    
Cu11  O26   S    
C47   C49   A    
C143  C147  A    
Cu10  O35   S    
C158  O15   A    
C52   C72   S    
C140  O23   A    
C23   O5    A    
C63   H88   S    
C30   C119  S    
C10   O27   A    
C151  O34   A    
Cu4   O43   S    
C97   C118  S    
C9    C66   S    
C112  O12   A    
C22   C165  S    
C26   C34   A    
C212  C216  A    
Cu12  O44   S    
H37   N8    S    
C197  C201  A    
C152  H24   S    
C75   C80   A    
C187  C191  A    
C13   C184  S    
H30   N5    S    
C34   Cl14  S    
C150  H13   S    
C179  C183  A    
C149  H2    S    
C109  H104  S    
Cu5   Cu7   S    
C17   C41   S    
C154  C163  A    
C140  C203  S    
Cu3   O4    S    
Cu4   O3    S    
C175  C179  A    
C57   C130  S    
C210  C214  A    
C204  C213  A    
C83   C98   S    
C92   H99   S    
H16   N13   S    
C29   C38   A    
C169  H46   S    
Cu1   O14   S    
C171  H48   S    
C27   C41   A    
C194  C199  A    
C110  H105  S    
C31   C69   S    
C122  C209  S    
C178  C182  A    
C208  H53   S    
C89   C92   A    
C139  Cl28  S    
Cu7   O11   S    
C104  C114  A    
C44   C51   A    
C57   C107  T    
Cu6   O9    S    
C77   C86   A    
Cu2   O6    S    
C93   C96   A    
Cu11  O30   S    
C203  C212  A    
C137  Cl26  S    
C70   C130  S    
C69   H118  S    
C26   H73   S    
C47   C55   A    
C144  C188  S    
C167  H43   S    
C62   C65   A    
Cu9   O28   S    
C53   C73   S    
C91   N4    S    
C76   C81   A    
C137  C164  A    
Cu3   Cu4   S    
C1    O1    A    
Cu6   O18   S    
C155  C164  A    
Cu3   O42   S    
H27   N3    S    
C50   N14   S    
C147  C152  A    
C58   C72   A    
C123  C128  S    
C185  Cl10  S    
C28   C42   A    
C25   C86   S    
C8    O22   A    
Cu8   O36   S    
C182  C187  A    
C67   H113  S    
Cu7   O13   S    
H36   N7    S    
C126  H100  S    
C18   O43   A    
Cu8   O32   S    
C180  C185  A    
C109  C115  A    
Cu4   O8    S    
H29   N4    S    
C23   C85   S    
C146  C190  S    
C10   C105  S    
C68   C108  T    
C26   C41   A    
