data_mof_unit_47791.cif
_audit_creation_date              2012-12-11T14:38:08-0500
_audit_creation_method            fapswitch 2.2
_symmetry_space_group_name_H-M    P1
_symmetry_Int_Tables_number       1
_space_group_crystal_system       triclinic
_cell_length_a                    19.567141
_cell_length_b                    11.16823
_cell_length_c                    19.688303
_cell_angle_alpha                 90.000013
_cell_angle_beta                  96.111592
_cell_angle_gamma                 90.0
_cell_volume                      4278.0378398

loop_
_atom_site_label
_atom_site_type_symbol
_atom_type_description
_atom_site_fract_x
_atom_site_fract_y
_atom_site_fract_z
_atom_type_partial_charge
C1    C     C_R   0.708234 0.995190 0.366322 0.549650
C2    C     C_R   0.291766 0.995190 0.633678 0.549650
C3    C     C_R   0.208234 0.495190 0.366322 0.549650
C4    C     C_R   0.791766 0.495190 0.633678 0.549650
C5    C     C_3   0.679737 0.452515 0.460782 0.026940
C6    C     C_3   0.320263 0.452515 0.539218 0.026940
C7    C     C_3   0.179737 0.952515 0.460782 0.026940
C8    C     C_3   0.820263 0.952515 0.539218 0.026940
C9    C     C_3   0.828680 0.521400 0.518148 -0.249887
C10   C     C_3   0.171320 0.521400 0.481852 -0.249887
C11   C     C_3   0.328680 0.021400 0.518148 -0.249887
C12   C     C_3   0.671320 0.021400 0.481852 -0.249887
C13   C     C_3   0.783006 0.327294 0.552269 -0.242766
C14   C     C_3   0.216994 0.327293 0.447731 -0.242766
C15   C     C_3   0.283006 0.827294 0.552269 -0.242766
C16   C     C_3   0.716993 0.827293 0.447731 -0.242766
C17   C     C_3   0.775638 0.462490 0.561323 0.037507
C18   C     C_3   0.224362 0.462490 0.438677 0.037507
C19   C     C_3   0.275638 0.962490 0.561323 0.037507
C20   C     C_3   0.724362 0.962490 0.438677 0.037507
C21   C     C_3   0.748564 0.407785 0.432440 0.084633
C22   C     C_3   0.251436 0.407785 0.567560 0.084633
C23   C     C_3   0.248564 0.907785 0.432440 0.084633
C24   C     C_3   0.751436 0.907785 0.567560 0.084633
C25   C     C_3   0.805787 0.504772 0.441406 -0.249644
C26   C     C_3   0.194213 0.504772 0.558594 -0.249644
C27   C     C_3   0.305787 0.004772 0.441406 -0.249644
C28   C     C_3   0.694213 0.004772 0.558594 -0.249644
C29   C     C_3   0.776768 0.300141 0.476706 -0.240561
C30   C     C_3   0.223232 0.300141 0.523294 -0.240560
C31   C     C_3   0.276768 0.800141 0.476706 -0.240561
C32   C     C_3   0.723232 0.800141 0.523294 -0.240560
C33   C     C_3   0.428230 0.236890 0.969933 -0.218677
C34   C     C_3   0.445194 0.235469 0.047710 -0.248122
C35   C     C_3   0.054805 0.735465 0.952290 -0.248118
C36   C     C_3   0.071774 0.736875 0.030067 -0.218680
C37   C     C_3   0.490965 0.041133 0.960962 -0.234372
C38   C     C_3   0.571771 0.236880 0.030067 -0.218677
C39   C     C_3   0.928228 0.736884 0.969933 -0.218680
C40   C     C_3   0.009023 0.541133 0.039039 -0.234376
C41   C     C_3   0.554807 0.235459 0.952290 -0.248121
C42   C     C_3   0.509027 0.041133 0.039039 -0.234375
C43   C     C_3   0.990969 0.541133 0.960962 -0.234374
C44   C     C_3   0.945196 0.735474 0.047710 -0.248117
C45   C     C_R   0.534347 0.179627 0.337608 0.523255
C46   C     C_R   0.465653 0.179627 0.662392 0.523256
C47   C     C_R   0.034347 0.679627 0.337608 0.523255
C48   C     C_R   0.965653 0.679627 0.662392 0.523256
C49   C     C_3   0.485341 0.172123 0.934006 0.052193
C50   C     C_3   0.514657 0.172123 0.065994 0.052193
C51   C     C_3   0.985341 0.672123 0.934006 0.052193
C52   C     C_3   0.014657 0.672123 0.065994 0.052195
C53   C     C_1   0.761975 0.428139 0.904579 -0.015238
C54   C     C_1   0.238025 0.428139 0.095421 -0.015239
C55   C     C_1   0.261975 0.928139 0.904579 -0.015238
C56   C     C_1   0.738025 0.928138 0.095421 -0.015238
C57   C     C_1   0.748267 0.406180 0.034635 -0.053582
C58   C     C_1   0.251733 0.406180 0.965365 -0.053582
C59   C     C_1   0.248267 0.906180 0.034635 -0.053583
C60   C     C_1   0.751733 0.906180 0.965365 -0.053582
C61   C     C_1   0.754014 0.416468 0.964055 -0.051961
C62   C     C_1   0.245986 0.416468 0.035945 -0.051961
C63   C     C_1   0.254014 0.916468 0.964055 -0.051961
C64   C     C_1   0.745986 0.916468 0.035945 -0.051961
C65   C     C_1   0.743746 0.391414 0.094604 -0.016142
C66   C     C_1   0.256253 0.391414 0.905396 -0.016142
C67   C     C_1   0.243747 0.891414 0.094604 -0.016142
C68   C     C_1   0.756253 0.891414 0.905396 -0.016142
C69   C     C_R   0.739017 0.363119 0.361160 0.532431
C70   C     C_R   0.260983 0.363119 0.638839 0.532431
C71   C     C_R   0.239017 0.863119 0.361160 0.532431
C72   C     C_R   0.760983 0.863119 0.638839 0.532431
C73   C     C_R   0.722239 0.954584 0.163205 0.548750
C74   C     C_R   0.277761 0.954584 0.836795 0.548750
C75   C     C_R   0.222238 0.454584 0.163205 0.548750
C76   C     C_R   0.777761 0.454584 0.836795 0.548750
C77   C     C_R   0.534735 0.179104 0.139960 0.541868
C78   C     C_R   0.465264 0.179104 0.860040 0.541869
C79   C     C_R   0.034735 0.679104 0.139960 0.541869
C80   C     C_R   0.965264 0.679104 0.860040 0.541869
C81   C     C_R   0.736057 0.357615 0.163552 0.545570
C82   C     C_R   0.263943 0.357615 0.836448 0.545570
C83   C     C_R   0.236057 0.857615 0.163552 0.545570
C84   C     C_R   0.763943 0.857615 0.836448 0.545570
C85   C     C_1   0.488400 0.169377 0.595391 -0.039560
C86   C     C_1   0.511600 0.169377 0.404609 -0.039560
C87   C     C_1   0.988400 0.669377 0.595391 -0.039560
C88   C     C_1   0.011600 0.669377 0.404609 -0.039560
C89   C     C_1   0.502685 0.163822 0.464376 -0.077313
C90   C     C_1   0.497315 0.163822 0.535624 -0.077313
C91   C     C_1   0.002685 0.663822 0.464376 -0.077313
C92   C     C_1   0.997315 0.663822 0.535624 -0.077313
C93   C     C_3   0.699456 0.494416 0.535148 -0.177488
C94   C     C_3   0.300544 0.494416 0.464852 -0.177488
C95   C     C_3   0.199456 0.994416 0.535148 -0.177488
C96   C     C_3   0.800544 0.994416 0.464852 -0.177488
Cr1   Cr    Cr6+3 0.765780 0.160710 0.267420 1.010393
Cr2   Cr    Cr6+3 0.234220 0.160710 0.732580 1.010394
Cr3   Cr    Cr6+3 0.265780 0.660710 0.267420 1.010393
Cr4   Cr    Cr6+3 0.734220 0.660710 0.732580 1.010394
Cr5   Cr    Cr6+3 0.612200 0.009560 0.248850 1.008252
Cr6   Cr    Cr6+3 0.387800 0.009560 0.751150 1.008252
Cr7   Cr    Cr6+3 0.112200 0.509560 0.248850 1.008252
Cr8   Cr    Cr6+3 0.887800 0.509560 0.751150 1.008252
Cr9   Cr    Cr6+3 0.616030 0.323720 0.248510 0.997882
Cr10  Cr    Cr6+3 0.383970 0.323720 0.751490 0.997882
Cr11  Cr    Cr6+3 0.116030 0.823720 0.248510 0.997882
Cr12  Cr    Cr6+3 0.883970 0.823720 0.751490 0.997882
H1    H     H_    0.687912 0.588033 0.541799 0.114825
H2    H     H_    0.312088 0.588033 0.458201 0.114825
H3    H     H_    0.187912 0.088033 0.541799 0.114825
H4    H     H_    0.812088 0.088033 0.458201 0.114825
H5    H     H_    0.829139 0.276822 0.463407 0.134495
H6    H     H_    0.170861 0.276821 0.536593 0.134494
H7    H     H_    0.329139 0.776822 0.463407 0.134495
H8    H     H_    0.670861 0.776821 0.536593 0.134494
H9    H     H_    0.879466 0.476805 0.530213 0.135574
H10   H     H_    0.120534 0.476805 0.469787 0.135574
H11   H     H_    0.379466 0.976805 0.530213 0.135574
H12   H     H_    0.620533 0.976805 0.469787 0.135574
H13   H     H_    0.851073 0.476738 0.415479 0.129416
H14   H     H_    0.148927 0.476738 0.584521 0.129416
H15   H     H_    0.351073 0.976738 0.415479 0.129416
H16   H     H_    0.648927 0.976738 0.584521 0.129416
H17   H     H_    0.377686 0.192432 0.956159 0.119214
H18   H     H_    0.447176 0.329148 0.067159 0.141936
H19   H     H_    0.052823 0.829148 0.932846 0.141937
H20   H     H_    0.122313 0.692397 0.043837 0.119215
H21   H     H_    0.422695 0.331753 0.952828 0.149424
H22   H     H_    0.403915 0.188005 0.071775 0.117449
H23   H     H_    0.096083 0.688006 0.928220 0.117447
H24   H     H_    0.077321 0.831734 0.047175 0.149422
H25   H     H_    0.441325 0.993225 0.948372 0.148645
H26   H     H_    0.577311 0.331741 0.047172 0.149423
H27   H     H_    0.922685 0.831743 0.952824 0.149423
H28   H     H_    0.058658 0.493211 0.051634 0.148649
H29   H     H_    0.468864 0.991774 0.063728 0.128424
H30   H     H_    0.552831 0.329138 0.932840 0.141934
H31   H     H_    0.947183 0.829157 0.067154 0.141939
H32   H     H_    0.031134 0.491774 0.936276 0.128425
H33   H     H_    0.596085 0.187988 0.928225 0.117449
H34   H     H_    0.558664 0.993218 0.051629 0.148647
H35   H     H_    0.941332 0.493218 0.948368 0.148647
H36   H     H_    0.903916 0.688021 0.071780 0.117446
H37   H     H_    0.622313 0.192414 0.043841 0.119215
H38   H     H_    0.531126 0.991766 0.936274 0.128426
H39   H     H_    0.968856 0.491781 0.063725 0.128422
H40   H     H_    0.877687 0.692413 0.956164 0.119215
H41   H     H_    0.665108 0.453019 0.570287 0.132197
H42   H     H_    0.334892 0.453019 0.429713 0.132197
H43   H     H_    0.165108 0.953019 0.570287 0.132197
H44   H     H_    0.834892 0.953019 0.429713 0.132197
H45   H     H_    0.339989 0.114460 0.531308 0.086104
H46   H     H_    0.660011 0.114460 0.468692 0.086104
H47   H     H_    0.839988 0.614460 0.531308 0.086104
H48   H     H_    0.160012 0.614460 0.468692 0.086104
H49   H     H_    0.288710 0.090619 0.417965 0.106968
H50   H     H_    0.711290 0.090619 0.582035 0.106969
H51   H     H_    0.788710 0.590619 0.417965 0.106968
H52   H     H_    0.211290 0.590619 0.582035 0.106969
H53   H     H_    0.834575 0.296458 0.574272 0.144033
H54   H     H_    0.165425 0.296458 0.425728 0.144033
H55   H     H_    0.334575 0.796458 0.574272 0.144033
H56   H     H_    0.665425 0.796458 0.425728 0.144033
H57   H     H_    0.743572 0.279456 0.578329 0.120769
H58   H     H_    0.256428 0.279456 0.421671 0.120769
H59   H     H_    0.243572 0.779456 0.578329 0.120769
H60   H     H_    0.756428 0.779456 0.421671 0.120769
H61   H     H_    0.742570 0.224560 0.466334 0.116421
H62   H     H_    0.257430 0.224560 0.533666 0.116421
H63   H     H_    0.242570 0.724560 0.466334 0.116421
H64   H     H_    0.757430 0.724560 0.533666 0.116421
O1    O     O_R   0.783100 0.287550 0.345460 -0.540484
O2    O     O_R   0.216900 0.287550 0.654540 -0.540484
O3    O     O_R   0.283100 0.787550 0.345460 -0.540484
O4    O     O_R   0.716900 0.787550 0.654540 -0.540484
O5    O     O_R   0.554710 0.081900 0.170950 -0.507678
O6    O     O_R   0.445290 0.081900 0.829050 -0.507678
O7    O     O_R   0.054710 0.581900 0.170950 -0.507679
O8    O     O_R   0.945290 0.581900 0.829050 -0.507679
O9    O     O_R   0.545650 0.284910 0.163740 -0.522534
O10   O     O_R   0.454350 0.284910 0.836260 -0.522534
O11   O     O_R   0.045650 0.784910 0.163740 -0.522535
O12   O     O_R   0.954350 0.784910 0.836260 -0.522534
O13   O     O_R   0.677950 0.374280 0.185410 -0.497923
O14   O     O_R   0.322050 0.374280 0.814590 -0.497924
O15   O     O_R   0.177950 0.874280 0.185410 -0.497924
O16   O     O_R   0.822050 0.874280 0.814590 -0.497924
O17   O     O_3   0.664670 0.164660 0.254930 -0.272819
O18   O     O_3   0.335330 0.164660 0.745070 -0.272820
O19   O     O_3   0.164670 0.664660 0.254930 -0.272819
O20   O     O_3   0.835330 0.664660 0.745070 -0.272820
O21   O     O_R   0.760020 0.037400 0.337700 -0.516914
O22   O     O_R   0.239980 0.037400 0.662300 -0.516914
O23   O     O_R   0.260020 0.537400 0.337700 -0.516914
O24   O     O_R   0.739980 0.537400 0.662300 -0.516914
O25   O     O_R   0.666600 0.921990 0.332020 -0.523695
O26   O     O_R   0.333400 0.921990 0.667980 -0.523695
O27   O     O_R   0.166600 0.421990 0.332020 -0.523695
O28   O     O_R   0.833400 0.421990 0.667980 -0.523695
O29   O     O_R   0.557260 0.082670 0.312540 -0.507127
O30   O     O_R   0.442740 0.082670 0.687460 -0.507127
O31   O     O_R   0.057260 0.582670 0.312540 -0.507127
O32   O     O_R   0.942740 0.582670 0.687460 -0.507127
O33   O     O_R   0.548410 0.285740 0.316480 -0.522348
O34   O     O_R   0.451590 0.285740 0.683520 -0.522347
O35   O     O_R   0.048410 0.785740 0.316480 -0.522348
O36   O     O_R   0.951590 0.785740 0.683520 -0.522347
O37   O     O_R   0.680500 0.375040 0.327000 -0.511946
O38   O     O_R   0.319500 0.375040 0.673000 -0.511946
O39   O     O_R   0.180500 0.875040 0.327000 -0.511946
O40   O     O_R   0.819500 0.875040 0.673000 -0.511946
O41   O     O_R   0.780350 0.286720 0.192720 -0.507123
O42   O     O_R   0.219650 0.286720 0.807280 -0.507123
O43   O     O_R   0.280350 0.786720 0.192720 -0.507123
O44   O     O_R   0.719650 0.786720 0.807280 -0.507123
O45   O     O_R   0.757470 0.036630 0.196110 -0.490642
O46   O     O_R   0.242530 0.036630 0.803890 -0.490642
O47   O     O_R   0.257470 0.536630 0.196110 -0.490642
O48   O     O_R   0.742530 0.536630 0.803890 -0.490642
O49   O     O_R   0.663840 0.921160 0.179280 -0.510116
O50   O     O_R   0.336160 0.921160 0.820720 -0.510117
O51   O     O_R   0.163840 0.421160 0.179280 -0.510116
O52   O     O_R   0.836160 0.421160 0.820720 -0.510117
C97   C     C_3   0.626526 0.350732 0.464153 -0.374279
H65   H     H_    0.637559 0.292951 0.509784 0.106693
H66   H     H_    0.573947 0.387210 0.466534 0.138267
H67   H     H_    0.626956 0.291986 0.419781 0.167891
C98   C     C_3   0.373474 0.350732 0.535847 -0.374279
H68   H     H_    0.362441 0.292951 0.490216 0.106693
H69   H     H_    0.426053 0.387210 0.533466 0.138267
H70   H     H_    0.373044 0.291986 0.580219 0.167891
C99   C     C_3   0.126526 0.850732 0.464153 -0.374279
H71   H     H_    0.137559 0.792951 0.509784 0.106693
H72   H     H_    0.073947 0.887210 0.466534 0.138267
H73   H     H_    0.126956 0.791986 0.419781 0.167891
C100  C     C_3   0.873474 0.850732 0.535847 -0.374279
H74   H     H_    0.862441 0.792951 0.490216 0.106693
H75   H     H_    0.926053 0.887210 0.533466 0.138267
H76   H     H_    0.873044 0.791986 0.580219 0.167891
C101  C     C_3   0.643077 0.554138 0.416682 -0.369003
H77   H     H_    0.605773 0.518045 0.375266 0.173290
H78   H     H_    0.612336 0.612246 0.447677 0.096698
H79   H     H_    0.679408 0.608877 0.390935 0.121883
C102  C     C_3   0.356923 0.554138 0.583318 -0.369003
H80   H     H_    0.394227 0.518045 0.624734 0.173290
H81   H     H_    0.387664 0.612246 0.552323 0.096698
H82   H     H_    0.320591 0.608877 0.609065 0.121883
C103  C     C_3   0.143077 0.054138 0.416682 -0.369003
H83   H     H_    0.105773 0.018045 0.375266 0.173290
H84   H     H_    0.112336 0.112246 0.447677 0.096698
H85   H     H_    0.179408 0.108877 0.390935 0.121883
C104  C     C_3   0.856923 0.054138 0.583318 -0.369003
H86   H     H_    0.894227 0.018045 0.624734 0.173290
H87   H     H_    0.887664 0.112246 0.552323 0.096698
H88   H     H_    0.820591 0.108877 0.609065 0.121883

loop_
_geom_bond_atom_site_label_1
_geom_bond_atom_site_label_2
_ccdc_geom_bond_type
C58   C62   S    
C39   C51   S    
C7    C99   S    
C67   C83   S    
C8    C24   S    
C9    H47   S    
Cr11  O15   S    
C37   C49   S    
C9    H9    S    
C14   C18   S    
C6    C102  S    
C43   H35   S    
C35   C36   S    
C8    C96   S    
Cr12  O36   S    
C87   C92   T    
C83   O15   A    
Cr7   O19   S    
C9    C25   S    
C79   O11   A    
C39   H27   S    
C8    C100  S    
C16   H56   S    
C15   C19   S    
C40   H28   S    
C11   C19   S    
C103  H83   S    
Cr3   O43   S    
C48   O36   A    
C82   O14   A    
Cr8   O32   S    
C13   C29   S    
C16   C20   S    
C16   H60   S    
C72   O40   A    
C98   H70   S    
Cr5   O17   S    
C74   O46   A    
Cr6   O26   S    
C104  H86   S    
Cr2   O2    S    
Cr5   O25   S    
Cr7   O7    S    
Cr11  O39   S    
Cr9   O13   S    
C96   H44   S    
Cr3   O23   S    
C8    C104  S    
C97   H67   S    
Cr9   O37   S    
C49   C78   S    
Cr2   O22   S    
C3    C18   S    
C4    O24   A    
C101  H77   S    
C95   H3    S    
Cr1   O21   S    
C37   C42   S    
Cr2   O46   S    
C51   C80   S    
C30   H62   S    
C21   C25   S    
Cr9   O9    S    
C59   C67   T    
C43   C51   S    
C82   O42   A    
C55   C74   S    
C93   H41   S    
C58   C66   T    
C40   C43   S    
C81   O41   A    
C71   O3    A    
C6    C94   S    
C55   C63   T    
C39   H40   S    
Cr4   O4    S    
C3    O27   A    
C56   C64   T    
C78   O6    A    
C73   O49   A    
C11   C27   S    
C37   H38   S    
C14   H58   S    
C52   C79   S    
C93   H1    S    
C99   H71   S    
C102  H82   S    
Cr11  O35   S    
C36   C52   S    
Cr2   O18   S    
C46   C85   S    
Cr7   O51   S    
C5    C93   S    
C44   C52   S    
C6    C22   S    
Cr1   O17   S    
C20   C96   S    
C46   O30   A    
C75   O51   A    
C28   H50   S    
C12   H12   S    
C100  H74   S    
C42   H29   S    
Cr8   O28   S    
Cr6   O6    S    
C15   H59   S    
Cr4   O20   S    
C69   O1    A    
C14   C30   S    
C81   O13   A    
C22   C70   S    
Cr12  O40   S    
C97   H65   S    
Cr7   O31   S    
Cr4   O24   S    
C24   C72   S    
C103  H84   S    
C34   C50   S    
Cr12  O12   S    
C73   O45   A    
C68   C84   S    
Cr9   O17   S    
Cr6   O18   S    
Cr1   O1    S    
Cr10  O14   S    
C38   C41   S    
C11   H11   S    
C10   H48   S    
C76   O52   A    
C104  H87   S    
C27   H15   S    
C27   H49   S    
C54   C62   T    
C40   C52   S    
C21   C29   S    
C15   C31   S    
C94   H2    S    
C3    O23   A    
C21   C69   S    
C101  H78   S    
C5    C21   S    
C23   C31   S    
C14   H54   S    
C1    O21   A    
C24   C32   S    
C38   H37   S    
C42   H34   S    
C98   H68   S    
C10   H10   S    
C23   C71   S    
C66   C82   S    
C99   H72   S    
C60   C68   T    
C77   O9    A    
C88   C91   T    
C75   O47   A    
C34   H18   S    
C57   C65   T    
C12   C20   S    
C33   H17   S    
C33   C34   S    
C48   C87   S    
C47   O31   A    
C43   H32   S    
C78   O10   A    
Cr7   O27   S    
C13   H57   S    
C32   H8    S    
C57   C61   S    
C70   O2    A    
C34   H22   S    
C41   H30   S    
C36   H24   S    
Cr12  O20   S    
C42   C50   S    
C25   H51   S    
C4    C17   S    
C9    C17   S    
C33   H21   S    
Cr3   O47   S    
C44   H31   S    
C23   C27   S    
C25   H13   S    
C100  H75   S    
C35   C51   S    
C18   C94   S    
C37   H25   S    
C84   O16   A    
C53   C76   S    
C17   C93   S    
Cr10  O18   S    
C53   C61   T    
C13   H53   S    
C50   C77   S    
C80   O8    A    
C36   H20   S    
C19   C95   S    
Cr6   O50   S    
C12   C28   S    
C30   H6    S    
Cr5   O49   S    
C46   O34   A    
C29   H5    S    
Cr4   O44   S    
C38   H26   S    
C45   O33   A    
C56   C73   S    
C22   C30   S    
C40   H39   S    
C2    C19   S    
C2    O26   A    
Cr12  O16   S    
C1    O25   A    
C24   C28   S    
C80   O12   A    
C12   H46   S    
C1    C20   S    
C86   C89   T    
Cr10  O34   S    
C104  H88   S    
C83   O43   A    
C85   C90   T    
C28   H16   S    
Cr9   O33   S    
C39   C44   S    
C38   C50   S    
C32   H64   S    
C47   O35   A    
C16   C32   S    
C41   C49   S    
C7    C95   S    
C41   H33   S    
C74   O50   A    
C59   C63   S    
C96   H4    S    
C13   C17   S    
C60   C64   S    
C101  H79   S    
C29   H61   S    
C48   O32   A    
C7    C103  S    
C35   H19   S    
C102  H81   S    
C45   C86   S    
Cr6   O30   S    
C35   H23   S    
Cr10  O38   S    
C98   H69   S    
Cr5   O29   S    
C47   C88   S    
Cr3   O19   S    
C10   C26   S    
Cr8   O8    S    
C26   H52   S    
C31   H63   S    
C10   C18   S    
C7    C23   S    
C97   H66   S    
C5    C97   S    
C6    C98   S    
C69   O37   A    
Cr1   O45   S    
C31   H7    S    
Cr2   O42   S    
C99   H73   S    
C77   O5    A    
C103  H85   S    
Cr3   O3    S    
Cr5   O5    S    
C72   O4    A    
C11   H45   S    
C2    O22   A    
C54   C75   S    
C84   O44   A    
C94   H42   S    
C4    O28   A    
C79   O7    A    
C95   H43   S    
Cr4   O48   S    
C45   O29   A    
C22   C26   S    
C100  H76   S    
Cr11  O11   S    
C65   C81   S    
C76   O48   A    
C71   O39   A    
Cr1   O41   S    
C44   H36   S    
C26   H14   S    
C70   O38   A    
C5    C101  S    
C89   C90   S    
C102  H80   S    
C33   C49   S    
Cr8   O52   S    
C15   H55   S    
C91   C92   S    
Cr10  O10   S    
Cr11  O19   S    
Cr8   O20   S    
