data_mof_unit_40376.cif
_audit_creation_date              2012-12-10T17:58:20-0500
_audit_creation_method            fapswitch 2.2
_symmetry_space_group_name_H-M    P1
_symmetry_Int_Tables_number       1
_space_group_crystal_system       triclinic
_cell_length_a                    9.52029
_cell_length_b                    10.834015
_cell_length_c                    15.499007
_cell_angle_alpha                 89.884194
_cell_angle_beta                  74.492651
_cell_angle_gamma                 90.009703
_cell_volume                      1540.41430882

loop_
_atom_site_label
_atom_site_type_symbol
_atom_type_description
_atom_site_fract_x
_atom_site_fract_y
_atom_site_fract_z
_atom_type_partial_charge
C1    C     C_R   0.999934 0.262073 0.500057 0.790674
C2    C     C_R   0.000072 0.737926 0.499929 0.790678
C3    C     C_R   0.585873 0.481176 0.094882 -0.222890
C4    C     C_R   0.424375 0.576325 0.910797 -0.224513
C5    C     C_R   0.731631 0.466733 0.049691 -0.242279
C6    C     C_R   0.279092 0.593122 0.956318 -0.241224
C7    C     C_R   0.872227 0.063812 0.500271 -0.183803
C8    C     C_R   0.127793 0.936181 0.499680 -0.183590
C9    C     C_R   0.872294 0.936111 0.500169 -0.185027
C10   C     C_R   0.127726 0.063883 0.499782 -0.185071
C11   C     C_R   0.000066 0.871777 0.499902 -0.018885
C12   C     C_R   0.999950 0.128219 0.500059 -0.019406
C13   C     C_R   0.548617 0.428054 0.558948 -0.026109
C14   C     C_R   0.451388 0.571929 0.441037 -0.026604
C15   C     C_R   0.399797 0.428166 0.558973 -0.031322
C16   C     C_R   0.600209 0.571822 0.441015 -0.031360
C17   C     C_R   0.918266 0.499584 0.672156 0.801327
C18   C     C_R   0.081729 0.501720 0.327914 0.801340
C19   C     C_R   0.873375 0.497362 0.770399 -0.050283
C20   C     C_R   0.127229 0.514600 0.230208 -0.048270
C21   C     C_R   0.925242 0.461237 0.912641 -0.214142
C22   C     C_R   0.082216 0.583198 0.091673 -0.218626
C23   C     C_R   0.973086 0.471017 0.819844 -0.196941
C24   C     C_R   0.031135 0.558074 0.182828 -0.200475
C25   C     C_R   0.726741 0.517731 0.814739 -0.253558
C26   C     C_R   0.273392 0.493720 0.185396 -0.251715
C27   C     C_R   0.676220 0.511948 0.908567 0.092137
C28   C     C_R   0.329173 0.523076 0.094278 0.092335
C29   C     C_R   0.777892 0.480277 0.957195 0.167342
C30   C     C_R   0.229956 0.566111 0.047142 0.167005
C31   C     C_R   0.527210 0.532732 0.954956 0.066563
C32   C     C_R   0.480081 0.511121 0.048987 0.068033
Cu1   Cu    Cu3+1 0.140660 0.500020 0.500000 0.940395
Cu2   Cu    Cu3+1 0.859340 0.499980 0.500000 0.940075
H1    H     H_    0.808521 0.443148 0.087578 0.151112
H2    H     H_    0.204458 0.627489 0.919899 0.150153
H3    H     H_    0.341170 0.454096 0.223684 0.148430
H4    H     H_    0.653248 0.534253 0.774018 0.150055
H5    H     H_    0.917748 0.575625 0.216547 0.148405
H6    H     H_    0.086974 0.454531 0.786740 0.151223
H7    H     H_    0.772311 0.111807 0.500517 0.149557
H8    H     H_    0.227709 0.888186 0.499434 0.149455
H9    H     H_    0.772433 0.888061 0.500322 0.149419
H10   H     H_    0.227587 0.111932 0.499629 0.149548
H11   H     H_    0.584023 0.370181 0.606069 0.120523
H12   H     H_    0.415992 0.629777 0.393897 0.121168
H13   H     H_    0.323078 0.370529 0.606141 0.115315
H14   H     H_    0.676932 0.629445 0.393836 0.114394
N1    N     N_R   0.352080 0.500030 0.499980 -0.155978
N2    N     N_R   0.647920 0.499970 0.500020 -0.155820
O1    O     O_R   0.118740 0.319660 0.500000 -0.587540
O2    O     O_R   0.881260 0.680340 0.500000 -0.587832
O3    O     O_R   0.881170 0.319630 0.500010 -0.586229
O4    O     O_R   0.118830 0.680370 0.499990 -0.586469
O5    O     O_R   0.055570 0.500030 0.629830 -0.584928
O6    O     O_R   0.944430 0.499970 0.370170 -0.584637
O7    O     O_R   0.818000 0.500000 0.629840 -0.587845
O8    O     O_R   0.182000 0.500000 0.370160 -0.586638
H15   H     H_    0.003199 0.436827 0.949511 0.145153
H16   H     H_    0.006701 0.618406 0.056259 0.142972
H17   H     H_    0.560905 0.471011 0.166476 0.141496
H18   H     H_    0.452907 0.602254 0.841206 0.143727

loop_
_geom_bond_atom_site_label_1
_geom_bond_atom_site_label_2
_ccdc_geom_bond_type
C21   C29   A    
Cu1   O5    S    
Cu2   O7    S    
C19   C23   A    
C26   H3    S    
Cu2   O6    S    
Cu1   O8    S    
C18   O6    A    
C25   H4    S    
C27   C29   A    
C9    C11   A    
C17   O5    A    
C26   C28   A    
C31   C32   A    
C13   C15   A    
C15   H13   S    
C8    H8    S    
C4    H18   S    
C16   H14   S    
C28   C30   A    
Cu1   Cu2   S    
C3    C5    A    
C14   H12   S    
C20   C24   A    
C13   H11   S    
C1    O1    A    
C7    C12   A    
C1    C12   S    
C2    O2    A    
Cu2   O3    S    
C8    C11   A    
C2    C11   S    
C10   C12   A    
C22   C24   A    
C4    C6    A    
C17   C19   S    
C6    H2    S    
C21   H15   S    
C5    C29   A    
C15   N1    A    
C21   C23   A    
C22   H16   S    
C3    C32   A    
C19   C25   A    
C14   C16   A    
C9    H9    S    
C4    C31   A    
Cu2   N2    S    
C3    H17   S    
C10   H10   S    
C13   N2    A    
C14   N1    A    
C5    H1    S    
C28   C32   A    
C24   H5    S    
C27   C31   A    
C18   C20   S    
C8    C10   A    
C2    O4    A    
C17   O7    A    
Cu1   O4    S    
C7    C9    A    
C1    O3    A    
Cu2   O2    S    
C22   C30   A    
C6    C30   A    
Cu1   N1    S    
C18   O8    A    
Cu1   O1    S    
C23   H6    S    
C7    H7    S    
C16   N2    A    
C20   C26   A    
C25   C27   A    
