data_mof_unit_6318.cif
_audit_creation_date              2013-03-05T16:36:15-0500
_audit_creation_method            fapswitch 2.2
_symmetry_space_group_name_H-M    P1
_symmetry_Int_Tables_number       1
_space_group_crystal_system       triclinic
_cell_length_a                    27.722606
_cell_length_b                    9.119067
_cell_length_c                    7.761789
_cell_angle_alpha                 90.022671
_cell_angle_beta                  89.934168
_cell_angle_gamma                 88.572488
_cell_volume                      1961.60318813

loop_
_atom_site_label
_atom_site_type_symbol
_atom_site_description
_atom_site_fract_x
_atom_site_fract_y
_atom_site_fract_z
_atom_type_partial_charge
O1    O     O_R   0.500000 0.288390 0.642760 -0.585832
O2    O     O_R   0.500000 0.711610 0.357240 -0.566387
O3    O     O_R   0.500000 0.711610 0.642760 -0.585705
O4    O     O_R   0.500000 0.288390 0.357240 -0.565889
C1    C     C_R   0.500142 0.219875 0.499983 0.873822
C2    C     C_R   0.499860 0.780124 0.500026 0.873655
O5    O     O_R   0.430260 0.500000 0.642770 -0.555672
O6    O     O_R   0.569740 0.500000 0.357230 -0.580044
O7    O     O_R   0.569740 0.500000 0.642770 -0.555409
O8    O     O_R   0.430260 0.500000 0.357230 -0.579373
C3    C     C_R   0.407029 0.499654 0.500129 0.882083
C4    C     C_R   0.592971 0.500297 0.499930 0.881501
Cu1   Cu    Cu3+1 0.500000 0.500000 0.669080 1.063571
Cu2   Cu    Cu3+1 0.500000 0.500000 0.330920 1.058200
C5    C     C_R   0.177869 0.393140 0.516468 0.663982
C6    C     C_R   0.822032 0.606471 0.514189 0.662164
C7    C     C_R   0.175751 0.634979 0.397972 0.741478
C8    C     C_R   0.824326 0.364593 0.395458 0.738551
O9    O     O_2   0.203885 0.288133 0.599236 -0.473043
O10   O     O_2   0.795876 0.711601 0.596524 -0.469901
O11   O     O_2   0.200034 0.756732 0.358684 -0.439136
O12   O     O_2   0.800064 0.242940 0.355676 -0.431663
N1    N     N_R   0.200613 0.516201 0.462794 -0.418211
N2    N     N_R   0.799377 0.483349 0.460285 -0.418246
C9    C     C_R   0.275644 0.595352 0.598808 0.612993
C10   C     C_R   0.724361 0.404155 0.596897 0.616237
C11   C     C_R   0.279136 0.428885 0.355662 0.579450
C12   C     C_R   0.720833 0.570390 0.353721 0.580264
C13   C     C_R   0.326012 0.586486 0.614671 -0.184836
C14   C     C_R   0.674001 0.413210 0.613470 -0.187313
C15   C     C_R   0.329444 0.416185 0.369630 -0.177477
C16   C     C_R   0.670541 0.583300 0.368452 -0.176476
C17   C     C_R   0.252369 0.516966 0.470042 0.071333
C18   C     C_R   0.747618 0.482365 0.467800 0.069037
C19   C     C_R   0.101332 0.503586 0.431856 -0.033560
C20   C     C_R   0.898698 0.496008 0.430349 -0.032100
C21   C     C_R   0.127851 0.378460 0.490012 -0.161729
C22   C     C_R   0.872089 0.621113 0.488457 -0.167966
C23   C     C_R   0.125106 0.631913 0.379452 -0.155140
C24   C     C_R   0.875015 0.367625 0.377445 -0.159962
C25   C     C_R   0.102967 0.246531 0.524309 -0.273205
C26   C     C_R   0.896921 0.752967 0.523629 -0.296271
C27   C     C_R   0.097052 0.751217 0.311008 -0.188869
C28   C     C_R   0.903252 0.248286 0.309123 -0.198986
C29   C     C_R   0.353606 0.497833 0.498258 -0.330418
C30   C     C_R   0.646397 0.501932 0.497481 -0.330072
C31   C     C_R   0.976472 0.366801 0.406327 -0.049301
C32   C     C_R   0.023610 0.632885 0.407049 -0.049219
C33   C     C_R   0.973402 0.632245 0.441682 -0.021828
C34   C     C_R   0.026616 0.367389 0.441721 -0.020080
C35   C     C_R   0.949461 0.498573 0.426333 -0.077805
C36   C     C_R   0.050579 0.501069 0.427123 -0.076465
C37   C     C_R   0.953443 0.244855 0.336222 0.703767
C38   C     C_R   0.046788 0.754886 0.337583 0.696115
C39   C     C_R   0.946988 0.757702 0.496082 0.708522
C40   C     C_R   0.052947 0.241824 0.496009 0.708075
C41   C     C_1   0.500050 0.065294 0.499971 -0.105604
C42   C     C_1   0.499952 0.934706 0.500029 -0.105600
N3    N     N_1   0.500000 0.500000 0.076820 -0.033846
N4    N     N_1   0.500000 0.500000 0.923180 -0.023166
C43   C     C_2   0.355289 0.311186 0.253248 1.003737
O13   O     O_2   0.387668 0.231134 0.309200 -0.602324
O14   O     O_R   0.341682 0.301188 0.080271 -0.640861
H1    H     H_    0.361791 0.225627 0.014261 0.349480
C44   C     C_2   0.644684 0.688229 0.252397 1.005480
O15   O     O_2   0.612610 0.769256 0.309123 -0.601543
O16   O     O_R   0.657915 0.696948 0.078789 -0.639846
H2    H     H_    0.637828 0.772581 0.013045 0.350097
C45   C     C_2   0.348499 0.673470 0.752327 0.988484
O17   O     O_2   0.346195 0.807424 0.746326 -0.535928
O18   O     O_R   0.370457 0.602380 0.892327 -0.705293
H3    H     H_    0.383991 0.673552 0.979095 0.330520
C46   C     C_2   0.651532 0.326320 0.751363 0.990726
O19   O     O_2   0.653900 0.192362 0.745477 -0.531721
O20   O     O_R   0.629522 0.397498 0.891448 -0.704961
H4    H     H_    0.616010 0.326379 0.978367 0.330807
F1    F     F_    0.255391 0.350140 0.235148 -0.586286
F2    F     F_    0.744540 0.648973 0.232839 -0.586892
F3    F     F_    0.248901 0.677388 0.711720 -0.570012
F4    F     F_    0.751123 0.322171 0.709505 -0.559185
C47   C     C_2   0.127531 0.109008 0.584785 1.063103
O21   O     O_2   0.113574 0.049916 0.716208 -0.468934
O22   O     O_R   0.165384 0.042814 0.491679 -0.646071
H5    H     H_    0.172866 0.096474 0.380888 0.344572
C48   C     C_2   0.872263 0.890430 0.584225 1.078512
O23   O     O_2   0.885844 0.948939 0.716482 -0.461926
O24   O     O_R   0.834752 0.957231 0.490324 -0.638024
H6    H     H_    0.827447 0.903748 0.379281 0.336236
C49   C     C_2   0.117634 0.862312 0.193241 1.013024
O25   O     O_2   0.101945 0.988872 0.194454 -0.507692
O26   O     O_R   0.152830 0.819795 0.072673 -0.671091
H7    H     H_    0.163554 0.904444 0.998419 0.389379
C50   C     C_2   0.883222 0.135821 0.191904 1.023785
O27   O     O_2   0.852276 0.170752 0.086421 -0.480582
O28   O     O_R   0.902131 0.992173 0.193524 -0.679941
H8    H     H_    0.886258 0.926831 0.105596 0.356743
F5    F     F_    0.980689 0.134459 0.265991 -0.509170
F6    F     F_    0.019730 0.865645 0.267506 -0.511362
F7    F     F_    0.970308 0.882076 0.537621 -0.528686
F8    F     F_    0.029560 0.117369 0.536775 -0.529353

loop_
_geom_bond_atom_site_label_1
_geom_bond_atom_site_label_2
_geom_bond_distance
_ccdc_geom_bond_type
O5    Cu1   1.944363 S    
O24   H6    1.013267 S    
C50   O27   1.223118 D    
C46   O19   1.222535 D    
C15   C43   1.486547 S    
C19   C23   1.416832 A    
O28   H8    1.013844 S    
O3    C2    1.272083 A    
C47   O21   1.220890 D    
Cu1   N4    1.972270 S    
C48   O23   1.220941 D    
C11   C17   1.397211 A    
C5    O9    1.347949 S    
Cu2   N3    1.972270 S    
C7    N1    1.365812 A    
C8    N2    1.365936 A    
C19   C21   1.416179 A    
C22   C26   1.426740 A    
C32   C36   1.408480 A    
C44   O16   1.398949 S    
N1    C17   1.436172 S    
C43   O14   1.398562 S    
C7    C23   1.412494 A    
C45   O18   1.397871 S    
C8    C24   1.412964 A    
C5    C21   1.411626 A    
O7    Cu1   1.943893 S    
C28   C50   1.488865 S    
C28   C37   1.407057 A    
C10   C18   1.396563 A    
C33   C35   1.407459 A    
C34   C36   1.407289 A    
C49   O26   1.398901 S    
C12   F2    1.359554 S    
C43   O13   1.223012 D    
O3    Cu1   1.940550 S    
C6    O10   1.347983 S    
C31   C37   1.405692 A    
C5    N1    1.365833 A    
C12   C18   1.397191 A    
N3    N4    1.192522 T    
C6    N2    1.365816 A    
C9    F3    1.359318 S    
Cu1   Cu2   2.624727 S    
O4    Cu2   1.940551 S    
C46   O20   1.397871 S    
O2    C2    1.271990 A    
C47   O22   1.397918 S    
O5    C3    1.281521 A    
C31   C34   1.417464 A    
C13   C45   1.478153 S    
C48   O24   1.397938 S    
C9    C13   1.402206 A    
C11   C15   1.400929 A    
O16   H2    1.013906 S    
C12   C16   1.400801 A    
C4    C30   1.481632 S    
O8    Cu2   1.943896 S    
O26   H7    1.013814 S    
C14   C46   1.478205 S    
C31   C35   1.408366 A    
C37   F5    1.357150 S    
C33   C39   1.407308 A    
N2    C18   1.436253 S    
C13   C29   1.422053 A    
C32   C38   1.405929 A    
O20   H4    1.013868 S    
C25   C40   1.405935 A    
C26   C39   1.405840 A    
C27   C38   1.407980 A    
O22   H5    1.013382 S    
C20   C24   1.417336 A    
O6    C4    1.281918 A    
C25   C47   1.488440 S    
C26   C48   1.488608 S    
C27   C49   1.488538 S    
C20   C35   1.408364 A    
C32   C33   1.417464 A    
C10   C14   1.402280 A    
O1    C1    1.271933 A    
C3    C29   1.481616 S    
O1    Cu1   1.940390 S    
C40   F8    1.358305 S    
O6    Cu2   1.944360 S    
C8    O12   1.347521 S    
C16   C30   1.423151 A    
C14   C30   1.421971 A    
O4    C1    1.272141 A    
C11   F1    1.359542 S    
C23   C27   1.424750 A    
C1    C41   1.409708 S    
C20   C22   1.416344 A    
O18   H3    1.013866 S    
C34   C40   1.407466 A    
C41   C42   1.190910 T    
C2    C42   1.409707 S    
C21   C25   1.426642 A    
C45   O17   1.222521 D    
O2    Cu2   1.940389 S    
O7    C4    1.281580 A    
C10   F4    1.359282 S    
C9    C17   1.396451 A    
O8    C3    1.281970 A    
O14   H1    1.013904 S    
C24   C28   1.426350 A    
C50   O28   1.398815 S    
C44   O15   1.223321 D    
C15   C29   1.423235 A    
C39   F7    1.358314 S    
C19   C36   1.408294 A    
C38   F6    1.357305 S    
C49   O25   1.223194 D    
C6    C22   1.411411 A    
C16   C44   1.486218 S    
C7    O11   1.347570 S    
