data_mof_unit_34840.cif
_audit_creation_date              2012-12-11T14:23:18-0500
_audit_creation_method            fapswitch 2.2
_symmetry_space_group_name_H-M    P1
_symmetry_Int_Tables_number       1
_space_group_crystal_system       triclinic
_cell_length_a                    11.18044
_cell_length_b                    11.049406
_cell_length_c                    18.784085
_cell_angle_alpha                 90.018912
_cell_angle_beta                  90.216312
_cell_angle_gamma                 61.809752
_cell_volume                      2045.26357687

loop_
_atom_site_label
_atom_site_type_symbol
_atom_type_description
_atom_site_fract_x
_atom_site_fract_y
_atom_site_fract_z
_atom_type_partial_charge
C1    C     C_R   0.236865 0.645034 0.609558 0.544018
C2    C     C_3   0.754923 0.514363 0.797142 -0.256965
C3    C     C_3   0.694046 0.669695 0.815023 0.033660
C4    C     C_3   0.665760 0.638004 0.679295 0.036070
C5    C     C_3   0.749160 0.714786 0.689133 -0.257780
C6    C     C_3   0.739333 0.496066 0.717650 -0.223667
C7    C     C_R   0.687412 0.171129 0.827483 -0.020956
C8    C     C_R   0.799863 0.150351 0.784494 0.016980
C9    C     C_R   0.786774 0.149869 0.709111 0.013344
C10   C     C_R   0.544794 0.229849 0.723369 -0.143540
C11   C     C_R   0.559482 0.221934 0.796040 -0.129313
C12   C     C_R   0.650092 0.615785 0.602890 0.544582
C13   C     C_R   0.923622 0.132804 0.813705 -0.096120
C14   C     C_R   0.033572 0.105914 0.769946 -0.151100
C15   C     C_R   0.023879 0.093783 0.696872 -0.140826
C16   C     C_R   0.903167 0.111479 0.666721 -0.087378
C17   C     C_R   0.656985 0.191040 0.678617 -0.019426
C18   C     C_R   0.180301 0.666143 0.835022 -0.011864
C19   C     C_R   0.184429 0.552406 0.797543 0.014234
C20   C     C_R   0.176357 0.556262 0.721900 0.011518
C21   C     C_R   0.202887 0.761976 0.724099 -0.160046
C22   C     C_R   0.196176 0.765683 0.797256 -0.156583
C23   C     C_R   0.625059 0.232492 0.603768 0.530351
C24   C     C_R   0.196068 0.435044 0.833297 -0.101844
C25   C     C_R   0.183164 0.332684 0.796547 -0.116599
C26   C     C_R   0.156811 0.345714 0.723773 -0.134646
C27   C     C_R   0.152832 0.456563 0.686555 -0.115638
C28   C     C_R   0.192801 0.659252 0.684728 -0.005608
C29   C     C_R   0.645838 0.655898 0.164920 0.024896
C30   C     C_R   0.722816 0.531481 0.201982 0.054449
C31   C     C_R   0.751212 0.543964 0.273873 0.053566
C32   C     C_R   0.566382 0.767010 0.280636 -0.018559
C33   C     C_R   0.556624 0.768490 0.204927 -0.016988
C34   C     C_R   0.289702 0.624784 0.392590 0.567723
C35   C     C_R   0.820596 0.418878 0.165872 -0.023627
C36   C     C_R   0.951465 0.398817 0.175875 -0.089820
C37   C     C_R   0.979087 0.460172 0.234897 -0.148384
C38   C     C_R   0.885648 0.510885 0.289666 -0.056775
C39   C     C_R   0.651893 0.645127 0.314971 -0.004875
C40   C     C_R   0.653276 0.174683 0.171510 0.022523
C41   C     C_R   0.527249 0.220634 0.202384 0.038623
C42   C     C_R   0.518091 0.209907 0.276200 -0.018263
C43   C     C_R   0.754007 0.162209 0.286940 0.023600
C44   C     C_R   0.764474 0.153147 0.213751 -0.151701
C45   C     C_R   0.640040 0.619180 0.391089 0.526149
C46   C     C_R   0.410224 0.272795 0.160018 -0.070818
C47   C     C_R   0.288858 0.299582 0.188842 -0.158884
C48   C     C_R   0.282301 0.265988 0.259297 -0.167822
C49   C     C_R   0.393719 0.224213 0.302901 -0.105058
C50   C     C_R   0.630667 0.192072 0.319207 -0.031584
C51   C     C_R   0.164836 0.705149 0.179195 -0.011173
C52   C     C_R   0.156310 0.824699 0.217675 -0.012731
C53   C     C_R   0.210661 0.793933 0.287764 0.042519
C54   C     C_R   0.318940 0.553043 0.264590 -0.166753
C55   C     C_R   0.282446 0.584199 0.192686 0.016147
C56   C     C_R   0.610270 0.236887 0.393319 0.543941
C57   C     C_R   0.113057 0.966845 0.191260 0.042695
C58   C     C_R   0.112320 0.064412 0.238694 -0.127786
C59   C     C_R   0.175975 0.027853 0.303044 -0.145547
C60   C     C_R   0.233117 0.894665 0.323727 -0.087276
C61   C     C_R   0.260780 0.655988 0.315244 -0.018296
C62   C     C_R   0.702749 0.104256 0.897288 0.529563
C63   C     C_R   0.721249 0.685767 0.890410 0.533730
C64   C     C_R   0.118267 0.705944 0.906188 0.570006
C65   C     C_R   0.677072 0.108679 0.102361 0.534866
C66   C     C_R   0.694865 0.686229 0.095979 0.536940
C67   C     C_3   0.538972 0.739895 0.795285 -0.095697
C68   C     C_R   0.086050 0.719477 0.114410 0.596160
C69   C     C_3   0.524267 0.719945 0.714972 -0.246862
C70   C     C_3   0.769515 0.729865 0.769106 -0.229991
Cr1   Cr    Cr6+3 0.392940 0.397950 0.502230 1.000495
Cr2   Cr    Cr6+3 0.398400 0.708500 0.501260 0.976982
Cr3   Cr    Cr6+3 0.708640 0.393530 0.496460 1.040469
Cr4   Cr    Cr6+3 0.937880 0.938320 0.007620 1.073539
Cr5   Cr    Cr6+3 0.625560 0.937220 0.994510 1.046129
Cr6   Cr    Cr6+3 0.938080 0.625010 0.001190 1.015123
H1    H     H_    0.842151 0.431960 0.694855 0.157858
H2    H     H_    0.880144 0.674368 0.781330 0.145501
H3    H     H_    0.849785 0.657002 0.663032 0.131993
H4    H     H_    0.442960 0.268890 0.702425 0.176608
H5    H     H_    0.935601 0.146381 0.869676 0.148744
H6    H     H_    0.470476 0.246226 0.827792 0.174952
H7    H     H_    0.128414 0.089832 0.793021 0.143665
H8    H     H_    0.110841 0.069236 0.663318 0.109883
H9    H     H_    0.902990 0.094077 0.610146 0.140475
H10   H     H_    0.222895 0.837943 0.698601 0.147413
H11   H     H_    0.495235 0.682174 0.824526 0.109399
H12   H     H_    0.220294 0.418608 0.889424 0.138765
H13   H     H_    0.198543 0.850576 0.824406 0.183676
H14   H     H_    0.193417 0.243708 0.825234 0.152249
H15   H     H_    0.142874 0.268188 0.695527 0.121997
H16   H     H_    0.129062 0.463813 0.630437 0.138646
H17   H     H_    0.795742 0.387551 0.115662 0.173426
H18   H     H_    0.021469 0.350616 0.133103 0.143970
H19   H     H_    0.064458 0.479340 0.237448 0.128288
H20   H     H_    0.467996 0.660438 0.708263 0.124148
H21   H     H_    0.911163 0.549312 0.337350 0.126632
H22   H     H_    0.411056 0.295530 0.104000 0.166320
H23   H     H_    0.860835 0.122396 0.190049 0.171726
H24   H     H_    0.204930 0.338686 0.153365 0.115410
H25   H     H_    0.191786 0.272155 0.281617 0.127553
H26   H     H_    0.381328 0.189771 0.354624 0.153610
H27   H     H_    0.408161 0.462002 0.279975 0.153820
H28   H     H_    0.463657 0.819767 0.687357 0.134716
H29   H     H_    0.079991 0.167645 0.222513 0.152272
H30   H     H_    0.187972 0.101157 0.336288 0.122401
H31   H     H_    0.303621 0.873543 0.366257 0.161359
H32   H     H_    0.735214 0.839323 0.782417 0.141020
H33   H     H_    0.696572 0.817556 0.663390 0.111257
H34   H     H_    0.864989 0.457386 0.810570 0.163121
H35   H     H_    0.703342 0.467139 0.828546 0.114509
H36   H     H_    0.680361 0.439353 0.710243 0.136181
O1    O     O_R   0.507340 0.255690 0.581430 -0.525091
O2    O     O_R   0.524510 0.695820 0.424050 -0.544141
O3    O     O_R   0.736370 0.504260 0.414810 -0.482120
O4    O     O_R   0.691220 0.277270 0.422180 -0.455404
O5    O     O_3   0.499990 0.499990 0.499980 -0.291737
O6    O     O_R   0.089570 0.825450 0.930590 -0.495445
O7    O     O_R   0.818700 0.054260 0.929860 -0.516553
O8    O     O_R   0.606310 0.077010 0.915520 -0.487649
O9    O     O_R   0.646730 0.806540 0.917560 -0.460721
O10   O     O_R   0.837290 0.593240 0.915240 -0.534524
O11   O     O_R   0.065320 0.635310 0.931580 -0.508318
O12   O     O_R   0.280360 0.527380 0.578910 -0.508640
O13   O     O_R   0.068470 0.828620 0.091850 -0.478409
O14   O     O_R   0.799150 0.057200 0.079350 -0.486709
O15   O     O_R   0.585220 0.080180 0.076770 -0.563959
O16   O     O_R   0.627170 0.809480 0.067050 -0.501686
O17   O     O_R   0.816200 0.596410 0.076500 -0.532613
O18   O     O_R   0.045770 0.638240 0.081070 -0.492289
O19   O     O_3   0.833840 0.833520 0.001110 -0.280937
O20   O     O_R   0.260600 0.739610 0.584580 -0.527689
O21   O     O_R   0.532370 0.695050 0.573830 -0.512976
O22   O     O_R   0.744850 0.503430 0.576380 -0.526666
O23   O     O_R   0.699080 0.276500 0.571950 -0.511754
O24   O     O_R   0.498860 0.256520 0.419860 -0.558880
O25   O     O_R   0.272490 0.528150 0.429140 -0.488832
O26   O     O_R   0.252110 0.740440 0.423010 -0.529117
C71   C     C_2   0.454223 0.890388 0.816662 0.584561
O27   O     O_2   0.376548 0.918567 0.866877 -0.513010
O28   O     O_R   0.461092 0.998174 0.781190 -0.690802
H37   H     H_    0.522810 0.968984 0.738486 0.293145
C72   C     C_3   0.531064 0.896798 0.320684 -0.293119
C73   C     C_3   0.660447 0.902243 0.342892 -0.402817
H38   H     H_    0.710105 0.918839 0.295558 0.164275
H39   H     H_    0.634404 0.984211 0.382749 0.161478
H40   H     H_    0.734851 0.806879 0.369913 0.151965
H41   H     H_    0.467616 0.983058 0.286353 0.154603
H42   H     H_    0.472696 0.907905 0.369436 0.151113
C74   C     C_3   0.425490 0.856876 0.169714 -0.256301
C75   C     C_3   0.407169 0.993594 0.144304 -0.356358
H43   H     H_    0.484965 0.013698 0.169434 0.189614
H44   H     H_    0.410585 0.997947 0.085482 0.217037
H45   H     H_    0.305237 0.073351 0.159078 0.130409
H46   H     H_    0.405305 0.800440 0.126415 0.219767
H47   H     H_    0.353409 0.875062 0.210419 0.155940
C76   C     C_2   0.873121 0.135178 0.330348 0.590408
O29   O     O_2   0.907535 0.224561 0.336303 -0.513077
O30   O     O_R   0.931307 0.017798 0.373245 -0.695693
H48   H     H_    0.999469 0.019173 0.408513 0.342365
C77   C     C_2   0.104437 0.021913 0.116293 0.577203
O31   O     O_2   0.010138 0.132910 0.099410 -0.587534
O32   O     O_R   0.203301 0.948195 0.065297 -0.682576
H49   H     H_    0.184950 0.997371 0.017757 0.340221
C78   C     C_2   0.388470 0.536599 0.136539 0.540907
O33   O     O_2   0.508146 0.479777 0.153308 -0.572334
O34   O     O_R   0.352577 0.559747 0.064479 -0.690916
H50   H     H_    0.434419 0.523521 0.031984 0.328406

loop_
_geom_bond_atom_site_label_1
_geom_bond_atom_site_label_2
_ccdc_geom_bond_type
C76   O29   D    
C13   H5    S    
C70   H2    S    
C41   C42   A    
C54   C55   A    
C35   C36   A    
C74   H46   S    
C1    O20   A    
C77   O31   D    
Cr2   O21   S    
C7    C8    A    
Cr1   O25   S    
C78   O33   D    
C7    C11   A    
Cr4   O7    S    
C37   H19   S    
C26   C27   A    
C17   C23   S    
Cr3   O4    S    
C30   C35   A    
C65   O15   A    
C36   C37   A    
C9    C16   A    
C18   C19   A    
C33   C74   S    
C73   H40   S    
C30   C31   A    
Cr6   O19   S    
C75   H45   S    
Cr4   O13   S    
C10   C17   A    
C72   C73   S    
Cr2   O2    S    
C64   O6    A    
Cr1   O1    S    
Cr5   O16   S    
C32   C39   A    
C45   O3    A    
C32   C72   S    
C56   O24   A    
C21   H10   S    
C53   C61   A    
C45   O2    A    
C2    H34   S    
O32   H49   S    
C29   C33   A    
C66   O16   A    
C8    C9    A    
Cr2   O5    S    
C1    C28   S    
C75   H43   S    
C49   H26   S    
C13   C14   A    
C5    H3    S    
C67   C71   S    
C62   O8    A    
C39   C45   S    
C66   O17   A    
C69   H20   S    
Cr2   O26   S    
C46   H22   S    
C59   C60   A    
C78   O34   S    
C74   H47   S    
C21   C22   A    
C2    C6    S    
Cr6   O18   S    
C14   H7    S    
C38   H21   S    
C4    C69   S    
C77   O32   S    
C53   C60   A    
Cr5   O19   S    
Cr2   O20   S    
C35   H17   S    
C11   H6    S    
C56   O4    A    
C72   H41   S    
Cr4   O6    S    
C3    C67   S    
C2    H35   S    
C59   H30   S    
Cr3   O5    S    
Cr1   O5    S    
C51   C52   A    
C47   C48   A    
Cr3   O23   S    
C54   H27   S    
C3    C70   S    
C24   C25   A    
C73   H39   S    
C10   C11   A    
O34   H50   S    
C10   H4    S    
C73   H38   S    
C6    H1    S    
C20   C28   A    
C26   H15   S    
C34   O26   A    
C34   C61   S    
C50   C56   S    
C47   H24   S    
C67   C69   S    
C37   C38   A    
C43   C44   A    
C7    C62   S    
C29   C30   A    
C23   O1    A    
Cr6   O17   S    
Cr1   O12   S    
O30   H48   S    
C14   C15   A    
C40   C44   A    
C41   C46   A    
C63   O9    A    
C27   H16   S    
C68   O18   A    
C24   H12   S    
C62   O7    A    
C60   H31   S    
C42   C50   A    
C4    C6    S    
C40   C41   A    
C54   C61   A    
C21   C28   A    
C40   C65   S    
C16   H9    S    
C58   C59   A    
C4    C12   S    
C55   C78   S    
Cr1   O24   S    
C63   O10   A    
C52   C53   A    
C69   H28   S    
C9    C17   A    
C46   C47   A    
C48   C49   A    
Cr5   O9    S    
Cr6   O11   S    
C6    H36   S    
C25   H14   S    
Cr5   O8    S    
C4    C5    S    
C43   C76   S    
C5    C70   S    
C71   O27   D    
C43   C50   A    
C15   H8    S    
C20   C27   A    
C3    C63   S    
C64   O11   A    
C34   O25   A    
C67   H11   S    
Cr3   O3    S    
C31   C38   A    
C23   O23   A    
C12   O21   A    
C58   H29   S    
Cr6   O10   S    
C32   C33   A    
C19   C20   A    
C18   C22   A    
C19   C24   A    
C25   C26   A    
C1    O12   A    
C70   H32   S    
O28   H37   S    
C65   O14   A    
C71   O28   S    
C18   C64   S    
C57   C58   A    
Cr4   O14   S    
C5    H33   S    
C48   H25   S    
C44   H23   S    
C22   H13   S    
C31   C39   A    
C2    C3    S    
C51   C55   A    
C51   C68   S    
C75   H44   S    
C52   C57   A    
C42   C49   A    
C29   C66   S    
C8    C13   A    
C36   H18   S    
C72   H42   S    
C57   C77   S    
Cr3   O22   S    
C76   O30   S    
C74   C75   S    
C12   O22   A    
Cr4   O19   S    
C68   O13   A    
C15   C16   A    
Cr5   O15   S    
