data_mof_unit_27434.cif
_audit_creation_date              2012-12-10T20:47:43-0500
_audit_creation_method            fapswitch 2.2
_symmetry_space_group_name_H-M    P1
_symmetry_Int_Tables_number       1
_space_group_crystal_system       triclinic
_cell_length_a                    14.887307
_cell_length_b                    9.255593
_cell_length_c                    8.127982
_cell_angle_alpha                 89.821023
_cell_angle_beta                  88.168623
_cell_angle_gamma                 88.29288
_cell_volume                      1118.89005164

loop_
_atom_site_label
_atom_site_type_symbol
_atom_type_description
_atom_site_fract_x
_atom_site_fract_y
_atom_site_fract_z
_atom_type_partial_charge
C1    C     C_R   0.500095 0.217510 0.500157 0.911536
C2    C     C_R   0.231451 0.506518 0.509570 -0.043940
C3    C     C_R   0.911138 0.369627 0.479925 -0.068959
C4    C     C_R   0.090250 0.636390 0.486016 -0.063506
C5    C     C_R   0.902675 0.631642 0.500104 -0.057191
C6    C     C_R   0.096164 0.374241 0.521179 -0.062236
C7    C     C_R   0.953362 0.501910 0.495164 -0.066685
C8    C     C_R   0.046713 0.504428 0.501712 -0.062668
C9    C     C_R   0.963693 0.242458 0.470720 0.381945
C10   C     C_R   0.038649 0.764118 0.462490 0.371538
C11   C     C_R   0.946206 0.762778 0.502217 0.364579
C12   C     C_R   0.499895 0.782489 0.499846 0.909089
C13   C     C_R   0.051943 0.243679 0.524078 0.366242
C14   C     C_1   0.500025 0.064529 0.500221 -0.192330
C15   C     C_1   0.499958 0.935469 0.499792 -0.194313
C16   C     C_3   0.928502 0.136851 0.230937 0.156489
C17   C     C_3   0.880957 0.010133 0.158563 -0.799832
C18   C     C_3   0.120598 0.883071 0.259436 0.124426
C19   C     C_3   0.198073 0.987440 0.252624 -0.783541
C20   C     C_3   0.872711 0.902125 0.697322 0.139440
C21   C     C_3   0.799820 0.020242 0.718624 -0.807878
C22   C     C_3   0.101896 0.108807 0.737770 0.133276
C23   C     C_R   0.326628 0.505053 0.502699 0.863017
C24   C     C_3   0.144817 0.963678 0.782817 -0.799410
C25   C     C_R   0.673386 0.494946 0.497300 0.864690
C26   C     C_R   0.809485 0.627978 0.499124 -0.197458
C27   C     C_R   0.189068 0.376171 0.525772 -0.210497
C28   C     C_R   0.817890 0.367330 0.474479 -0.230072
C29   C     C_R   0.183632 0.636699 0.494122 -0.222882
C30   C     C_R   0.768502 0.496291 0.490365 -0.046739
H1    H     H_    0.997967 0.140472 0.176703 0.114685
H2    H     H_    0.171464 0.100683 0.247753 0.250935
H3    H     H_    0.932270 0.930709 0.767611 0.132673
H4    H     H_    0.845490 0.800883 0.750920 0.115479
H5    H     H_    0.748532 0.009755 0.623376 0.258186
H6    H     H_    0.765579 0.011278 0.841357 0.204633
H7    H     H_    0.830056 0.128044 0.708335 0.247811
H8    H     H_    0.033988 0.118295 0.799179 0.107160
H9    H     H_    0.144458 0.195109 0.785617 0.124806
H10   H     H_    0.210412 0.947589 0.715390 0.256123
H11   H     H_    0.156107 0.960252 0.916122 0.185997
H12   H     H_    0.890884 0.237090 0.194274 0.116745
H13   H     H_    0.099931 0.874760 0.752856 0.248921
H14   H     H_    0.768222 0.726599 0.502801 0.163586
H15   H     H_    0.229103 0.276664 0.534475 0.161443
H16   H     H_    0.783502 0.266278 0.463867 0.165135
H17   H     H_    0.219644 0.736580 0.487542 0.157139
H18   H     H_    0.809774 0.010278 0.203887 0.258158
H19   H     H_    0.883192 0.020536 0.023312 0.177819
H20   H     H_    0.914444 0.906151 0.192220 0.260069
H21   H     H_    0.072016 0.914156 0.164377 0.128256
H22   H     H_    0.147908 0.773679 0.225451 0.114958
H23   H     H_    0.239453 0.973938 0.363206 0.259947
H24   H     H_    0.242338 0.966129 0.142519 0.195740
N1    N     N_1   0.500000 0.500000 0.073640 -0.037247
N2    N     N_1   0.500000 0.500000 0.926360 -0.037209
O1    O     O_R   0.500000 0.285350 0.636850 -0.615702
O2    O     O_3   0.077553 0.892064 0.417373 -0.501939
O3    O     O_3   0.897081 0.889181 0.528303 -0.525335
O4    O     O_3   0.096664 0.117358 0.564903 -0.529809
O5    O     O_R   0.500000 0.714650 0.363150 -0.615668
O6    O     O_R   0.500000 0.714650 0.636850 -0.615942
O7    O     O_R   0.500000 0.285350 0.363150 -0.615116
O8    O     O_R   0.367850 0.500000 0.636890 -0.620535
O9    O     O_R   0.632150 0.500000 0.363110 -0.618543
O10   O     O_R   0.632150 0.500000 0.636890 -0.616682
O11   O     O_R   0.367850 0.500000 0.363110 -0.616890
O12   O     O_3   0.930689 0.119971 0.403612 -0.502292
Zn1   Zn    Zn3+2 0.500000 0.500000 0.682780 0.992744
Zn2   Zn    Zn3+2 0.500000 0.500000 0.317220 0.993630

loop_
_geom_bond_atom_site_label_1
_geom_bond_atom_site_label_2
_ccdc_geom_bond_type
C17   H20   S    
O5    Zn2   S    
N1    N2    T    
O7    Zn2   S    
C26   C30   A    
C2    C27   A    
C21   H5    S    
C1    O1    A    
C12   O6    A    
C4    C29   A    
C12   C15   S    
C6    C13   A    
C4    C8    A    
O11   Zn2   S    
C20   H4    S    
C19   H23   S    
C28   C30   A    
C9    O12   S    
C18   H22   S    
C7    C8    A    
C21   H6    S    
O8    Zn1   S    
C20   O3    S    
C24   H11   S    
C28   H16   S    
C6    C27   A    
C29   H17   S    
C2    C29   A    
C11   O3    S    
C22   H9    S    
C1    O7    A    
C19   H24   S    
C3    C28   A    
C10   O2    S    
C18   H21   S    
C5    C11   A    
C3    C7    A    
C22   O4    S    
C16   O12   S    
C22   C24   S    
C3    C9    A    
O10   Zn1   S    
C27   H15   S    
C19   H2    S    
C26   H14   S    
C5    C26   A    
N1    Zn2   S    
C16   H12   S    
C2    C23   S    
C25   O9    A    
C20   C21   S    
O1    Zn1   S    
C21   H7    S    
C20   H3    S    
C18   C19   S    
C10   C11   A    
C17   H18   S    
C23   O11   A    
C25   C30   S    
N2    Zn1   S    
C24   H13   S    
C9    C13   A    
C5    C7    A    
C23   O8    A    
C6    C8    A    
C1    C14   S    
C12   O5    A    
C24   H10   S    
C14   C15   T    
C4    C10   A    
C18   O2    S    
C17   H19   S    
C25   O10   A    
O9    Zn2   S    
O6    Zn1   S    
C13   O4    S    
C16   C17   S    
C16   H1    S    
C22   H8    S    
