data_mof_unit_67146.cif
_audit_creation_date              2013-03-05T15:58:57-0500
_audit_creation_method            fapswitch 2.2
_symmetry_space_group_name_H-M    P1
_symmetry_Int_Tables_number       1
_space_group_crystal_system       triclinic
_cell_length_a                    8.231243
_cell_length_b                    12.903554
_cell_length_c                    14.912289
_cell_angle_alpha                 97.436299
_cell_angle_beta                  97.128337
_cell_angle_gamma                 99.392348
_cell_volume                      1532.32716187

loop_
_atom_site_label
_atom_site_type_symbol
_atom_site_description
_atom_site_fract_x
_atom_site_fract_y
_atom_site_fract_z
_atom_type_partial_charge
P1    P     P_3+3 0.998730 0.403530 0.291970 0.491754
O1    O     O_2   0.827880 0.435260 0.277750 -0.348675
O2    O     O_3   0.100280 0.438960 0.391170 -0.350395
O3    O     O_3   0.625580 0.634130 0.333250 -0.329261
O4    O     O_2   0.681643 0.539508 0.176567 -0.331798
O5    O     O_3   0.944051 0.267163 0.273359 -0.578809
O6    O     O_3   0.684232 0.739487 0.181953 -0.521350
H1    H     H_    0.639552 0.877006 0.252797 0.106252
C1    C     C_3   0.598598 0.877143 0.106217 -0.980509
H2    H     H_    0.726645 0.916988 0.103369 0.256053
H3    H     H_    0.556232 0.820432 0.042256 0.300275
P2    P     P_3+3 0.687380 0.751030 0.571310 0.467408
P3    P     P_3+3 0.109631 0.824469 0.377295 0.437487
O7    O     O_2   0.857130 0.766340 0.543890 -0.390426
O8    O     O_3   0.056550 0.691050 0.379010 -0.389482
O9    O     O_2   0.988033 0.877785 0.430507 -0.378111
O10   O     O_3   0.725097 0.783476 0.689909 -0.562834
O11   O     O_3   0.060592 0.843100 0.264256 -0.570161
C2    C     C_3   0.069082 0.752167 0.203732 0.344226
H4    H     H_    0.972507 0.684437 0.211437 0.161957
H5    H     H_    0.193269 0.730294 0.216618 -0.012593
C3    C     C_3   0.036744 0.776177 0.105797 -0.375630
H6    H     H_    0.921262 0.809415 0.096870 0.263649
C4    C     C_3   0.264184 0.777828 0.653036 0.415220
H7    H     H_    0.369325 0.748994 0.624927 0.099466
H8    H     H_    0.150683 0.755879 0.601239 0.124220
C5    C     C_3   0.304330 0.898214 0.676604 -0.941775
H9    H     H_    0.423532 0.922178 0.723832 0.274373
H10   H     H_    0.315996 0.934792 0.614003 0.231169
H11   H     H_    0.203570 0.927669 0.709838 0.275290
Ba1   Ba    Ba6+2 0.843750 0.550210 0.455600 1.603456
C6    C     C_3   0.054443 0.225565 0.220957 0.345098
H12   H     H_    0.176361 0.233220 0.263765 0.151020
H13   H     H_    0.069642 0.264293 0.159519 0.046842
C7    C     C_3   0.982572 0.109905 0.186245 -0.557117
H14   H     H_    0.857751 0.103258 0.146009 0.207671
H15   H     H_    0.062945 0.078011 0.138891 0.172152
C8    C     C_3   0.800434 0.706128 0.727174 0.290386
H16   H     H_    0.905116 0.688829 0.691398 0.063512
H17   H     H_    0.708182 0.631734 0.723116 0.109996
C9    C     C_3   0.870386 0.750352 0.826183 -0.123603
H18   H     H_    0.933618 0.834094 0.830385 0.134010
H19   H     H_    0.963235 0.704111 0.852006 0.075494
P4    P     P_3+3 0.190990 0.596560 0.708040 0.453722
O12   O     O_2   0.361830 0.564780 0.722310 -0.346606
O13   O     O_3   0.089430 0.561130 0.608830 -0.420469
O14   O     O_3   0.564130 0.365960 0.666760 -0.376503
O15   O     O_3   0.239877 0.735380 0.732948 -0.566777
P5    P     P_3+3 0.089521 0.171916 0.622849 0.458811
O16   O     O_3   0.601940 0.368240 0.453770 -0.329837
O17   O     O_3   0.133170 0.309040 0.621000 -0.379178
O18   O     O_2   0.210211 0.121140 0.566876 -0.379450
O19   O     O_3   0.148134 0.147798 0.734181 -0.522868
Ba2   Ba    Ba6+2 0.346090 0.449880 0.544410 1.606120
P6    P     P_3+3 0.583364 0.623031 0.214504 0.519097
C10   C     C_3   0.588446 0.819916 0.189516 0.348807
H20   H     H_    0.456244 0.790451 0.193784 0.014187
H21   H     H_    0.517358 0.937022 0.107048 0.233684
O20   O     O_3   0.587780 0.631850 0.546230 -0.380745
C11   C     C_3   0.538834 0.237653 0.252794 0.797415
H22   H     H_    0.667393 0.262918 0.287359 0.084411
C12   C     C_3   0.539277 0.160568 0.166293 -1.064174
H23   H     H_    0.410161 0.130285 0.130609 0.267643
H24   H     H_    0.614944 0.199211 0.119098 0.246448
H25   H     H_    0.593766 0.092885 0.185968 0.233970
P7    P     P_3+3 0.507383 0.231166 0.425116 0.453153
O21   O     O_2   0.332590 0.233690 0.456160 -0.323370
O22   O     O_3   0.440603 0.184007 0.308362 -0.658343
H26   H     H_    0.018348 0.701435 0.056688 0.190994
C13   C     C_3   0.115116 0.230386 0.796585 0.487934
H27   H     H_    0.197559 0.306500 0.793022 0.149332
H28   H     H_    0.983313 0.239959 0.782889 -0.000053
C14   C     C_3   0.148643 0.204567 0.893180 -0.954822
H29   H     H_    0.281562 0.198587 0.910484 0.296050
H30   H     H_    0.119506 0.268200 0.942905 0.227862
H31   H     H_    0.069893 0.127821 0.898752 0.248635
P8    P     P_3+3 0.601952 0.375867 0.785056 0.467432
C15   C     C_3   0.603581 0.173515 0.758590 0.445605
H32   H     H_    0.707724 0.207821 0.724326 0.025834
O23   O     O_2   0.482083 0.443961 0.824476 -0.366843
O24   O     O_3   0.535981 0.249235 0.812057 -0.525278
H33   H     H_    0.503842 0.127281 0.704439 0.137235
H34   H     H_    0.766603 0.144039 0.874374 0.254325
C16   C     C_3   0.667797 0.098527 0.819409 -1.008513
H35   H     H_    0.720264 0.037545 0.778240 0.248987
H36   H     H_    0.564927 0.058494 0.851437 0.288876
C17   C     C_R   0.821633 0.435086 0.829973 0.198964
C18   C     C_R   0.891667 0.441028 0.922377 0.002091
C19   C     C_R   0.033548 0.456851 0.109344 -0.054397
C20   C     C_R   0.873742 0.397954 0.075800 -0.119227
C21   C     C_R   0.802632 0.392505 0.985115 -0.142163
C22   C     C_R   0.102723 0.470436 0.203673 0.161617
H37   H     H_    0.799818 0.356614 0.119327 0.169673
H38   H     H_    0.677069 0.348847 0.965153 0.189567
C23   C     C_R   0.258843 0.534631 0.232614 -0.331190
C24   C     C_R   0.081454 0.532708 0.795817 0.213944
C25   C     C_R   0.151147 0.543524 0.889767 -0.066301
C26   C     C_R   0.056877 0.495777 0.952597 0.021306
C27   C     C_R   0.312528 0.599816 0.923120 -0.043360
C28   C     C_R   0.383254 0.603482 0.013465 -0.178203
C29   C     C_R   0.291885 0.559724 0.076801 -0.034375
C30   C     C_R   0.127002 0.504675 0.046458 0.039349
C31   C     C_R   0.359317 0.572055 0.170209 0.190214
C32   C     C_R   0.918841 0.477167 0.767937 -0.532107
H39   H     H_    0.509957 0.642985 0.033890 0.219583
H40   H     H_    0.387758 0.640959 0.880042 0.222085
H41   H     H_    0.307870 0.549562 0.304721 0.181863
H42   H     H_    0.864468 0.470501 0.697101 0.179844
C33   C     C_R   0.772547 0.179210 0.535105 -0.463262
C34   C     C_R   0.424472 0.808166 0.462397 -0.507699
C35   C     C_R   0.389518 0.984009 0.434330 -0.226953
C36   C     C_R   0.326604 0.876201 0.427119 0.222624
C37   C     C_R   0.582105 0.847760 0.512971 0.296457
C38   C     C_R   0.647344 0.959539 0.522816 -0.058918
C39   C     C_R   0.549388 0.027750 0.481042 -0.045193
C40   C     C_R   0.613180 0.138224 0.487743 0.207562
C41   C     C_R   0.871436 0.113667 0.573990 0.212312
C42   C     C_R   0.807877 0.005254 0.570489 -0.219701
H43   H     H_    0.309855 0.033350 0.405453 0.183213
H44   H     H_    0.887001 0.957669 0.602965 0.184073
H45   H     H_    0.823636 0.262518 0.537664 0.173881
H46   H     H_    0.372990 0.724299 0.455326 0.164654
C43   C     C_3   0.972877 0.042710 0.263157 -0.146771
C44   C     C_3   0.883835 0.080737 0.341616 -0.740379
H47   H     H_    0.966409 0.147071 0.389333 0.269313
H48   H     H_    0.766302 0.104909 0.316152 0.223843
H49   H     H_    0.850149 0.015150 0.380346 0.244214
H50   H     H_    0.901866 0.964445 0.231195 0.233035
H51   H     H_    0.101137 0.036333 0.291374 0.218856
N1    N     N_R   0.738022 0.746055 0.882391 0.257031
O25   O     O_R   0.627608 0.807023 0.873458 -0.394664
O26   O     O_R   0.731306 0.681653 0.942500 -0.453725
N2    N     N_R   0.471313 0.330467 0.230760 0.211535
O27   O     O_R   0.412331 0.338646 0.147288 -0.469766
O28   O     O_R   0.472633 0.407298 0.296178 -0.384130
C45   C     C_3   0.182930 0.854712 0.085740 -0.335616
C46   C     C_3   0.142701 0.906540 0.001616 -0.855735
H52   H     H_    0.154037 0.852211 0.939816 0.266021
H53   H     H_    0.016614 0.927550 0.997134 0.266550
H54   H     H_    0.235373 0.980369 0.004784 0.250236
H55   H     H_    0.229354 0.918418 0.145427 0.228545
H56   H     H_    0.280885 0.808429 0.072481 0.211131

loop_
_geom_bond_atom_site_label_1
_geom_bond_atom_site_label_2
_geom_bond_distance
_ccdc_geom_bond_type
O5    C6    1.396887 S    
C17   C18   1.413511 A    
C29   C30   1.414568 A    
C19   C30   1.423335 A    
C5    H10   1.106778 S    
C14   H30   1.110123 S    
C14   H29   1.110052 S    
P7    O22   1.755803 S    
C2    H4    1.109423 S    
C4    C5    1.519239 S    
O6    P6    1.750626 S    
O7    Ba1   2.904576 S    
H1    C10   1.109300 S    
C38   C39   1.435890 A    
C20   C21   1.393499 A    
C33   C41   1.395906 A    
C43   C44   1.525938 S    
C46   H53   1.111045 S    
C28   H39   1.071321 S    
O16   Ba2   2.904099 S    
P7    C40   1.870234 S    
P3    O11   1.740674 S    
C35   H43   1.076062 S    
C7    H15   1.111437 S    
C4    H8    1.107966 S    
C1    H21   1.101145 S    
P3    C36   1.827690 S    
C8    H16   1.105877 S    
O2    Ba2   2.830500 S    
C39   C40   1.422522 A    
P6    C31   1.859908 S    
P1    Ba1   3.395417 S    
C10   H20   1.105065 S    
C11   C12   1.524319 S    
P1    O1    1.525350 D    
C9    H18   1.110533 S    
Ba1   O20   2.904854 S    
C45   H56   1.100932 S    
C33   C40   1.395077 A    
P2    O20   1.593892 S    
P5    C41   1.847026 S    
C7    H14   1.108114 S    
C23   C31   1.400059 A    
P5    O17   1.751616 S    
Ba1   O13   2.829744 S    
P2    O10   1.740452 S    
C12   H24   1.109114 S    
C13   H27   1.110344 S    
C1    H2    1.103146 S    
C3    H26   1.109663 S    
C12   H25   1.100684 S    
P7    O21   1.569114 D    
C29   C31   1.412648 A    
C43   H51   1.107009 S    
C5    H11   1.110897 S    
C9    H19   1.106199 S    
O6    C10   1.403667 S    
O19   C13   1.405751 S    
C25   C27   1.402545 A    
P4    O13   1.577926 S    
C25   C26   1.425968 A    
C34   C36   1.393416 A    
Ba2   O20   2.813776 S    
C46   H54   1.110798 S    
P1    O5    1.720446 S    
C4    O15   1.397307 S    
C6    C7    1.510325 S    
C2    C3    1.532074 S    
C4    H7    1.103578 S    
C8    C9    1.516821 S    
C15   H32   1.111421 S    
O11   C2    1.401620 S    
Ba2   O21   2.904903 S    
C26   C30   1.428882 A    
C22   C23   1.395056 A    
C3    C45   1.527782 S    
C11   H22   1.095570 S    
P1    O2    1.577772 S    
C6    H13   1.109652 S    
N1    O26   1.298940 A    
C12   H23   1.111591 S    
P4    C24   1.880092 S    
P4    Ba2   3.395967 S    
C1    H3    1.104696 S    
C15   H33   1.110360 S    
H34   C16   1.110058 S    
C18   C21   1.405861 A    
P8    O24   1.749843 S    
P5    O18   1.545815 D    
C24   C25   1.426593 A    
O13   Ba2   2.929735 S    
C13   C14   1.522369 S    
C1    C10   1.529147 S    
C16   H35   1.110980 S    
C19   C22   1.427731 A    
O2    Ba1   2.928887 S    
O16   P7    1.785866 S    
C34   C37   1.397996 A    
P8    C17   1.848848 S    
C38   C42   1.415387 A    
C23   H41   1.081429 S    
O14   Ba2   2.838240 S    
P2    O7    1.493704 D    
O12   Ba2   2.843711 S    
P1    C22   1.882707 S    
P3    O8    1.709983 S    
P2    Ba1   3.439659 S    
N2    O27   1.302703 A    
C14   H31   1.110372 S    
O14   P8    1.737104 S    
Ba1   O16   2.814310 S    
C32   H42   1.081710 S    
P4    O12   1.525599 D    
C20   H37   1.076024 S    
C44   H48   1.102444 S    
C37   C38   1.436350 A    
P8    O23   1.544127 D    
C27   H40   1.075949 S    
C35   C36   1.388252 A    
C2    H5    1.104962 S    
O4    P6    1.541529 D    
C16   H36   1.110582 S    
C45   C46   1.522154 S    
C13   H28   1.108721 S    
O8    Ba1   2.769498 S    
C46   H52   1.106767 S    
C27   C28   1.391437 A    
O17   Ba2   2.770067 S    
C6    H12   1.103031 S    
C24   C32   1.396330 A    
N1    O25   1.301181 A    
O3    P6    1.744222 S    
C41   C42   1.403142 A    
C34   H46   1.082353 S    
C21   H38   1.079064 S    
C8    H17   1.112384 S    
C15   O24   1.409214 S    
C33   H45   1.082463 S    
C43   H50   1.096506 S    
C9    N1    1.453154 S    
P5    O19   1.752101 S    
C7    C43   1.526808 S    
C28   C29   1.397221 A    
C45   H55   1.112503 S    
P2    C37   1.874205 S    
O10   C8    1.396263 S    
Ba1   Ba2   4.502160 S    
C42   H44   1.079322 S    
O3    Ba1   2.838897 S    
C17   C32   1.401010 A    
C15   C16   1.520965 S    
C11   O22   1.397030 S    
P3    O9    1.544443 D    
C44   H49   1.102886 S    
C5    H9    1.107903 S    
N2    O28   1.295437 A    
C3    H6    1.105296 S    
O1    Ba1   2.843156 S    
C35   C39   1.401343 A    
C19   C20   1.403600 A    
C11   N2    1.457720 S    
C18   C26   1.415409 A    
P4    O15   1.750424 S    
C44   H47   1.110573 S    
