data_mof_unit_19137.cif
_audit_creation_date              2012-12-10T20:39:59-0500
_audit_creation_method            fapswitch 2.2
_symmetry_space_group_name_H-M    P1
_symmetry_Int_Tables_number       1
_space_group_crystal_system       triclinic
_cell_length_a                    23.465664
_cell_length_b                    10.679074
_cell_length_c                    9.865744
_cell_angle_alpha                 89.897267
_cell_angle_beta                  89.70938
_cell_angle_gamma                 89.929624
_cell_volume                      2472.2345876

loop_
_atom_site_label
_atom_site_type_symbol
_atom_type_description
_atom_site_fract_x
_atom_site_fract_y
_atom_site_fract_z
_atom_type_partial_charge
C1    C     C_R   0.502329 0.260389 0.500008 0.909168
C2    C     C_R   0.118594 0.608146 0.520284 0.528529
C3    C     C_R   0.237166 0.561574 0.400397 -0.084398
C4    C     C_R   0.389481 0.502980 0.500276 0.925023
C5    C     C_R   0.296196 0.569957 0.399166 0.422328
C6    C     C_R   0.327421 0.507607 0.501623 -0.249923
C7    C     C_R   0.298634 0.446658 0.607552 -0.226944
C8    C     C_R   0.239562 0.446850 0.614335 0.535554
C9    C     C_R   0.208603 0.501954 0.507157 0.051298
C10   C     C_R   0.764781 0.459904 0.391989 -0.077846
C11   C     C_R   0.705684 0.453738 0.386410 0.417950
C12   C     C_R   0.971686 0.262628 0.507600 0.362434
C13   C     C_R   0.673134 0.492513 0.500704 -0.164713
C14   C     C_R   0.701209 0.529909 0.619522 -0.250303
C15   C     C_R   0.760195 0.530116 0.625198 -0.074172
C16   C     C_R   0.499499 0.739636 0.499648 0.908412
C17   C     C_R   0.791958 0.495458 0.511470 0.190274
C18   C     C_R   0.470543 0.065453 0.595313 0.030181
C19   C     C_R   0.503288 0.128200 0.498655 -0.233207
C20   C     C_R   0.529570 0.061939 0.390928 0.480788
C21   C     C_R   0.524648 0.933365 0.388454 -0.172820
C22   C     C_R   0.497854 0.871358 0.496149 -0.255230
C23   C     C_R   0.030105 0.265775 0.472553 0.347663
C24   C     C_R   0.468202 0.937629 0.594782 0.103518
C25   C     C_3   0.470573 0.929306 0.746025 0.241150
C26   C     C_3   0.472970 0.071313 0.746804 -0.360379
C27   C     C_R   0.450335 0.512659 0.071140 0.101827
C28   C     C_R   0.610722 0.496993 0.499639 0.853785
C29   C     C_R   0.549681 0.495345 0.071283 -0.053581
C30   C     C_R   0.549671 0.494313 0.927537 -0.085468
C31   C     C_R   0.450613 0.517383 0.928973 0.110241
C32   C     C_3   0.397915 0.441312 0.917849 -0.504766
C33   C     C_3   0.398351 0.430029 0.071577 0.275665
C34   C     C_R   0.060692 0.379902 0.488118 -0.208214
C35   C     C_R   0.880968 0.604202 0.530316 0.532751
C36   C     C_R   0.880530 0.381468 0.507886 0.614686
C37   C     C_R   0.940554 0.376644 0.512479 -0.200412
C38   C     C_R   0.970298 0.491386 0.516076 -0.063336
C39   C     C_R   0.940279 0.605635 0.529014 -0.010539
C40   C     C_R   0.030186 0.492538 0.509868 -0.063745
C41   C     C_R   0.059346 0.607660 0.522316 -0.009328
C42   C     C_R   0.028918 0.719868 0.537109 -0.080343
C43   C     C_R   0.969913 0.718922 0.539341 -0.090493
C44   C     C_R   0.120813 0.386168 0.489766 0.620589
H1    H     H_    0.677595 0.559712 0.708429 0.180402
H2    H     H_    0.405247 0.352689 0.861292 0.245748
H3    H     H_    0.360700 0.474734 0.120024 0.151385
H4    H     H_    0.050565 0.808953 0.546166 0.246672
H5    H     H_    0.947592 0.807182 0.549622 0.244272
H6    H     H_    0.212979 0.605661 0.320076 0.198470
H7    H     H_    0.322131 0.398264 0.685932 0.197909
H8    H     H_    0.789919 0.432190 0.304601 0.176955
H9    H     H_    0.880306 0.073172 0.729016 0.394847
H10   H     H_    0.649181 0.353896 0.296176 0.336686
H11   H     H_    0.581652 0.191898 0.332505 0.318392
H12   H     H_    0.781335 0.557469 0.717858 0.170082
H13   H     H_    0.421784 0.791653 0.796107 0.347637
H14   H     H_    0.121939 0.106953 0.225639 0.402712
H15   H     H_    0.378234 0.090485 0.060076 0.402180
H16   H     H_    0.357254 0.676717 0.333638 0.342962
H17   H     H_    0.173248 0.415328 0.729052 0.346532
H18   H     H_    0.546270 0.881717 0.308777 0.192581
H19   H     H_    0.509481 0.882968 0.786748 0.116139
H20   H     H_    0.434463 0.116774 0.790851 0.255190
H21   H     H_    0.514193 0.108553 0.784479 0.178221
H22   H     H_    0.589714 0.490110 0.124394 0.182314
H23   H     H_    0.589721 0.487489 0.873546 0.151254
H24   H     H_    0.361680 0.498533 0.880372 0.189433
N1    N     N_R   0.852623 0.493584 0.518023 -0.359218
N2    N     N_R   0.147784 0.498629 0.505346 -0.368411
N3    N     N_R   0.499610 0.499140 0.142800 -0.093503
N4    N     N_R   0.499610 0.499180 0.857150 -0.098236
O1    O     O_R   0.500010 0.316790 0.614690 -0.622981
O2    O     O_R   0.583850 0.500060 0.614640 -0.628766
O3    O     O_R   0.583840 0.500020 0.385300 -0.628790
O4    O     O_2   0.851617 0.712657 0.540690 -0.520860
O5    O     O_2   0.910402 0.052993 0.465128 -0.204568
O6    O     O_2   0.988515 0.037960 0.628571 -0.277073
O7    O     O_3   0.897155 0.154695 0.702584 -0.506422
O8    O     O_3   0.682014 0.406650 0.269730 -0.753614
O9    O     O_3   0.563308 0.117217 0.292817 -0.704122
O10   O     O_3   0.419346 0.884300 0.800938 -0.699805
O11   O     O_2   0.094669 0.057160 0.485938 -0.196942
O12   O     O_2   0.849949 0.276524 0.487417 -0.460445
O13   O     O_2   0.015056 0.053176 0.326391 -0.239454
O14   O     O_3   0.103457 0.183738 0.261075 -0.496144
O15   O     O_2   0.470479 0.232535 0.101257 -0.273480
O16   O     O_2   0.394810 0.257710 0.272545 -0.263818
O17   O     O_3   0.366583 0.176653 0.035122 -0.521703
O18   O     O_3   0.321072 0.642039 0.298941 -0.746775
O19   O     O_3   0.214084 0.392283 0.726214 -0.696362
O20   O     O_2   0.152625 0.281311 0.482730 -0.423804
O21   O     O_2   0.147127 0.716963 0.535358 -0.500929
O22   O     O_R   0.500000 0.316760 0.385350 -0.534568
O23   O     O_R   0.416160 0.499980 0.614700 -0.627784
O24   O     O_R   0.416150 0.499940 0.385360 -0.592323
O25   O     O_R   0.500000 0.683240 0.614650 -0.636650
O26   O     O_R   0.499990 0.683210 0.385310 -0.622791
S1    S     S_3+6 0.942190 0.121136 0.574399 0.112870
S2    S     S_3+6 0.060603 0.133916 0.387335 0.129189
S3    S     S_3+6 0.409565 0.270851 0.124912 0.065053
Zn1   Zn    Zn3+2 0.500000 0.500020 0.653130 0.953137
Zn2   Zn    Zn3+2 0.500000 0.499980 0.346870 1.027464

loop_
_geom_bond_atom_site_label_1
_geom_bond_atom_site_label_2
_ccdc_geom_bond_type
C17   N1    S    
C41   C42   A    
C19   C20   A    
C18   C26   S    
C10   H8    S    
O16   S3    D    
C7    C8    A    
C27   C33   S    
C12   C23   A    
C37   C38   A    
C33   S3    S    
O7    S1    S    
C36   C37   A    
H9    O7    S    
C25   H19   S    
C38   C39   A    
C16   O25   A    
C10   C17   A    
O26   Zn2   S    
C18   C19   A    
H15   O17   S    
C12   C37   A    
C26   H20   S    
C12   S1    S    
C20   O9    S    
O15   S3    D    
C8    C9    A    
C13   C28   S    
C44   N2    A    
C18   C24   A    
H11   O9    S    
O14   S2    S    
C30   H23   S    
C44   O20   S    
O23   Zn1   S    
C32   H24   S    
C23   S2    S    
C28   O2    A    
C4    O24   A    
C13   C14   A    
O3    Zn2   S    
H14   O14   S    
C3    H6    S    
C14   H1    S    
H10   O8    S    
C35   O4    S    
C1    C19   S    
C27   C31   A    
C34   C44   A    
C24   C25   S    
C4    C6    S    
C11   O8    S    
C43   H5    S    
C39   C43   A    
C25   C26   S    
C35   C39   A    
C29   C30   A    
C3    C9    A    
C4    O23   A    
C31   C32   S    
C23   C34   A    
C8    O19   S    
C42   H4    S    
C9    N2    S    
C21   H18   S    
C40   C41   A    
O22   Zn2   S    
O11   S2    D    
C25   O10   S    
C33   H3    S    
C22   C24   A    
C42   C43   A    
C5    O18   S    
C27   N3    A    
C36   N1    A    
C15   C17   A    
N3    Zn2   S    
C31   N4    A    
C16   C22   S    
O17   S3    S    
H13   O10   S    
C26   H21   S    
C32   H2    S    
C2    O21   S    
O25   Zn1   S    
C3    C5    A    
C1    O22   A    
C30   N4    A    
C6    C7    A    
H16   O18   S    
O2    Zn1   S    
C1    O1    A    
C15   H12   S    
C7    H7    S    
O13   S2    D    
C2    N2    A    
C32   C33   S    
C38   C40   A    
C11   C13   A    
C16   O26   A    
C5    C6    A    
N4    Zn1   S    
C36   O12   S    
O5    S1    D    
C10   C11   A    
C29   H22   S    
C20   C21   A    
C35   N1    A    
O24   Zn2   S    
O6    S1    D    
C14   C15   A    
C34   C40   A    
C2    C41   A    
C21   C22   A    
C28   O3    A    
O1    Zn1   S    
H17   O19   S    
C29   N3    A    
