data_mof_unit_52961.cif
_audit_creation_date              2012-12-11T18:11:24-0500
_audit_creation_method            fapswitch 2.2
_symmetry_space_group_name_H-M    P1
_symmetry_Int_Tables_number       1
_space_group_crystal_system       triclinic
_cell_length_a                    8.224156
_cell_length_b                    12.677493
_cell_length_c                    18.718583
_cell_angle_alpha                 99.605641
_cell_angle_beta                  90.832267
_cell_angle_gamma                 98.306364
_cell_volume                      1902.58896424

loop_
_atom_site_label
_atom_site_type_symbol
_atom_type_description
_atom_site_fract_x
_atom_site_fract_y
_atom_site_fract_z
_atom_type_partial_charge
Ba1   Ba    Ba6+2 0.852780 0.548340 0.465070 1.635969
Ba2   Ba    Ba6+2 0.337060 0.451750 0.534940 1.630977
C1    C     C_3   0.588360 0.901100 0.252424 -0.413645
C2    C     C_R   0.903107 0.388882 0.095683 -0.087318
C3    C     C_R   0.767539 0.414828 0.954460 -0.107769
C4    C     C_3   0.129525 0.762455 0.265065 0.362609
C5    C     C_R   0.932467 0.454708 0.977661 0.021359
C6    C     C_R   0.710054 0.416942 0.884579 -0.101126
C7    C     C_R   0.814207 0.458256 0.834000 -0.034925
C8    C     C_R   0.977015 0.505763 0.856738 -0.008791
C9    C     C_R   0.035943 0.505538 0.929149 0.020928
C10   C     C_R   0.760829 0.452821 0.761085 -0.008631
C11   C     C_R   0.869910 0.489070 0.711234 -0.297978
C12   C     C_3   0.634769 0.819432 0.297126 0.344171
C13   C     C_R   0.026752 0.542724 0.732977 0.068673
C14   C     C_R   0.080178 0.554342 0.807200 -0.040605
C15   C     C_R   0.156504 0.498777 0.071482 0.024105
C16   C     C_3   0.110845 0.788680 0.189278 -0.366102
C17   C     C_R   0.215557 0.498063 0.143844 -0.001046
C18   C     C_R   0.113353 0.446953 0.192741 -0.038954
C19   C     C_R   0.961833 0.387417 0.165655 -0.022826
C20   C     C_R   0.232199 0.613573 0.833912 -0.021231
C21   C     C_R   0.290382 0.613522 0.904178 -0.091000
C22   C     C_R   0.197830 0.555822 0.952250 0.010452
C23   C     C_3   0.462447 0.280606 0.313438 0.306050
C24   C     C_R   0.259673 0.550272 0.023108 0.019297
C25   C     C_R   0.423748 0.591942 0.046789 -0.104377
C26   C     C_R   0.377546 0.547535 0.166996 -0.035696
C27   C     C_R   0.480803 0.590603 0.116814 -0.096143
C28   C     C_3   0.247279 0.797866 0.636147 0.295787
C29   C     C_R   0.431720 0.552274 0.239649 -0.008893
C30   C     C_R   0.323718 0.511284 0.288812 -0.298114
C31   C     C_R   0.166826 0.456367 0.266739 0.042555
C32   C     C_R   0.763377 0.181408 0.523624 -0.284756
C33   C     C_R   0.427970 0.807186 0.470310 -0.278667
C34   C     C_3   0.443823 0.247056 0.231489 -0.393654
C35   C     C_R   0.407016 0.981791 0.438763 -0.125495
C36   C     C_R   0.340256 0.874415 0.438176 -0.011605
C37   C     C_R   0.578336 0.847693 0.507832 0.070265
C38   C     C_R   0.644696 0.959006 0.512067 -0.043222
C39   C     C_R   0.557274 0.026326 0.476680 -0.060423
C40   C     C_3   0.240037 0.917460 0.661949 -0.141943
C41   C     C_R   0.618353 0.137837 0.483581 0.051330
C42   C     C_R   0.855180 0.115658 0.553861 0.006724
C43   C     C_R   0.794015 0.005996 0.550837 -0.080453
C44   C     C_3   0.960444 0.210722 0.378252 0.275955
C45   C     C_3   0.098459 0.247608 0.732688 0.355498
C46   C     C_3   0.956233 0.088957 0.361414 -0.340380
C47   C     C_3   0.727500 0.706475 0.682440 0.306840
C48   C     C_3   0.750207 0.744490 0.763967 -0.412407
C49   C     C_3   0.079454 0.230266 0.811677 -0.102294
C50   C     C_3   0.626436 0.198603 0.727977 0.317540
C51   C     C_3   0.619419 0.107718 0.772455 -0.137291
C52   C     C_R   0.994869 0.448122 0.048208 0.013275
H1    H     H_    0.725445 0.861332 0.340952 0.075084
H2    H     H_    0.540084 0.967737 0.288039 0.102743
H3    H     H_    0.857853 0.809389 0.776013 0.126706
H4    H     H_    0.771312 0.676801 0.791709 0.065802
H5    H     H_    0.638241 0.775983 0.785577 0.114342
H6    H     H_    0.521806 0.786762 0.322742 -0.051904
H7    H     H_    0.492267 0.860853 0.210538 0.113672
H8    H     H_    0.344822 0.303764 0.334151 0.018308
H9    H     H_    0.561671 0.351105 0.325921 0.062943
H10   H     H_    0.342269 0.178326 0.217236 0.128365
H11   H     H_    0.415579 0.315615 0.206054 0.058704
H12   H     H_    0.259674 0.936895 0.721887 0.122279
H13   H     H_    0.559982 0.222158 0.209709 0.118566
H14   H     H_    0.697331 0.935142 0.224861 0.129788
H15   H     H_    0.188266 0.866673 0.185338 0.111170
H16   H     H_    0.221872 0.290470 0.726897 0.125588
H17   H     H_    0.009438 0.300980 0.721212 -0.063573
H18   H     H_    0.133143 0.305867 0.848327 0.078188
H19   H     H_    0.947477 0.214361 0.823608 0.111324
H20   H     H_    0.750161 0.246012 0.738298 -0.025880
H21   H     H_    0.611238 0.165214 0.669177 0.027300
H22   H     H_    0.496055 0.058069 0.766536 0.099842
H23   H     H_    0.116209 0.935882 0.648241 0.123656
H24   H     H_    0.048185 0.685373 0.267767 0.090895
H25   H     H_    0.642666 0.143813 0.830709 0.101746
H26   H     H_    0.828885 0.480039 0.655055 0.067646
H27   H     H_    0.582368 0.384997 0.870962 0.114486
H28   H     H_    0.885081 0.339363 0.198241 0.096050
H29   H     H_    0.309930 0.660234 0.800888 0.098388
H30   H     H_    0.607774 0.624127 0.130721 0.112632
H31   H     H_    0.365414 0.517868 0.344687 0.073341
H32   H     H_    0.677700 0.383058 0.989722 0.073952
H33   H     H_    0.785347 0.340538 0.079909 0.058008
H34   H     H_    0.836564 0.229148 0.391458 0.001304
H35   H     H_    0.408713 0.661318 0.919437 0.058155
H36   H     H_    0.259360 0.752124 0.274354 -0.072752
H37   H     H_    0.513373 0.624992 0.011962 0.072485
H38   H     H_    0.335539 0.030536 0.412627 0.100327
H39   H     H_    0.865170 0.959305 0.578747 0.104120
H40   H     H_    0.810121 0.266670 0.528054 0.061694
H41   H     H_    0.374353 0.723813 0.469347 0.070405
H42   H     H_    0.150062 0.723958 0.148699 0.072797
H43   H     H_    0.980540 0.794907 0.176918 0.150366
H44   H     H_    0.376694 0.783624 0.632599 0.041320
H45   H     H_    0.047610 0.243155 0.425194 0.075867
H46   H     H_    0.180984 0.771163 0.582483 0.027876
H47   H     H_    0.357695 0.064131 0.650608 0.232084
H48   H     H_    0.333397 0.973025 0.574853 0.200513
H49   H     H_    0.911154 0.051420 0.408029 0.083878
H50   H     H_    0.282350 0.153433 0.813415 0.210841
H51   H     H_    0.101888 0.068715 0.797799 0.217606
H52   H     H_    0.742055 0.983031 0.784315 0.189746
H53   H     H_    0.708235 0.996184 0.697906 0.214974
H54   H     H_    0.873096 0.054466 0.313569 0.116400
H55   H     H_    0.081676 0.069903 0.349573 0.139576
H56   H     H_    0.842892 0.680999 0.661173 0.026451
H57   H     H_    0.626251 0.637116 0.672002 0.066810
N1    N     N_3   0.366617 0.983775 0.629514 -0.540609
N2    N     N_3   0.160222 0.141399 0.828251 -0.492695
N3    N     N_3   0.743956 0.039585 0.749526 -0.504346
O1    O     O_2   0.873090 0.425890 0.325140 -0.467786
O2    O     O_2   0.192723 0.120416 0.553464 -0.490298
O3    O     O_3   0.075894 0.148843 0.684122 -0.622954
O4    O     O_3   0.122420 0.434370 0.414380 -0.494139
O5    O     O_3   0.578370 0.633800 0.536380 -0.491691
O6    O     O_2   0.341510 0.231850 0.465510 -0.464006
O7    O     O_3   0.501560 0.193073 0.343677 -0.651408
O8    O     O_2   0.421703 0.454850 0.758580 -0.507001
O9    O     O_3   0.501404 0.260897 0.749019 -0.638382
O10   O     O_3   0.659500 0.627100 0.368810 -0.473671
O11   O     O_2   0.770700 0.543414 0.242856 -0.493145
O12   O     O_3   0.689902 0.792514 0.650468 -0.648918
O13   O     O_3   0.007991 0.253408 0.316456 -0.641179
O14   O     O_3   0.707007 0.740223 0.251873 -0.598115
O15   O     O_2   0.848200 0.768190 0.534530 -0.466440
O16   O     O_3   0.081160 0.685950 0.404810 -0.482007
O17   O     O_2   0.005688 0.880484 0.451271 -0.485838
O18   O     O_3   0.084726 0.847041 0.315877 -0.599247
O19   O     O_2   0.316610 0.574140 0.674900 -0.477820
O20   O     O_3   0.067290 0.565720 0.585630 -0.488757
O21   O     O_3   0.530210 0.372990 0.631200 -0.460130
O22   O     O_3   0.172596 0.745034 0.688960 -0.664616
O23   O     O_3   0.611340 0.366290 0.463630 -0.478642
O24   O     O_3   0.108550 0.314140 0.595200 -0.484833
P1    P     P_3+3 0.041040 0.394770 0.336330 0.972891
P2    P     P_3+3 0.672880 0.754030 0.556100 0.967077
P3    P     P_3+3 0.128928 0.823498 0.403087 0.953243
P4    P     P_3+3 0.148670 0.605320 0.663680 0.967370
P5    P     P_3+3 0.058449 0.175104 0.595397 0.937131
P6    P     P_3+3 0.641590 0.613099 0.274920 0.948740
P7    P     P_3+3 0.520598 0.230713 0.438040 0.936619
P8    P     P_3+3 0.554165 0.388840 0.725215 0.920002

loop_
_geom_bond_atom_site_label_1
_geom_bond_atom_site_label_2
_ccdc_geom_bond_type
C44   H45   S    
C15   C24   A    
Ba1   O4    S    
C25   C27   A    
C16   H42   S    
H48   N1    S    
C1    H14   S    
C50   H21   S    
C43   H39   S    
Ba2   O4    S    
C34   H13   S    
H53   N3    S    
C2    H33   S    
C51   N3    S    
H47   N1    S    
C5    C9    A    
C47   O12   S    
O12   P2    S    
O19   P4    D    
Ba2   O20   S    
H52   N3    S    
O5    P2    S    
O23   P7    S    
C26   C27   A    
O3    P5    S    
C22   C24   A    
Ba1   O15   S    
O24   P5    S    
Ba1   O5    S    
C50   O9    S    
C4    H24   S    
O11   P6    D    
C13   C14   A    
C13   P4    S    
C28   H46   S    
C9    C22   A    
C12   O14   S    
C51   H25   S    
Ba1   Ba2   S    
C23   H9    S    
C10   P8    S    
C29   P6    S    
O16   P3    S    
C40   N1    S    
O22   P4    S    
C17   C18   A    
C6    C7    A    
C21   C22   A    
C21   H35   S    
C25   H37   S    
C16   H43   S    
C7    C8    A    
O17   P3    D    
C47   H57   S    
C16   H15   S    
C46   H55   S    
C11   H26   S    
O6    P7    D    
C39   C41   A    
O13   P1    S    
C44   H34   S    
C1    H7    S    
C38   C43   A    
C4    C16   S    
C44   C46   S    
Ba2   O19   S    
C3    H32   S    
C32   C41   A    
C6    H27   S    
C48   H4    S    
C49   H19   S    
C44   O13   S    
C33   C36   A    
C32   C42   A    
C27   H30   S    
C4    O18   S    
Ba1   O16   S    
C37   C38   A    
C3    C5    A    
Ba2   O6    S    
C34   H11   S    
C45   C49   S    
C4    H36   S    
C46   H49   S    
Ba2   O24   S    
C33   C37   A    
C45   H16   S    
C35   C36   A    
C41   P7    S    
C19   H28   S    
O20   P4    S    
O2    P5    D    
C1    H2    S    
C29   C30   A    
O9    P8    S    
O21   P8    S    
C24   C25   A    
C49   N2    S    
C10   C11   A    
C17   C26   A    
O14   P6    S    
C45   H17   S    
C1    C12   S    
C18   C31   A    
C38   C39   A    
O1    P1    D    
C28   O22   S    
C11   C13   A    
Ba2   P4    S    
C36   P3    S    
O7    P7    S    
C51   H22   S    
C49   H18   S    
C48   H5    S    
O4    P1    S    
Ba1   O23   S    
C50   C51   S    
H51   N2    S    
O18   P3    S    
C37   P2    S    
C14   C20   A    
C35   H38   S    
C2    C52   A    
C48   H3    S    
C26   C29   A    
O10   P6    S    
C42   C43   A    
C32   H40   S    
Ba1   P1    S    
C3    C6    A    
Ba2   O5    S    
C33   H41   S    
Ba2   O23   S    
C12   H6    S    
C28   H44   S    
C50   H20   S    
Ba2   O21   S    
C20   H29   S    
Ba1   O10   S    
C8    C14   A    
C30   C31   A    
C2    C19   A    
C46   H54   S    
O15   P2    D    
C31   P1    S    
C42   P5    S    
C30   H31   S    
C15   C17   A    
C12   H1    S    
C23   H8    S    
O8    P8    D    
C35   C39   A    
C7    C10   A    
C8    C9    A    
C23   C34   S    
H50   N2    S    
C45   O3    S    
C18   C19   A    
C40   H23   S    
C47   C48   S    
C40   H12   S    
C20   C21   A    
C28   C40   S    
Ba1   P2    S    
Ba1   O1    S    
C5    C52   A    
C34   H10   S    
C23   O7    S    
C15   C52   A    
Ba1   O20   S    
C47   H56   S    
