data_mof_unit_41350.cif
_audit_creation_date              2013-03-05T15:54:52-0500
_audit_creation_method            fapswitch 2.2
_symmetry_space_group_name_H-M    P1
_symmetry_Int_Tables_number       1
_space_group_crystal_system       triclinic
_cell_length_a                    13.700292
_cell_length_b                    14.073655
_cell_length_c                    30.025651
_cell_angle_alpha                 97.832078
_cell_angle_beta                  89.349765
_cell_angle_gamma                 119.247248
_cell_volume                      4993.96720991

loop_
_atom_site_label
_atom_site_type_symbol
_atom_site_description
_atom_site_fract_x
_atom_site_fract_y
_atom_site_fract_z
_atom_type_partial_charge
O1    O     O_R   0.494060 0.188820 0.559230 -0.507859
O2    O     O_R   0.678470 0.153390 0.554100 -0.524644
C1    C     C_R   0.718561 0.097832 0.569161 0.813140
O3    O     O_R   0.697870 0.003940 0.549410 -0.507279
O4    O     O_R   0.480980 0.827230 0.535590 -0.509264
C2    C     C_R   0.380870 0.784174 0.549772 0.882000
O5    O     O_R   0.309390 0.811640 0.537920 -0.499821
O6    O     O_R   0.341810 0.023400 0.546180 -0.522533
C3    C     C_R   0.395469 0.120498 0.568269 0.818295
O7    O     O_R   0.493150 0.185870 0.461540 -0.511287
O8    O     O_R   0.677630 0.150660 0.463530 -0.544333
C4    C     C_R   0.721372 0.096157 0.443059 0.845947
O9    O     O_R   0.696960 0.000990 0.451710 -0.498362
O10   O     O_R   0.480140 0.824500 0.445020 -0.529235
C5    C     C_R   0.382602 0.784640 0.425085 0.802969
O11   O     O_R   0.308480 0.808690 0.440220 -0.497215
O12   O     O_R   0.340970 0.020670 0.455610 -0.511365
C6    C     C_R   0.395659 0.116185 0.443586 0.872749
Cr1   Cr    Cr6+3 0.583400 0.162540 0.509180 1.083525
Cr2   Cr    Cr6+3 0.584070 0.916690 0.495550 1.126314
Cr3   Cr    Cr6+3 0.332550 0.920810 0.495240 1.133544
O13   O     O_3   0.500010 0.000010 0.499990 -0.396184
H1    H     H_    0.135516 0.583284 0.883052 0.178792
H2    H     H_    0.169830 0.626616 0.806978 0.202951
C7    C     C_R   0.352885 0.715134 0.586544 -0.320594
C8    C     C_R   0.432770 0.691844 0.604434 0.347911
C9    C     C_R   0.426027 0.670000 0.648798 -0.158813
C10   C     C_R   0.340235 0.667997 0.674810 -0.141774
C11   C     C_R   0.248872 0.670119 0.654585 0.305022
C12   C     C_R   0.253648 0.689229 0.609420 0.247279
C13   C     C_R   0.236255 0.628781 0.827111 -0.032971
C14   C     C_R   0.217187 0.604345 0.870745 -0.116154
C15   C     C_R   0.403316 0.626354 0.878971 -0.062570
C16   C     C_R   0.423059 0.653128 0.835278 0.030054
C17   C     C_R   0.337505 0.649498 0.808762 0.069940
C18   C     C_1   0.347280 0.657730 0.761709 0.152037
C19   C     C_1   0.346453 0.661631 0.721971 0.216099
C20   C     C_R   0.298573 0.598065 0.896507 -0.077284
H3    H     H_    0.502843 0.671714 0.821581 0.201985
H4    H     H_    0.467750 0.623018 0.898150 0.174790
H5    H     H_    0.489412 0.656676 0.663520 0.231910
C21   C     C_3   0.321287 0.077047 0.714198 0.103191
C22   C     C_3   0.212128 0.174295 0.711797 -0.462353
C23   C     C_3   0.211422 0.191369 0.765399 0.576145
H6    H     H_    0.202013 0.235774 0.695872 0.201339
H7    H     H_    0.140400 0.096416 0.695902 0.269536
C24   C     C_1   0.300069 0.207009 0.876277 0.052044
C25   C     C_3   0.321162 0.176428 0.697301 -0.183437
C26   C     C_3   0.330962 0.091553 0.766411 0.137118
C27   C     C_3   0.320534 0.195823 0.786993 -0.324094
C28   C     C_3   0.430185 0.301848 0.773663 0.455807
C29   C     C_3   0.419948 0.290886 0.719942 0.076802
C30   C     C_1   0.313172 0.199816 0.836456 0.320935
C31   C     C_1   0.330501 0.162667 0.647892 0.150762
C32   C     C_1   0.354264 0.145293 0.609953 -0.033357
H8    H     H_    0.394304 0.350413 0.711496 0.177110
H9    H     H_    0.394289 0.073632 0.701018 0.183735
H10   H     H_    0.417171 0.109669 0.774864 0.156713
C33   C     C_3   0.719384 0.168361 0.730920 0.069191
C34   C     C_3   0.924356 0.240172 0.718122 0.068171
C35   C     C_3   0.949230 0.247699 0.768965 -0.336384
H11   H     H_    0.723287 0.243334 0.721331 0.256934
H12   H     H_    0.987977 0.227116 0.699232 0.166253
H13   H     H_    0.983340 0.333256 0.786789 0.253456
H14   H     H_    0.014365 0.224931 0.772429 0.218298
C36   C     C_1   0.899919 0.200089 0.878907 -0.008845
C37   C     C_3   0.804140 0.142935 0.703261 -0.117838
C38   C     C_3   0.746528 0.185308 0.782623 0.208528
C39   C     C_3   0.845161 0.164613 0.791007 -0.152101
C40   C     C_3   0.814526 0.045413 0.768127 0.060867
C41   C     C_3   0.798042 0.034087 0.715248 0.439756
C42   C     C_1   0.871909 0.181459 0.839595 0.160440
C43   C     C_1   0.782481 0.135427 0.654667 0.156396
C44   C     C_1   0.759591 0.124664 0.615129 -0.012806
H15   H     H_    0.672459 0.123764 0.798115 0.181893
H16   H     H_    0.885059 0.031635 0.775704 0.229207
C45   C     C_3   0.264006 0.720792 0.271701 0.138524
C46   C     C_3   0.302223 0.557882 0.271178 0.153378
C47   C     C_3   0.282654 0.538215 0.219030 0.038546
H17   H     H_    0.370065 0.540575 0.280040 0.193090
H18   H     H_    0.191361 0.487850 0.209715 0.169252
C48   C     C_1   0.306143 0.605528 0.110939 -0.024331
C49   C     C_3   0.342717 0.681146 0.289795 -0.040891
C50   C     C_3   0.258281 0.706357 0.218676 0.389562
C51   C     C_3   0.329512 0.650833 0.200662 -0.049277
C52   C     C_3   0.453386 0.725492 0.219306 -0.268499
C53   C     C_3   0.459874 0.749703 0.271430 -0.463253
C54   C     C_1   0.322131 0.631864 0.151091 0.139690
C55   C     C_1   0.354526 0.703802 0.339281 0.093280
C56   C     C_1   0.365932 0.733808 0.379252 -0.036784
H19   H     H_    0.491718 0.839318 0.282222 0.192597
H20   H     H_    0.521744 0.730206 0.285533 0.235191
H21   H     H_    0.493068 0.804203 0.205282 0.250525
H22   H     H_    0.302263 0.810246 0.284732 0.132184
H23   H     H_    0.503371 0.684364 0.208763 0.247519
H24   H     H_    0.133995 0.081833 0.089381 0.213867
C57   C     C_R   0.355565 0.137542 0.402113 -0.355373
C58   C     C_R   0.423352 0.236345 0.384253 0.285219
C59   C     C_R   0.410430 0.239196 0.338186 0.211295
C60   C     C_R   0.329506 0.144947 0.310389 -0.192928
C61   C     C_R   0.251408 0.053159 0.329173 0.208558
C62   C     C_R   0.261892 0.050611 0.375360 0.258657
C63   C     C_R   0.221245 0.095689 0.150106 0.379484
C64   C     C_R   0.215383 0.121450 0.107482 -0.255305
C65   C     C_R   0.416286 0.248422 0.112916 0.358857
C66   C     C_R   0.422849 0.222754 0.156206 0.228319
C67   C     C_R   0.324531 0.150426 0.175371 -0.137361
C68   C     C_1   0.326519 0.144285 0.222628 0.211347
C69   C     C_1   0.326937 0.143182 0.262526 0.207691
C70   C     C_R   0.310420 0.201180 0.089289 -0.255910
H25   H     H_    0.002123 0.392365 0.118524 0.186255
H26   H     H_    0.957795 0.371781 0.196161 0.202281
H27   H     H_    0.752660 0.274142 0.407838 0.226235
C71   C     C_R   0.783537 0.135768 0.403005 -0.261660
C72   C     C_R   0.826266 0.075545 0.375937 0.309290
C73   C     C_R   0.850354 0.094959 0.331365 0.199542
C74   C     C_R   0.834420 0.175376 0.314859 -0.121489
C75   C     C_R   0.806101 0.244033 0.343425 0.294572
C76   C     C_R   0.781591 0.224528 0.387284 -0.205704
C77   C     C_R   0.917656 0.300043 0.170378 -0.101443
C78   C     C_R   0.941857 0.311498 0.125989 -0.150922
C79   C     C_R   0.819910 0.114179 0.103270 0.217176
C80   C     C_R   0.794385 0.102814 0.148503 0.402257
C81   C     C_R   0.848496 0.196123 0.181910 -0.075950
C82   C     C_1   0.840923 0.187426 0.228583 0.159293
C83   C     C_1   0.838797 0.182293 0.267967 0.172914
C84   C     C_R   0.898536 0.218556 0.092535 -0.167320
O14   O     O_R   0.969690 0.151000 0.934080 -0.516267
O15   O     O_R   0.187530 0.180840 0.938210 -0.521331
C85   C     C_R   0.284296 0.233453 0.922465 0.808453
O16   O     O_R   0.358160 0.327300 0.941250 -0.513885
O17   O     O_R   0.323950 0.507710 0.953980 -0.526418
C86   C     C_R   0.265790 0.546523 0.937825 0.803388
O18   O     O_R   0.170530 0.527770 0.952070 -0.539394
O19   O     O_R   0.987720 0.318450 0.945940 -0.529756
C87   C     C_R   0.946649 0.221675 0.923546 0.827109
O20   O     O_R   0.976400 0.159230 0.032040 -0.521085
O21   O     O_R   0.193740 0.188470 0.029020 -0.550201
C88   C     C_R   0.291549 0.241941 0.049100 0.876805
O22   O     O_R   0.364860 0.335530 0.039220 -0.494782
O23   O     O_R   0.330170 0.515340 0.044800 -0.522047
C89   C     C_R   0.274089 0.557644 0.064842 0.794337
O24   O     O_R   0.177230 0.536000 0.050040 -0.531688
O25   O     O_R   0.993930 0.326080 0.036750 -0.536337
C90   C     C_R   0.952261 0.232029 0.049657 0.846818
Cr4   Cr    Cr6+3 0.086700 0.177000 0.983690 1.051510
Cr5   Cr    Cr6+3 0.336880 0.419130 0.994740 1.082879
Cr6   Cr    Cr6+3 0.084850 0.422220 0.995960 1.031311
O26   O     O_3   0.169480 0.339450 0.991460 -0.373596
Br1   Br    Br    0.197550 0.934442 0.685798 -0.188282
N1    N     N_R   0.108745 0.099292 0.779744 0.100413
O27   O     O_R   0.073129 0.110419 0.819471 -0.360712
O28   O     O_R   0.062591 0.000858 0.756631 -0.276991
N2    N     N_R   0.211565 0.296301 0.781815 0.053834
O29   O     O_R   0.220917 0.364937 0.754809 -0.396780
O30   O     O_R   0.202635 0.322822 0.824356 -0.368556
N3    N     N_R   0.526491 0.322135 0.698676 0.179362
O31   O     O_R   0.562427 0.252274 0.689223 -0.364970
O32   O     O_R   0.580322 0.417407 0.684810 -0.258538
N4    N     N_R   0.535446 0.308156 0.789411 0.139642
O33   O     O_R   0.537789 0.266744 0.825331 -0.344666
O34   O     O_R   0.629966 0.388077 0.779357 -0.216640
N5    N     N_R   0.436473 0.406216 0.794867 0.157371
O35   O     O_R   0.441582 0.427861 0.838595 -0.339409
O36   O     O_R   0.470590 0.488874 0.772530 -0.341716
N6    N     N_R   0.769892 0.294481 0.805484 0.169742
O37   O     O_R   0.747670 0.305410 0.847521 -0.303705
O38   O     O_R   0.829366 0.383063 0.787499 -0.281130
Br2   Br    Br    0.951156 0.380948 0.702898 -0.280528
Br3   Br    Br    0.667520 0.896914 0.687832 -0.306542
Br4   Br    Br    0.912875 0.009722 0.685518 -0.370330
Br5   Br    Br    0.689755 0.932580 0.796729 -0.395137
N7    N     N_R   0.151607 0.652026 0.679196 0.190314
O39   O     O_R   0.162062 0.694136 0.721356 -0.294300
O40   O     O_R   0.051618 0.595530 0.659241 -0.239231
Br6   Br    Br    0.565071 0.053040 0.717068 -0.478686
Br7   Br    Br    0.104436 0.622461 0.190778 -0.351228
Br8   Br    Br    0.118664 0.660687 0.299058 -0.194272
Br9   Br    Br    0.171812 0.450531 0.298620 -0.406270
Br10  Br    Br    0.346332 0.447716 0.191742 -0.494024
N8    N     N_R   0.158259 0.682474 0.586750 0.195790
O41   O     O_R   0.121216 0.749646 0.601151 -0.258337
O42   O     O_R   0.113917 0.614683 0.549422 -0.306375
Br11  Br    Br    0.316925 0.851580 0.199616 -0.407468
N9    N     N_R   0.120788 0.016716 0.167895 0.151933
O43   O     O_R   0.024856 0.009663 0.158243 -0.315269
O44   O     O_R   0.122279 0.941392 0.188120 -0.274554
Br12  Br    Br    0.128991 0.931398 0.292025 -0.159173
N10   N     N_R   0.177314 0.960114 0.394988 0.188438
O45   O     O_R   0.126002 0.978703 0.428948 -0.283865
O46   O     O_R   0.156899 0.860069 0.381192 -0.291459
N11   N     N_R   0.504742 0.333611 0.412757 0.181013
O47   O     O_R   0.474734 0.371137 0.449259 -0.297588
O48   O     O_R   0.609846 0.381247 0.403785 -0.289619
N12   N     N_R   0.518989 0.687700 0.577819 0.162967
O49   O     O_R   0.613985 0.710116 0.597063 -0.272142
O50   O     O_R   0.495854 0.643577 0.535614 -0.312110
Br13  Br    Br    0.566079 0.285929 0.189212 -0.287422
N13   N     N_R   0.516238 0.322490 0.093442 0.156113
O51   O     O_R   0.541091 0.291870 0.054094 -0.336213
O52   O     O_R   0.580660 0.421885 0.114200 -0.273511
Br14  Br    Br    0.501593 0.372967 0.313268 -0.255706
Br15  Br    Br    0.790930 0.359785 0.322716 -0.258188
N14   N     N_R   0.843233 0.994143 0.393155 0.174932
O53   O     O_R   0.905663 0.020690 0.430026 -0.293567
O54   O     O_R   0.792439 0.892397 0.373301 -0.283777
N15   N     N_R   0.716742 0.997091 0.160449 0.127730
O55   O     O_R   0.615469 0.942077 0.141632 -0.331780
O56   O     O_R   0.745258 0.957358 0.191404 -0.321703
Br16  Br    Br    0.751976 0.986644 0.057208 -0.331910
Br17  Br    Br    0.904160 0.011539 0.292822 -0.216486
N16   N     N_R   0.261070 0.987529 0.784416 0.214983
O57   O     O_R   0.286044 0.909063 0.775588 -0.296191
O58   O     O_R   0.191093 0.978414 0.815358 -0.292514

loop_
_geom_bond_atom_site_label_1
_geom_bond_atom_site_label_2
_geom_bond_distance
_ccdc_geom_bond_type
O6    C3    1.276760 A    
C49   C53   1.556569 S    
C65   C70   1.414736 A    
C61   C62   1.402926 A    
C86   O18   1.279605 A    
C53   H19   1.113619 S    
H25   C78   1.083659 S    
C43   C44   1.201526 T    
C45   H22   1.112817 S    
C17   C18   1.432645 S    
C63   N9    1.437057 S    
O25   Cr6   1.911135 S    
O14   Cr4   2.062769 S    
C57   C58   1.419015 A    
O19   C87   1.278222 A    
O4    Cr2   1.913551 S    
N8    O41   1.300245 A    
C68   C69   1.200271 T    
C38   H15   1.112001 S    
C25   C31   1.481993 S    
C4    O9    1.276061 A    
O8    Cr1   1.918751 S    
C8    C9    1.399476 A    
N3    O31   1.297464 A    
C34   H12   1.109981 S    
C34   Br2   1.949676 S    
O20   C90   1.272124 A    
C10   C11   1.412498 A    
N5    O36   1.302206 A    
O21   Cr4   1.945050 S    
C78   C84   1.403214 A    
C73   Br17  1.927958 S    
O14   C87   1.258499 A    
C51   C52   1.554463 S    
O4    C2    1.294060 A    
C46   H17   1.112895 S    
N9    O44   1.299942 A    
C2    C7    1.492931 S    
C66   C67   1.408511 A    
C45   C49   1.566284 S    
C23   C27   1.605710 S    
C72   C73   1.405742 A    
C58   C59   1.404936 A    
C28   N4    1.479886 S    
C29   N3    1.469639 S    
C62   N10   1.434954 S    
C73   C74   1.403901 A    
O22   Cr5   2.048293 S    
C16   C17   1.400694 A    
C20   C86   1.476907 S    
C79   C84   1.413162 A    
N10   O46   1.300443 A    
C1    C44   1.425378 S    
C40   Br5   1.966508 S    
C75   C76   1.385931 A    
C33   C37   1.571393 S    
H27   C76   1.083038 S    
C46   C49   1.559479 S    
C36   C42   1.198708 T    
C75   Br15  1.921856 S    
C34   C37   1.559580 S    
O17   C86   1.294156 A    
C37   C41   1.583575 S    
N1    O27   1.302302 A    
C79   Br16  1.928982 S    
O16   Cr5   2.031396 S    
C40   C41   1.581523 S    
C3    C32   1.436797 S    
C6    C57   1.490500 S    
C14   C20   1.408506 A    
C61   Br12  1.925262 S    
C74   C83   1.423078 S    
N2    O30   1.302682 A    
C71   C76   1.406225 A    
C48   C89   1.425857 S    
C24   C30   1.204976 T    
C9    C10   1.394662 A    
N8    O42   1.301206 A    
C82   C83   1.193682 T    
C60   C69   1.434505 S    
N3    O32   1.301526 A    
Cr3   O13   1.997900 S    
N6    O38   1.300225 A    
C50   Br7   1.969016 S    
C8    N12   1.438919 S    
C21   H9    1.091790 S    
O6    Cr3   1.914065 S    
C4    C71   1.475794 S    
N7    O40   1.300843 A    
O24   Cr6   2.039682 S    
C49   C55   1.470207 S    
O1    Cr1   2.035292 S    
C27   C30   1.482721 S    
C89   O24   1.277796 A    
C5    O11   1.278984 A    
C24   C85   1.428130 S    
N15   O55   1.301003 A    
C15   H4    1.082831 S    
O10   Cr2   1.928730 S    
O20   Cr4   2.033107 S    
C80   C81   1.409549 A    
Cr1   O13   1.973597 S    
O1    C3    1.271365 A    
C50   C51   1.572747 S    
C58   N11   1.435457 S    
C23   N1    1.483481 S    
O21   C88   1.278582 A    
C11   N7    1.443604 S    
C47   H18   1.110233 S    
C52   C53   1.549728 S    
C38   C39   1.544841 S    
C45   C50   1.575233 S    
C27   C28   1.613137 S    
C7    C8    1.416213 A    
N7    O39   1.300356 A    
O12   Cr3   1.923166 S    
C26   H10   1.104229 S    
C16   H3    1.082642 S    
C34   C35   1.546061 S    
N4    O34   1.301374 A    
C39   C42   1.466894 S    
C22   C23   1.595179 S    
C11   C12   1.412749 A    
C52   H21   1.110612 S    
C33   C38   1.559067 S    
Cr4   O26   1.973482 S    
C9    H5    1.084005 S    
C59   C60   1.402659 A    
C50   Br11  1.963166 S    
O7    Cr1   2.060962 S    
C67   C68   1.434636 S    
C72   N14   1.434612 S    
O12   C6    1.280893 A    
N2    O29   1.302773 A    
C41   Br3   1.956839 S    
C80   N15   1.436761 S    
N10   O45   1.301194 A    
C21   C25   1.552234 S    
Cr6   O26   1.998211 S    
C28   N5    1.480885 S    
C22   H6    1.108105 S    
O15   Cr4   1.918410 S    
C84   C90   1.464209 S    
C36   C87   1.420248 S    
C37   C43   1.471478 S    
N16   O58   1.300302 A    
C33   Br6   1.939016 S    
C65   N13   1.434144 S    
H24   C64   1.083168 S    
C59   Br14  1.931072 S    
C40   H16   1.106013 S    
N6    O37   1.301396 A    
C12   N8    1.435752 S    
C13   C17   1.394272 A    
O19   Cr6   1.925574 S    
Cr2   O13   1.998147 S    
C1    O3    1.265853 A    
C25   C29   1.575043 S    
C47   C51   1.569823 S    
C77   C78   1.381523 A    
H26   C77   1.084062 S    
O15   C85   1.285025 A    
C22   C25   1.538427 S    
C51   C54   1.471569 S    
C35   C39   1.548733 S    
C7    C12   1.419809 A    
C31   C32   1.207018 T    
C70   C88   1.480771 S    
C33   H11   1.107422 S    
O9    Cr2   2.029462 S    
Cr5   O26   1.997243 S    
O2    Cr1   1.945068 S    
C47   Br10  1.959514 S    
O17   Cr5   1.928686 S    
C13   C14   1.389323 A    
C57   C62   1.417871 A    
H1    C14   1.082932 S    
N14   O54   1.301212 A    
O25   C90   1.274564 A    
C88   O22   1.280105 A    
O11   Cr3   2.030078 S    
C71   C72   1.417016 A    
C2    O5    1.284671 A    
O18   Cr6   2.028726 S    
C65   C66   1.410822 A    
C74   C75   1.397397 A    
C15   C20   1.405955 A    
C66   Br13  1.929360 S    
C45   Br8   1.965079 S    
C23   N2    1.490851 S    
N11   O47   1.301282 A    
C85   O16   1.261152 A    
C55   C56   1.201975 T    
H2    C13   1.083936 S    
C28   C29   1.600459 S    
O5    Cr3   2.038263 S    
O23   C89   1.282882 A    
N4    O33   1.301663 A    
C35   H13   1.111243 S    
C64   C70   1.405731 A    
C46   C47   1.555325 S    
C46   Br9   1.954958 S    
N9    O43   1.301751 A    
N16   O57   1.301624 A    
C29   H8    1.112257 S    
C10   C19   1.437084 S    
O7    C6    1.276195 A    
C48   C54   1.201547 T    
C26   N16   1.478704 S    
C60   C61   1.402114 A    
C15   C16   1.401185 A    
O2    C1    1.280323 A    
C41   Br4   1.949703 S    
N1    O28   1.300979 A    
C39   C40   1.570610 S    
C21   Br1   1.967415 S    
C22   H7    1.100176 S    
N13   O52   1.301029 A    
N5    O35   1.301452 A    
C52   H23   1.112058 S    
O23   Cr5   1.914396 S    
C21   C26   1.551795 S    
N12   O49   1.301303 A    
O3    Cr2   2.049184 S    
C35   H14   1.095644 S    
N13   O51   1.301144 A    
N14   O53   1.301262 A    
C18   C19   1.202312 T    
C26   C27   1.584759 S    
C63   C64   1.390353 A    
N15   O56   1.300983 A    
O10   C5    1.285614 A    
C63   C67   1.403989 A    
N12   O50   1.301640 A    
C79   C80   1.409319 A    
C53   H20   1.113637 S    
C77   C81   1.390371 A    
O8    C4    1.279703 A    
N11   O48   1.301000 A    
C81   C82   1.421498 S    
C5    C56   1.427209 S    
C38   N6    1.473533 S    
