data_mof_unit_39987.cif
_audit_creation_date              2012-12-11T17:05:34-0500
_audit_creation_method            fapswitch 2.2
_symmetry_space_group_name_H-M    P1
_symmetry_Int_Tables_number       1
_space_group_crystal_system       triclinic
_cell_length_a                    6.936156
_cell_length_b                    14.579546
_cell_length_c                    15.999042
_cell_angle_alpha                 90.232455
_cell_angle_beta                  90.172079
_cell_angle_gamma                 89.970389
_cell_volume                      1617.89839037

loop_
_atom_site_label
_atom_site_type_symbol
_atom_type_description
_atom_site_fract_x
_atom_site_fract_y
_atom_site_fract_z
_atom_type_partial_charge
O1    O     O_R   0.494380 0.415640 0.412830 -0.531696
O2    O     O_R   0.823960 0.405540 0.586560 -0.550969
O3    O     O_R   0.994270 0.584360 0.587170 -0.547898
C1    C     C_R   0.655320 0.383354 0.615226 0.667388
O4    O     O_R   0.824090 0.404620 0.413450 -0.528502
O5    O     O_R   0.994400 0.583430 0.412820 -0.514679
C2    C     C_R   0.655233 0.382468 0.384405 0.777313
O6    O     O_R   0.494250 0.416570 0.587180 -0.544469
O7    O     O_3   0.660800 0.558670 0.500000 -0.363530
V1    V     V_3+5 0.935650 0.489120 0.500000 1.452620
O8    O     O_R   0.324110 0.594460 0.413440 -0.520931
C3    C     C_R   0.154221 0.615753 0.383826 0.799148
O9    O     O_R   0.323980 0.595380 0.586550 -0.551270
C4    C     C_R   0.155324 0.616352 0.616552 0.649832
V2    V     V_3+5 0.435660 0.510880 0.500000 1.456158
O10   O     O_3   0.160640 0.441330 0.500000 -0.376485
C5    C     C_3   0.981373 0.660850 0.749962 -0.323014
H1    H     H_    0.839418 0.659089 0.717452 0.140017
H2    H     H_    0.007522 0.590894 0.775182 0.136907
C6    C     C_3   0.971388 0.730668 0.823340 -0.332633
H3    H     H_    0.000521 0.694161 0.883032 0.146895
H4    H     H_    0.823303 0.758659 0.829289 0.153362
H5    H     H_    0.965384 0.780097 0.614623 0.134555
C7    C     C_3   0.099973 0.783135 0.651944 -0.391585
C8    C     C_3   0.336835 0.690827 0.737216 -0.336537
C9    C     C_3   0.144117 0.686256 0.687267 0.081028
H6    H     H_    0.456285 0.711693 0.695136 0.138242
H7    H     H_    0.373333 0.621725 0.761997 0.147630
C10   C     C_3   0.122169 0.808408 0.811997 0.028945
C11   C     C_3   0.095585 0.855735 0.724954 0.388781
C12   C     C_3   0.323105 0.760117 0.810721 -0.410927
H8    H     H_    0.348240 0.723736 0.870810 0.168883
H9    H     H_    0.440498 0.811531 0.804526 0.142429
H10   H     H_    0.214816 0.802367 0.606804 0.096021
H11   H     H_    0.228604 0.897306 0.716013 0.055050
C13   C     C_R   0.292258 0.795632 0.224098 0.152706
C14   C     C_R   0.123321 0.809150 0.177664 -0.178607
C15   C     C_R   0.969322 0.748459 0.192128 -0.216395
H12   H     H_    0.840676 0.752331 0.153742 0.168691
C16   C     C_R   0.977589 0.682965 0.256786 0.280237
C17   C     C_R   0.141622 0.678681 0.310866 -0.176911
C18   C     C_R   0.300338 0.732893 0.289118 0.173898
C19   C     C_3   0.422383 0.794821 0.341666 -0.433725
C20   C     C_3   0.414612 0.863271 0.270203 -0.434176
H13   H     H_    0.569045 0.766497 0.352466 0.207234
H14   H     H_    0.346769 0.818942 0.398891 0.149321
H15   H     H_    0.556542 0.873545 0.239501 0.181652
H16   H     H_    0.335571 0.927378 0.286062 0.158332
C21   C     C_R   0.493271 0.316237 0.741447 0.106356
C22   C     C_R   0.647733 0.317185 0.685210 -0.108468
C23   C     C_R   0.798839 0.254486 0.699263 -0.182118
H17   H     H_    0.920936 0.252538 0.657537 0.133675
C24   C     C_R   0.787342 0.189135 0.763666 -0.167266
H18   H     H_    0.901680 0.139162 0.769965 0.154519
C25   C     C_R   0.624046 0.184318 0.815700 -0.119008
C26   C     C_R   0.481411 0.251271 0.804952 0.113144
C27   C     C_3   0.269967 0.239476 0.792283 -0.413213
C28   C     C_3   0.282729 0.310810 0.723631 -0.397756
H19   H     H_    0.185213 0.262978 0.847126 0.167384
H20   H     H_    0.233683 0.169789 0.768656 0.172673
H21   H     H_    0.206724 0.375817 0.739145 0.166313
H22   H     H_    0.252649 0.282805 0.660202 0.168553
C29   C     C_R   0.508525 0.322737 0.250254 0.066475
C30   C     C_R   0.648416 0.316837 0.313252 -0.120458
C31   C     C_R   0.794230 0.250453 0.301498 -0.160534
H23   H     H_    0.911545 0.244934 0.345961 0.112344
C32   C     C_R   0.783191 0.186316 0.235078 -0.169061
H24   H     H_    0.892194 0.133298 0.230999 0.115581
C33   C     C_R   0.627264 0.187394 0.177782 -0.152395
C34   C     C_R   0.500257 0.261912 0.183653 0.030259
C35   C     C_3   0.287060 0.273018 0.173932 0.296930
C36   C     C_3   0.296287 0.337612 0.250047 0.132168
H25   H     H_    0.204697 0.208789 0.186239 0.002456
H26   H     H_    0.226190 0.309436 0.306758 0.033117
O11   O     O_R   0.771490 0.080820 0.910070 -0.534022
O12   O     O_R   0.441590 0.092730 0.083780 -0.552334
O13   O     O_R   0.271350 0.913900 0.084390 -0.533656
C37   C     C_R   0.611167 0.116086 0.111747 0.698007
O14   O     O_R   0.441780 0.091820 0.910670 -0.547592
O15   O     O_R   0.271540 0.912980 0.910040 -0.548060
C38   C     C_R   0.610650 0.113747 0.881796 0.706718
O16   O     O_R   0.771300 0.081740 0.084420 -0.544838
O17   O     O_3   0.604960 0.938700 0.997240 -0.365689
V3    V     V_3+5 0.330090 0.008230 0.997220 1.377918
O18   O     O_R   0.941820 0.901930 0.910640 -0.526286
C39   C     C_R   0.111027 0.878478 0.882684 0.720635
O19   O     O_R   0.941630 0.902840 0.083750 -0.545639
C40   C     C_R   0.110958 0.880759 0.112463 0.716596
V4    V     V_3+5 0.830090 0.986410 0.997190 1.409857
O20   O     O_3   0.105080 0.055990 0.997200 -0.387928
Br1   Br    Br    0.760157 0.601551 0.264381 -0.485550
O21   O     O_3   0.241986 0.322153 0.100155 -0.511115
C41   C     C_3   0.141630 0.266443 0.042818 -0.096515
H27   H     H_    0.241996 0.216996 0.013210 0.146732
H28   H     H_    0.083451 0.310833 0.992581 0.133642
H29   H     H_    0.016431 0.231185 0.071877 0.128397
Br2   Br    Br    0.234158 0.464807 0.226759 -0.408948
O22   O     O_3   0.945021 0.922656 0.724522 -0.561082
C42   C     C_3   0.764129 0.891542 0.695479 -0.245381
H30   H     H_    0.733850 0.818981 0.710019 0.121258
H31   H     H_    0.752868 0.902712 0.627042 0.139115
H32   H     H_    0.650085 0.933393 0.725678 0.145757

loop_
_geom_bond_atom_site_label_1
_geom_bond_atom_site_label_2
_ccdc_geom_bond_type
C28   H22   S    
O19   C40   A    
C8    C12   S    
C41   H27   S    
C17   C18   A    
C14   C40   S    
C13   C18   A    
O15   V3    S    
O12   V3    S    
O18   C39   A    
C8    H7    S    
C10   C11   S    
O16   V4    S    
C11   H11   S    
C5    C9    S    
C13   C14   A    
C14   C15   A    
O12   C37   A    
O5    C3    A    
C15   H12   S    
C27   H19   S    
V2    O10   S    
C5    C6    S    
C26   C27   S    
O15   C39   A    
O8    V2    S    
C35   O21   S    
C12   H8    S    
O13   C40   A    
C31   C32   A    
H5    C7    S    
C12   H9    S    
C34   C35   S    
O1    V2    S    
C25   C38   S    
O7    V1    S    
C20   H15   S    
C1    O6    A    
C6    C10   S    
C28   H21   S    
C41   H28   S    
O9    C4    A    
C33   C37   S    
V3    O20   S    
C5    H1    S    
C36   Br2   S    
C24   C25   A    
O17   V4    S    
C23   H17   S    
C36   H26   S    
O4    C2    A    
O18   V4    S    
O11   C38   A    
C27   H20   S    
O13   V3    S    
C8    C9    S    
C24   H18   S    
C7    H10   S    
C21   C28   S    
C32   H24   S    
C1    C22   S    
C23   C24   A    
O2    C1    A    
C19   C20   S    
C3    C17   S    
C37   O16   A    
O17   V3    S    
C29   C34   A    
C6    H3    S    
C25   C26   A    
C22   C23   A    
C4    C9    S    
C19   H13   S    
C10   C39   S    
O3    C4    A    
C16   C17   A    
C42   H31   S    
C6    H4    S    
O22   C42   S    
C41   H29   S    
O19   V4    S    
C13   C20   S    
C8    H6    S    
C18   C19   S    
O2    V1    S    
C35   H25   S    
O1    C2    A    
C7    C9    S    
O5    V1    S    
O8    C3    A    
O6    V2    S    
C21   C26   A    
C11   O22   S    
O14   C38   A    
C42   H30   S    
C30   C31   A    
O9    V2    S    
O7    V2    S    
C35   C36   S    
C10   C12   S    
O3    V1    S    
V1    O10   S    
C15   C16   A    
C27   C28   S    
O14   V3    S    
O21   C41   S    
C5    H2    S    
C31   H23   S    
C16   Br1   S    
C33   C34   A    
C19   H14   S    
C7    C11   S    
C2    C30   S    
O11   V4    S    
C29   C30   A    
O4    V1    S    
C42   H32   S    
C29   C36   S    
C21   C22   A    
C32   C33   A    
V4    O20   S    
C20   H16   S    
