data_mof_unit_6366.cif
_audit_creation_date              2012-12-10T17:40:26-0500
_audit_creation_method            fapswitch 2.2
_symmetry_space_group_name_H-M    P1
_symmetry_Int_Tables_number       1
_space_group_crystal_system       triclinic
_cell_length_a                    13.703571
_cell_length_b                    15.034601
_cell_length_c                    15.811974
_cell_angle_alpha                 89.441542
_cell_angle_beta                  69.872653
_cell_angle_gamma                 89.805865
_cell_volume                      3058.61203258

loop_
_atom_site_label
_atom_site_type_symbol
_atom_type_description
_atom_site_fract_x
_atom_site_fract_y
_atom_site_fract_z
_atom_type_partial_charge
C1    C     C_R   0.500259 0.670963 0.498987 0.870649
C2    C     C_R   0.499601 0.328991 0.501359 0.875830
C3    C     C_R   0.380874 0.453380 0.093730 -0.244013
C4    C     C_R   0.627490 0.489278 0.902544 -0.220425
C5    C     C_R   0.309229 0.446572 0.050010 -0.229734
C6    C     C_R   0.699939 0.488940 0.945953 -0.233910
C7    C     C_R   0.477755 0.185868 0.582376 0.337916
C8    C     C_R   0.526162 0.813919 0.417601 0.342230
C9    C     C_R   0.500146 0.232684 0.500654 -0.197454
C10   C     C_R   0.499815 0.767193 0.499668 -0.194138
C11   C     C_R   0.522638 0.187905 0.418397 0.024066
C12   C     C_R   0.473371 0.811968 0.582213 0.027379
C13   C     C_R   0.522289 0.094578 0.418027 0.126300
C14   C     C_R   0.472608 0.905269 0.582627 0.127435
C15   C     C_R   0.498018 0.046825 0.500301 -0.018520
C16   C     C_R   0.497859 0.953008 0.500258 -0.018724
C17   C     C_R   0.473963 0.092593 0.582646 0.022038
C18   C     C_R   0.523102 0.907208 0.417824 0.023309
C19   C     C_R   0.545207 0.047890 0.337026 -0.177347
C20   C     C_R   0.446536 0.951935 0.663860 -0.177392
C21   C     C_R   0.545480 0.955467 0.336967 -0.200624
C22   C     C_R   0.446921 0.044320 0.663855 -0.204410
C23   C     C_R   0.436996 0.499672 0.672488 0.824035
C24   C     C_R   0.563048 0.498771 0.327514 0.821415
C25   C     C_R   0.233255 0.542086 0.432101 0.044870
C26   C     C_R   0.766583 0.459230 0.568597 0.032179
C27   C     C_R   0.179861 0.458357 0.568337 0.020807
C28   C     C_R   0.820371 0.540523 0.430870 0.035273
C29   C     C_R   0.075901 0.456815 0.570085 -0.093011
C30   C     C_R   0.924752 0.541108 0.428240 -0.065367
C31   C     C_R   0.052028 0.498836 0.499367 0.023623
C32   C     C_R   0.948688 0.499100 0.498939 0.015564
C33   C     C_R   0.131279 0.541825 0.429791 -0.038255
C34   C     C_R   0.868871 0.458199 0.569916 -0.044641
C35   C     C_R   0.995325 0.414969 0.640631 0.455235
C36   C     C_R   0.004940 0.582306 0.356953 0.448429
C37   C     C_R   0.892557 0.417651 0.640852 -0.288973
C38   C     C_R   0.107201 0.584209 0.359897 -0.307386
C39   C     C_R   0.399521 0.493200 0.771135 -0.090692
C40   C     C_R   0.601035 0.493683 0.228815 -0.118337
C41   C     C_R   0.264484 0.456982 0.913473 0.155420
C42   C     C_R   0.741674 0.490117 0.084867 0.155860
C43   C     C_R   0.296355 0.471155 0.820131 -0.216474
C44   C     C_R   0.707303 0.491797 0.178797 -0.176003
C45   C     C_R   0.470938 0.502633 0.815478 -0.269842
C46   C     C_R   0.528866 0.489967 0.184649 -0.258819
C47   C     C_R   0.444070 0.483216 0.907611 0.050118
C48   C     C_R   0.560170 0.482849 0.090716 0.064386
C49   C     C_R   0.338559 0.462574 0.957429 0.138483
C50   C     C_R   0.668122 0.487181 0.039962 0.106650
C51   C     C_R   0.519538 0.483545 0.951176 0.085268
C52   C     C_R   0.486279 0.474224 0.046256 0.084594
Cu1   Cu    Cu3+1 0.402580 0.500010 0.499990 0.950511
Cu2   Cu    Cu3+1 0.597420 0.499990 0.500010 0.926192
H1    H     H_    0.230044 0.429000 0.089889 0.169389
H2    H     H_    0.781343 0.491498 0.904613 0.159810
H3    H     H_    0.294482 0.575962 0.379420 0.135092
H4    H     H_    0.705101 0.427288 0.622556 0.114799
H5    H     H_    0.200349 0.426210 0.621401 0.154442
H6    H     H_    0.799785 0.572443 0.377727 0.154910
H7    H     H_    0.831220 0.387828 0.696801 0.143211
H8    H     H_    0.167996 0.619318 0.307902 0.145576
H9    H     H_    0.447870 0.495907 0.224896 0.157345
H10   H     H_    0.547716 0.525332 0.776153 0.158882
H11   H     H_    0.764038 0.493799 0.212471 0.164878
H12   H     H_    0.240930 0.463754 0.785625 0.159624
H13   H     H_    0.351887 0.437659 0.164719 0.146393
H14   H     H_    0.659535 0.490065 0.830061 0.140545
H15   H     H_    0.563439 0.082462 0.273048 0.179116
H16   H     H_    0.425953 0.917379 0.728027 0.178406
H17   H     H_    0.563752 0.922029 0.273031 0.178489
H18   H     H_    0.426277 0.077681 0.727991 0.177799
N1    N     N_R   0.256170 0.500070 0.500040 -0.192516
N2    N     N_R   0.743830 0.499930 0.499960 -0.192401
O1    O     O_R   0.417730 0.629750 0.499970 -0.563704
O2    O     O_R   0.582270 0.370250 0.500030 -0.594960
O3    O     O_R   0.582270 0.629730 0.499980 -0.598053
O4    O     O_R   0.417730 0.370270 0.500020 -0.579101
O5    O     O_R   0.371590 0.500020 0.629830 -0.590352
O6    O     O_R   0.628410 0.499980 0.370170 -0.601898
O7    O     O_R   0.536130 0.499990 0.629840 -0.598247
O8    O     O_R   0.463870 0.500010 0.370160 -0.591449
O9    O     O_3   0.014510 0.377128 0.713466 -0.631430
C53   C     C_3   0.046792 0.287765 0.694213 0.038322
H19   H     H_    0.102584 0.272588 0.729382 0.177766
H20   H     H_    0.089276 0.275394 0.621142 0.127765
C54   C     C_3   0.953789 0.224602 0.730200 -0.351799
H21   H     H_    0.911323 0.238565 0.802507 0.232226
H22   H     H_    0.899779 0.235326 0.692383 0.208654
C55   C     C_3   0.988597 0.127582 0.720384 -0.896400
H23   H     H_    0.030131 0.111906 0.648378 0.258526
H24   H     H_    0.919562 0.083587 0.746471 0.254591
H25   H     H_    0.040807 0.114199 0.759428 0.259807
O10   O     O_3   0.979114 0.627957 0.290672 -0.633644
C56   C     C_3   0.046404 0.607499 0.202496 0.032579
H26   H     H_    0.997782 0.582689 0.164165 0.168574
H27   H     H_    0.104097 0.553851 0.199062 0.126953
C57   C     C_3   0.101869 0.692342 0.156446 -0.323877
H28   H     H_    0.043099 0.743734 0.157177 0.228679
H29   H     H_    0.150593 0.718505 0.194038 0.216645
C58   C     C_3   0.170644 0.675586 0.059150 -0.915747
H30   H     H_    0.231398 0.625734 0.056763 0.265509
H31   H     H_    0.209440 0.738496 0.028140 0.260804
H32   H     H_    0.123145 0.651593 0.019518 0.254659
N3    N     N_3   0.158093 0.434063 0.963181 -0.600817
H33   H     H_    0.116194 0.425619 0.919651 0.230105
H34   H     H_    0.124293 0.487969 0.004122 0.212393
N4    N     N_3   0.851563 0.491799 0.037114 -0.617691
H35   H     H_    0.869520 0.548368 0.995687 0.214193
H36   H     H_    0.872047 0.435151 0.996992 0.228155
O11   O     O_3   0.452938 0.231636 0.662695 -0.619615
C59   C     C_3   0.543474 0.241204 0.685553 0.025309
H37   H     H_    0.588614 0.299399 0.648811 0.167982
H38   H     H_    0.594650 0.181199 0.669032 0.135264
C60   C     C_3   0.511616 0.256846 0.786771 -0.312742
H39   H     H_    0.457313 0.314021 0.805850 0.243732
H40   H     H_    0.470499 0.197113 0.823954 0.212805
C61   C     C_3   0.605936 0.275516 0.814176 -0.923827
H41   H     H_    0.659928 0.217863 0.797970 0.252411
H42   H     H_    0.580173 0.287461 0.887800 0.271747
H43   H     H_    0.647601 0.335432 0.778200 0.242876
O12   O     O_3   0.549669 0.768136 0.337398 -0.618776
C62   C     C_3   0.658310 0.754444 0.301021 0.030415
H44   H     H_    0.679809 0.696365 0.335000 0.167683
H45   H     H_    0.703409 0.813697 0.308732 0.141935
C63   C     C_3   0.688786 0.735404 0.200514 -0.328369
H46   H     H_    0.643323 0.677999 0.190533 0.236288
H47   H     H_    0.670052 0.794205 0.165774 0.214073
C64   C     C_3   0.804567 0.715004 0.158517 -0.892038
H48   H     H_    0.851278 0.773176 0.164762 0.253789
H49   H     H_    0.823909 0.699895 0.085997 0.255141
H50   H     H_    0.825081 0.656568 0.192444 0.268422
N5    N     N_3   0.546489 0.236803 0.335127 -0.600310
H51   H     H_    0.483161 0.277464 0.338739 0.230528
H52   H     H_    0.610903 0.277374 0.327284 0.222661
N6    N     N_3   0.447002 0.763077 0.665679 -0.602427
H53   H     H_    0.383413 0.722099 0.671708 0.224526
H54   H     H_    0.510063 0.722816 0.663798 0.227415

loop_
_geom_bond_atom_site_label_1
_geom_bond_atom_site_label_2
_ccdc_geom_bond_type
C54   H21   S    
C42   C44   A    
C58   H30   S    
C27   C29   A    
C34   C37   A    
C1    O3    A    
C56   H26   S    
C53   C54   S    
C28   N2    A    
C59   H38   S    
C56   C57   S    
C62   H44   S    
C47   C49   A    
Cu1   Cu2   S    
C40   C46   A    
N3    H34   S    
C63   H46   S    
C41   N3    S    
C21   H17   S    
C19   C21   A    
C53   H20   S    
C11   N5    S    
C62   H45   S    
C60   H39   S    
C18   C21   A    
N4    H35   S    
Cu1   O5    S    
C15   C17   A    
C45   C47   A    
C22   H18   S    
C24   O8    A    
C61   H41   S    
C24   C40   S    
Cu2   N2    S    
C26   C34   A    
C47   C51   A    
O9    C53   S    
C7    O11   S    
C60   H40   S    
C31   C33   A    
C39   C45   A    
Cu2   O3    S    
C48   C50   A    
C58   H31   S    
C41   C43   A    
C20   H16   S    
C44   H11   S    
Cu1   O1    S    
C25   H3    S    
C41   C49   A    
C59   H37   S    
C24   O6    A    
Cu2   O6    S    
C28   H6    S    
C46   C48   A    
C13   C19   A    
C4    C51   A    
C51   C52   A    
C1    O1    A    
C14   C20   A    
C53   H19   S    
C4    C6    A    
C4    H14   S    
C35   O9    S    
C62   C63   S    
C39   C43   A    
C63   C64   S    
C7    C17   A    
C8    C18   A    
C38   H8    S    
Cu1   O8    S    
C61   H43   S    
C32   C34   A    
C2    O4    A    
C26   H4    S    
C55   H24   S    
C31   C32   A    
C40   C44   A    
C60   C61   S    
C16   C18   A    
C6    C50   A    
C9    C11   A    
C10   C12   A    
C42   C50   A    
Cu2   O2    S    
N6    H54   S    
C12   C14   A    
C58   H32   S    
C57   H29   S    
C13   C15   A    
N5    H51   S    
C14   C16   A    
C19   H15   S    
C20   C22   A    
C2    O2    A    
C55   H25   S    
C64   H48   S    
C7    C9    A    
C63   H47   S    
C23   O7    A    
O11   C59   S    
C35   C37   A    
C5    H1    S    
Cu1   N1    S    
C1    C10   S    
C33   C38   A    
C6    H2    S    
N6    H53   S    
C3    C5    A    
C37   H7    S    
C3    C52   A    
C56   H27   S    
C57   C58   S    
N3    H33   S    
C29   C35   A    
C45   H10   S    
C17   C22   A    
C30   C36   A    
C46   H9    S    
C64   H50   S    
C28   C30   A    
Cu1   O4    S    
C29   C31   A    
C27   H5    S    
C30   C32   A    
C11   C13   A    
C8    O12   S    
C55   H23   S    
C3    H13   S    
C43   H12   S    
C23   C39   S    
C36   C38   A    
C26   N2    A    
N4    H36   S    
C25   N1    A    
C59   C60   S    
O10   C56   S    
C61   H42   S    
C5    C49   A    
C36   O10   S    
C48   C52   A    
C8    C10   A    
C57   H28   S    
C12   N6    S    
C54   C55   S    
N5    H52   S    
C54   H22   S    
C23   O5    A    
O12   C62   S    
C27   N1    A    
C2    C9    S    
C42   N4    S    
Cu2   O7    S    
C15   C16   A    
C25   C33   A    
C64   H49   S    
