data_mof_unit_25445.cif
_audit_creation_date              2013-03-05T16:31:29-0500
_audit_creation_method            fapswitch 2.2
_symmetry_space_group_name_H-M    P1
_symmetry_Int_Tables_number       1
_space_group_crystal_system       triclinic
_cell_length_a                    15.075385
_cell_length_b                    10.847866
_cell_length_c                    9.59265
_cell_angle_alpha                 89.269417
_cell_angle_beta                  89.747469
_cell_angle_gamma                 91.333163
_cell_volume                      1568.17177331

loop_
_atom_site_label
_atom_site_type_symbol
_atom_site_description
_atom_site_fract_x
_atom_site_fract_y
_atom_site_fract_z
_atom_type_partial_charge
O1    O     O_R   0.500000 0.319640 0.618810 -0.542079
O2    O     O_R   0.500010 0.319680 0.381230 -0.593131
C1    C     C_R   0.500857 0.262275 0.500562 0.818047
O3    O     O_R   0.370250 0.499950 0.618800 -0.518908
O4    O     O_R   0.370260 0.499990 0.381220 -0.597365
C2    C     C_R   0.328833 0.499697 0.500077 0.863717
Cu1   Cu    Cu3+1 0.500000 0.499980 0.640670 1.024825
Cu2   Cu    Cu3+1 0.500000 0.500020 0.359330 0.965621
O5    O     O_R   0.499990 0.680320 0.618770 -0.566764
O6    O     O_R   0.500000 0.680360 0.381190 -0.585833
O7    O     O_R   0.629740 0.500010 0.618780 -0.593465
O8    O     O_R   0.629750 0.500050 0.381200 -0.594852
C3    C     C_R   0.502331 0.737358 0.499242 0.834696
C4    C     C_R   0.671291 0.499633 0.499620 0.786362
C5    C     C_R   0.815729 0.540987 0.613396 -0.214747
C6    C     C_R   0.768266 0.498279 0.498408 -0.086083
C7    C     C_R   0.813485 0.454257 0.382096 -0.160529
C8    C     C_R   0.906435 0.453458 0.378609 -0.027302
C9    C     C_R   0.953731 0.495946 0.496214 0.017424
C10   C     C_R   0.907896 0.539589 0.613897 0.137132
C11   C     C_R   0.952916 0.410755 0.261240 0.286461
C12   C     C_R   0.046240 0.409749 0.261740 0.265090
C13   C     C_R   0.093328 0.452691 0.379397 -0.068136
C14   C     C_R   0.046756 0.495379 0.496763 0.014337
C15   C     C_R   0.093287 0.538681 0.614973 0.116469
C16   C     C_R   0.046949 0.581599 0.730735 -0.095634
C17   C     C_R   0.954735 0.581905 0.730300 -0.153477
C18   C     C_R   0.186259 0.456283 0.381749 -0.143642
C19   C     C_R   0.232083 0.498186 0.499433 -0.095485
C20   C     C_R   0.185585 0.539241 0.615501 -0.104261
H1    H     H_    0.781129 0.577106 0.701864 0.143058
H2    H     H_    0.775456 0.419030 0.295777 0.189558
H3    H     H_    0.223745 0.426399 0.292378 0.198867
H4    H     H_    0.221286 0.574004 0.705188 0.206084
H5    H     H_    0.082091 0.615210 0.821485 0.187795
H6    H     H_    0.919993 0.615378 0.820943 0.164660
C21   C     C_R   0.507718 0.060916 0.625127 0.017185
C22   C     C_R   0.508538 0.128949 0.500531 -0.055084
C23   C     C_R   0.522438 0.066411 0.374690 -0.177977
H7    H     H_    0.528716 0.116103 0.276366 0.168134
C24   C     C_R   0.523517 0.937711 0.373731 -0.190016
H8    H     H_    0.530189 0.891412 0.274989 0.162655
C25   C     C_R   0.510801 0.870458 0.498654 -0.043093
C26   C     C_R   0.508846 0.934091 0.624051 0.021266
C27   C     C_3   0.447905 0.921021 0.747057 0.205627
C28   C     C_3   0.444496 0.060690 0.745639 -0.377732
H9    H     H_    0.481237 0.882277 0.840451 0.115071
H10   H     H_    0.378447 0.094672 0.714970 0.275623
H11   H     H_    0.474193 0.103203 0.839928 0.179802
C29   C     C_R   0.562695 0.566370 0.072135 0.224721
N1    N     N_R   0.500570 0.500930 0.147930 -0.217523
C30   C     C_R   0.432079 0.448248 0.077359 -0.109465
H12   H     H_    0.378501 0.403238 0.135296 0.184728
C31   C     C_R   0.430621 0.449191 0.929464 0.394454
N2    N     N_R   0.500570 0.500890 0.852020 -0.241265
C32   C     C_R   0.562500 0.566986 0.925243 0.179962
C33   C     C_3   0.660502 0.553754 0.919580 -0.468411
C34   C     C_3   0.660346 0.550240 0.077293 -0.440080
H13   H     H_    0.681031 0.465360 0.873262 0.233837
H14   H     H_    0.693716 0.638569 0.876773 0.185412
H15   H     H_    0.677997 0.458407 0.119707 0.225640
H16   H     H_    0.695771 0.630393 0.124363 0.199907
Cl1   Cl    Cl    0.342683 0.849415 0.708531 -0.582601
N3    N     N_R   0.353077 0.398090 0.865192 0.136314
O9    O     O_R   0.275228 0.426380 0.912482 -0.330153
O10   O     O_R   0.359263 0.303371 0.785189 -0.363274
Cl2   Cl    Cl    0.895521 0.354845 0.113262 -0.571548
N4    N     N_R   0.092700 0.363680 0.143054 0.165817
O11   O     O_R   0.139410 0.264767 0.154887 -0.305513
O12   O     O_R   0.083923 0.415906 0.021242 -0.280931

loop_
_geom_bond_atom_site_label_1
_geom_bond_atom_site_label_2
_geom_bond_distance
_ccdc_geom_bond_type
C34   H16   1.111585 S    
O4    Cu2   1.966193 S    
C25   C26   1.395038 A    
C14   C15   1.415560 A    
C5    H1    1.076981 S    
C19   C20   1.396297 A    
N1    C30   1.356306 A    
C10   C17   1.400389 A    
C17   H6    1.084017 S    
C8    C11   1.412321 A    
C29   C32   1.409023 A    
C24   H8    1.083148 S    
C31   N2    1.390446 A    
C9    C10   1.413497 A    
Cu2   N1    2.027764 S    
Cu1   N2    2.027612 S    
N2    C32   1.366228 A    
N3    O9    1.301128 A    
C34   H15   1.109813 S    
C30   H12   1.081876 S    
C9    C14   1.402573 A    
C16   C17   1.390267 A    
Cu1   Cu2   2.698791 S    
C23   C24   1.396736 A    
O1    Cu1   1.970167 S    
C11   C12   1.407219 A    
C11   Cl2   1.771964 S    
Cu1   O7    1.966190 S    
C24   C25   1.405057 A    
C28   H11   1.111670 S    
C12   N4    1.435375 S    
C33   C34   1.512868 S    
C21   C22   1.396518 A    
C31   N3    1.427902 S    
C21   C26   1.376455 A    
O3    Cu1   1.968163 S    
O4    C2    1.297513 A    
O3    C2    1.301209 A    
C18   C19   1.401294 A    
C21   C28   1.494959 S    
O8    C4    1.299576 A    
C18   H3    1.082022 S    
C7    C8    1.401743 A    
C28   H10   1.109409 S    
C27   H9    1.111744 S    
C5    C10   1.389911 A    
C7    H2    1.078153 S    
O7    C4    1.301113 A    
C4    C6    1.462341 S    
C33   H13   1.111810 S    
C20   H4    1.083959 S    
C13   C14   1.412926 A    
C5    C6    1.395658 A    
C29   C34   1.487493 S    
C27   C28   1.517061 S    
C16   H5    1.083800 S    
C3    C25   1.446454 S    
C2    C19   1.458291 S    
C22   C23   1.409474 A    
C32   C33   1.488512 S    
Cu2   O6    1.970167 S    
C8    C9    1.413708 A    
C15   C20   1.391342 A    
Cu1   O5    1.964889 S    
N4    O12   1.300712 A    
O5    C3    1.295874 A    
C23   H7    1.083054 S    
C6    C7    1.399886 A    
C33   H14   1.110392 S    
O2    C1    1.296388 A    
C29   N1    1.363679 A    
C15   C16   1.399760 A    
C13   C18   1.400892 A    
C27   Cl1   1.792022 S    
C12   C13   1.414151 A    
O2    Cu2   1.964889 S    
C26   C27   1.495499 S    
Cu2   O8    1.968161 S    
C1    C22   1.453621 S    
C30   C31   1.418877 A    
N4    O11   1.301077 A    
O1    C1    1.300891 A    
O6    C3    1.297362 A    
N3    O10   1.295128 A    
