data_mof_unit_65372.cif
_audit_creation_date              2012-10-26T18:49:07-0400
_audit_creation_method            fapswitch 2.2
_symmetry_space_group_name_H-M    P1
_symmetry_Int_Tables_number       1
_space_group_crystal_system       triclinic
_cell_length_a                    10.836346
_cell_length_b                    10.927192
_cell_length_c                    9.769076
_cell_angle_alpha                 90.833011
_cell_angle_beta                  90.660283
_cell_angle_gamma                 90.804476
_cell_volume                      1156.448593

loop_
_atom_site_label
_atom_site_type_symbol
_atom_type_description
_atom_site_fract_x
_atom_site_fract_y
_atom_site_fract_z
_atom_type_partial_charge
C1    C     C_R   0.502116 0.265671 0.498816 0.577564
C2    C     C_2   0.441757 0.420835 0.069546 0.246174
C3    C     C_R   0.259964 0.499775 0.499394 0.605966
C4    C     C_R   0.505728 0.734244 0.501610 0.566593
C5    C     C_R   0.739810 0.504358 0.501023 0.617492
C6    C     C_3   0.072940 0.484257 0.649362 0.691016
C7    C     C_3   0.930357 0.493771 0.653865 0.476180
C8    C     C_3   0.075216 0.626260 0.447150 0.211723
C9    C     C_3   0.065738 0.395900 0.401801 0.086679
C10   C     C_3   0.121504 0.500299 0.498966 -0.144202
C11   C     C_3   0.877894 0.505621 0.502805 -0.106769
C12   C     C_3   0.931586 0.627415 0.440036 0.316559
C13   C     C_3   0.922733 0.391480 0.418384 0.625346
C14   C     C_2   0.531901 0.932840 0.397126 -0.063001
C15   C     C_2   0.526640 0.865211 0.509631 0.461093
C16   C     C_2   0.554415 0.064543 0.406051 0.085999
C17   C     C_2   0.490781 0.133927 0.495099 0.443463
C18   C     C_2   0.417070 0.446575 0.921722 0.157739
Cu1   Cu    Cu3+1 0.500030 0.500020 0.638630 1.300760
Cu2   Cu    Cu3+1 0.499970 0.499980 0.361370 1.137040
F1    F     F_    0.126321 0.572756 0.735556 -0.524844
F2    F     F_    0.886904 0.285641 0.484607 -0.492547
F3    F     F_    0.865192 0.385433 0.291052 -0.535119
F4    F     F_    0.551945 0.915693 0.635471 -0.514398
F5    F     F_    0.403468 0.083504 0.577004 -0.536872
F6    F     F_    0.614203 0.494108 0.896737 -0.477133
F7    F     F_    0.108497 0.372003 0.699879 -0.514100
F8    F     F_    0.882918 0.388320 0.712565 -0.473091
F9    F     F_    0.119421 0.720642 0.531662 -0.488464
F10   F     F_    0.889539 0.727590 0.513158 -0.537962
H1    H     H_    0.113823 0.644928 0.344840 0.157097
H2    H     H_    0.524693 0.891082 0.296021 0.121246
H3    H     H_    0.331903 0.412886 0.874471 0.158151
I1    I     I_    0.871626 0.667240 0.233110 0.006353
I2    I     I_    0.694585 0.131112 0.274790 0.064281
I3    I     I_    0.387022 0.240118 0.119180 -0.107447
I4    I     I_    0.517105 0.681275 0.086117 -0.004843
I5    I     I_    0.875047 0.638573 0.797253 0.271717
I6    I     I_    0.108575 0.422256 0.185385 -0.077806
I7    I     I_    0.145144 0.217932 0.440565 0.139863
N1    N     N_2   0.498630 0.498660 0.846910 0.024830
N2    N     N_2   0.498590 0.498630 0.153040 -0.115649
O1    O     O_R   0.500020 0.321960 0.617040 -0.457511
O2    O     O_R   0.499980 0.321920 0.382900 -0.539484
O3    O     O_R   0.317710 0.500000 0.617070 -0.439229
O4    O     O_R   0.317670 0.499960 0.382930 -0.539577
O5    O     O_R   0.500020 0.678080 0.617100 -0.439588
O6    O     O_R   0.499980 0.678040 0.382960 -0.553845
O7    O     O_R   0.682330 0.500040 0.617070 -0.427882
O8    O     O_R   0.682290 0.500000 0.382930 -0.439561

loop_
_geom_bond_atom_site_label_1
_geom_bond_atom_site_label_2
_ccdc_geom_bond_type
C6    C10   S    
Cu2   N2    S    
C11   C12   S    
Cu1   O3    S    
C6    C7    S    
C2    C18   S    
C9    C10   S    
Cu1   O7    S    
C1    O2    A    
C1    C17   S    
Cu1   Cu2   S    
C8    C12   S    
C17   F5    S    
C4    C15   S    
C3    O3    A    
C3    C10   S    
C6    F1    S    
C7    C11   S    
C11   C13   S    
C5    O7    A    
Cu2   O6    S    
C2    N2    D    
C8    F9    S    
C15   F4    S    
Cu2   O2    S    
C7    I5    S    
Cu1   O1    S    
C13   F2    S    
C5    C11   S    
C14   C16   S    
C16   I2    S    
C18   H3    S    
Cu1   O5    S    
C5    O8    A    
C12   I1    S    
Cu1   N1    S    
C9    I6    S    
C13   F3    S    
C8    C10   S    
C4    O6    A    
C18   N1    D    
C2    I3    S    
I4    N2    S    
C9    C13   S    
C14   C15   D    
Cu2   O8    S    
C3    O4    A    
C12   F10   S    
C8    H1    S    
C1    O1    A    
C9    I7    S    
Cu2   O4    S    
C7    F8    S    
C6    F7    S    
F6    N1    S    
C14   H2    S    
C16   C17   D    
C4    O5    A    
