data_mof_unit_63830.cif
_audit_creation_date              2012-12-10T21:13:09-0500
_audit_creation_method            fapswitch 2.2
_symmetry_space_group_name_H-M    P1
_symmetry_Int_Tables_number       1
_space_group_crystal_system       triclinic
_cell_length_a                    17.283034
_cell_length_b                    16.922242
_cell_length_c                    15.00989
_cell_angle_alpha                 90.419059
_cell_angle_beta                  92.736833
_cell_angle_gamma                 90.895597
_cell_volume                      4384.22211491

loop_
_atom_site_label
_atom_site_type_symbol
_atom_type_description
_atom_site_fract_x
_atom_site_fract_y
_atom_site_fract_z
_atom_type_partial_charge
C1    C     C_R   0.352055 0.499266 0.498999 0.971270
C2    C     C_R   0.647821 0.500671 0.497315 0.976938
C3    C     C_R   0.358157 0.485369 0.039829 -0.176023
C4    C     C_R   0.636273 0.525644 0.962072 -0.190271
C5    C     C_R   0.836099 0.561075 0.394433 0.120458
C6    C     C_R   0.154098 0.435229 0.408597 0.093221
C7    C     C_R   0.142428 0.563207 0.481586 0.077192
C8    C     C_R   0.846595 0.426656 0.449205 0.090947
C9    C     C_R   0.762051 0.566372 0.428314 0.412237
C10   C     C_R   0.229869 0.430110 0.443901 0.350285
C11   C     C_R   0.222239 0.563559 0.506143 0.448693
C12   C     C_R   0.775591 0.433427 0.489807 0.444016
C13   C     C_R   0.730537 0.501606 0.475240 -0.352699
C14   C     C_R   0.266718 0.497094 0.485243 -0.319661
C15   C     C_R   0.878445 0.492148 0.407335 -0.133186
C16   C     C_R   0.110354 0.501194 0.428227 -0.143802
C17   C     C_1   0.960128 0.495285 0.400081 0.128806
C18   C     C_1   0.029195 0.498587 0.407269 0.139056
C19   C     C_R   0.455534 0.832196 0.436788 -0.276496
C20   C     C_R   0.536532 0.166820 0.569332 -0.254638
C21   C     C_R   0.544061 0.834458 0.563403 -0.276440
C22   C     C_R   0.462602 0.164367 0.432171 -0.273029
C23   C     C_R   0.456105 0.748674 0.437168 0.250335
C24   C     C_R   0.536782 0.250431 0.568250 0.303668
C25   C     C_R   0.543787 0.750963 0.562776 0.254796
C26   C     C_R   0.463476 0.247945 0.431816 0.292054
C27   C     C_R   0.499693 0.876157 0.500219 0.085178
C28   C     C_R   0.499230 0.122746 0.501092 0.069499
C29   C     C_1   0.499447 0.963218 0.500648 0.011867
C30   C     C_1   0.499337 0.035670 0.501023 0.018167
C31   C     C_R   0.498756 0.499782 0.326770 0.962182
C32   C     C_R   0.500105 0.500344 0.673212 0.982918
C33   C     C_R   0.567403 0.513954 0.818582 0.466414
C34   C     C_R   0.428022 0.507554 0.181607 0.451994
C35   C     C_R   0.498059 0.500738 0.768792 -0.201710
C36   C     C_R   0.498314 0.499234 0.231244 -0.201965
C37   C     C_R   0.427133 0.489398 0.809184 0.055928
C38   C     C_R   0.568292 0.489263 0.189387 0.072999
C39   C     C_R   0.426511 0.483820 0.902733 0.017809
C40   C     C_R   0.569719 0.502488 0.097505 0.014199
C41   C     C_R   0.497547 0.496592 0.953283 -0.023716
C42   C     C_R   0.498439 0.497985 0.046721 -0.020819
C43   C     C_R   0.567509 0.510889 0.911108 -0.007280
C44   C     C_R   0.427708 0.497897 0.089384 0.002465
C45   C     C_R   0.358064 0.469574 0.949078 0.196128
C46   C     C_R   0.638281 0.521449 0.054316 0.190826
H1    H     H_    0.304008 0.479810 0.072636 0.195742
H2    H     H_    0.689141 0.542046 0.930508 0.209119
H3    H     H_    0.420218 0.862697 0.386799 0.179605
H4    H     H_    0.566083 0.136115 0.623822 0.181222
H5    H     H_    0.579121 0.866751 0.613616 0.179518
H6    H     H_    0.433506 0.131665 0.377635 0.184114
N1    N     N_R   0.500000 0.707230 0.500000 -0.128033
N2    N     N_R   0.500000 0.292770 0.500000 -0.130924
O1    O     O_R   0.389110 0.566570 0.500000 -0.582872
O2    O     O_R   0.610890 0.433430 0.500000 -0.556817
O3    O     O_R   0.610890 0.566570 0.500000 -0.575905
O4    O     O_R   0.389110 0.433430 0.500000 -0.589108
O5    O     O_R   0.499980 0.566550 0.367850 -0.574567
O6    O     O_R   0.500020 0.433450 0.632150 -0.619584
O7    O     O_R   0.500020 0.566550 0.632150 -0.575102
O8    O     O_R   0.499980 0.433450 0.367850 -0.607844
Zn1   Zn    Zn3+2 0.500000 0.588860 0.500000 1.048680
Zn2   Zn    Zn3+2 0.500000 0.411140 0.500000 1.033658
O9    O     O_3   0.631482 0.544213 0.777861 -0.588279
C47   C     C_3   0.681885 0.483004 0.757595 -0.323176
H7    H     H_    0.741649 0.507896 0.759724 0.199010
H8    H     H_    0.667642 0.461813 0.688736 0.204533
H9    H     H_    0.681592 0.432927 0.805502 0.172005
O10   O     O_3   0.362071 0.534116 0.220587 -0.599571
C48   C     C_3   0.320013 0.470171 0.254337 -0.224926
H10   H     H_    0.345492 0.453788 0.320273 0.197026
H11   H     H_    0.316529 0.417899 0.208803 0.178451
H12   H     H_    0.259907 0.489436 0.263761 0.201638
I1    I     I_    0.324490 0.509323 0.727440 -0.226448
I2    I     I_    0.660441 0.428947 0.259537 -0.226419
I3    I     I_    0.259100 0.401156 0.902911 -0.249567
I4    I     I_    0.741737 0.568877 0.117882 -0.198189
I5    I     I_    0.883277 0.655923 0.319806 -0.197536
I6    I     I_    0.107427 0.341059 0.326210 -0.220384
I7    I     I_    0.068526 0.651807 0.531871 -0.290768
I8    I     I_    0.903985 0.315742 0.447047 -0.220545
O11   O     O_3   0.718777 0.632989 0.410705 -0.552808
C49   C     C_3   0.738814 0.690924 0.476338 -0.152426
H13   H     H_    0.794545 0.720750 0.462874 0.179110
H14   H     H_    0.742571 0.666143 0.544878 0.153402
H15   H     H_    0.693600 0.736729 0.474142 0.189660
O12   O     O_3   0.269210 0.360739 0.432129 -0.573476
C50   C     C_3   0.257847 0.312112 0.506557 -0.133050
H16   H     H_    0.290709 0.256957 0.498339 0.180806
H17   H     H_    0.195703 0.295245 0.511348 0.169848
H18   H     H_    0.280016 0.341039 0.569795 0.163500
O13   O     O_3   0.254628 0.621545 0.562772 -0.560851
C51   C     C_3   0.257873 0.695574 0.520024 -0.127371
H19   H     H_    0.222653 0.738399 0.556172 0.195192
H20   H     H_    0.237936 0.694874 0.448232 0.148946
H21   H     H_    0.318426 0.718106 0.525511 0.178221
O14   O     O_3   0.750542 0.374242 0.545241 -0.548759
C52   C     C_3   0.795909 0.378129 0.626391 -0.245863
H22   H     H_    0.807857 0.439865 0.650034 0.116718
H23   H     H_    0.851525 0.347410 0.620721 0.202908
H24   H     H_    0.764875 0.347070 0.678882 0.205524
I9    I     I_    0.383569 0.695134 0.336119 -0.261397
I10   I     I_    0.599607 0.299518 0.679012 -0.341758
I11   I     I_    0.615223 0.701301 0.664507 -0.263081
I12   I     I_    0.406332 0.291957 0.316094 -0.281564

loop_
_geom_bond_atom_site_label_1
_geom_bond_atom_site_label_2
_ccdc_geom_bond_type
C47   H8    S    
O13   C51   S    
C27   C29   S    
C41   C42   A    
C19   C23   A    
C49   H15   S    
C26   I12   S    
C2    O3    A    
C25   I11   S    
C39   C41   A    
C4    C46   A    
C40   C46   A    
C10   O12   S    
C8    I8    S    
C35   C37   A    
C49   H14   S    
C32   O7    A    
C11   C14   A    
C47   H9    S    
C24   N2    A    
C31   O5    A    
O7    Zn1   S    
C2    C13   S    
C9    C13   A    
C20   H4    S    
C23   I9    S    
C52   H22   S    
O1    Zn1   S    
O8    Zn2   S    
O2    Zn2   S    
C23   N1    A    
O10   C48   S    
C50   H17   S    
C19   C27   A    
C34   O10   S    
C12   O14   S    
C39   C45   A    
C11   O13   S    
C40   C42   A    
C47   H7    S    
C37   I1    S    
C22   C28   A    
C41   C43   A    
C31   O8    A    
C42   C44   A    
C26   N2    A    
O3    Zn1   S    
O4    Zn2   S    
C3    C44   A    
C33   O9    S    
C33   C43   A    
C32   C35   S    
C20   C24   A    
C34   C44   A    
C49   H13   S    
C10   C14   A    
C48   H11   S    
C38   I2    S    
C20   C28   A    
C51   H21   S    
C46   I4    S    
C3    C45   A    
C24   I10   S    
C7    C11   A    
C5    C9    A    
C29   C30   T    
C19   H3    S    
C6    I6    S    
O11   C49   S    
C8    C12   A    
C17   C18   T    
C12   C13   A    
C50   H18   S    
C51   H20   S    
C9    O11   S    
C3    H1    S    
C7    C16   A    
C7    I7    S    
O14   C52   S    
C8    C15   A    
C5    I5    S    
C32   O6    A    
C21   H5    S    
C22   H6    S    
C4    H2    S    
C15   C17   S    
C21   C25   A    
C52   H23   S    
C25   N1    A    
C6    C10   A    
C48   H12   S    
C4    C43   A    
O5    Zn1   S    
O6    Zn2   S    
C36   C38   A    
C1    O1    A    
C48   H10   S    
C37   C39   A    
C2    O2    A    
C1    O4    A    
C38   C40   A    
N1    Zn1   S    
N2    Zn2   S    
C28   C30   S    
C33   C35   A    
C34   C36   A    
C21   C27   A    
C51   H19   S    
C5    C15   A    
C6    C16   A    
C52   H24   S    
O12   C50   S    
C16   C18   S    
O9    C47   S    
C22   C26   A    
C31   C36   S    
C45   I3    S    
C1    C14   S    
C50   H16   S    
