data_mof_unit_11956.cif
_audit_creation_date              2012-12-11T16:18:13-0500
_audit_creation_method            fapswitch 2.2
_symmetry_space_group_name_H-M    P1
_symmetry_Int_Tables_number       1
_space_group_crystal_system       triclinic
_cell_length_a                    14.055602
_cell_length_b                    14.062737
_cell_length_c                    30.108948
_cell_angle_alpha                 97.299998
_cell_angle_beta                  97.084508
_cell_angle_gamma                 61.289521
_cell_volume                      5164.07519057

loop_
_atom_site_label
_atom_site_type_symbol
_atom_type_description
_atom_site_fract_x
_atom_site_fract_y
_atom_site_fract_z
_atom_type_partial_charge
C1    C     C_R   0.386664 0.709111 0.441809 0.552769
C2    C     C_R   0.773117 0.270928 0.376081 -0.148271
C3    C     C_3   0.998547 0.555103 0.112438 -0.344969
C4    C     C_3   0.938473 0.451391 0.311329 -0.013591
C5    C     C_3   0.954333 0.527933 0.285259 -0.379508
C6    C     C_R   0.796820 0.248544 0.331199 -0.169907
C7    C     C_R   0.399119 0.381213 0.426370 0.540316
C8    C     C_R   0.811830 0.322003 0.309715 0.039221
C9    C     C_R   0.813059 0.413714 0.334046 0.282724
C10   C     C_R   0.787003 0.437139 0.378808 -0.100494
C11   C     C_R   0.838655 0.391838 0.162064 -0.093188
C12   C     C_R   0.872203 0.386254 0.119522 0.260566
C13   C     C_R   0.879442 0.208704 0.102984 -0.177340
C14   C     C_R   0.850628 0.213516 0.146206 -0.139908
C15   C     C_R   0.391673 0.244333 0.221132 -0.088470
C16   C     C_R   0.833437 0.303800 0.175992 -0.005206
C17   C     C_1   0.822807 0.303139 0.222419 -0.013672
C18   C     C_1   0.817811 0.308262 0.262136 0.009572
C19   C     C_R   0.709389 0.405679 0.442186 0.543586
C20   C     C_R   0.894722 0.292620 0.089631 0.029658
C21   C     C_R   0.370514 0.759888 0.399866 -0.066607
C22   C     C_R   0.461157 0.754090 0.382073 -0.133053
C23   C     C_R   0.455730 0.777775 0.337868 0.231318
C24   C     C_R   0.359181 0.804113 0.310867 0.051893
C25   C     C_R   0.266319 0.814891 0.328674 0.227208
C26   C     C_R   0.402301 0.250067 0.268077 0.282531
C27   C     C_R   0.271806 0.794991 0.373564 -0.130942
C28   C     C_R   0.270970 0.812454 0.149517 -0.102204
C29   C     C_R   0.245107 0.845988 0.105635 0.267732
C30   C     C_R   0.382819 0.906894 0.118359 -0.175614
C31   C     C_R   0.389692 0.711535 0.568277 0.551908
C32   C     C_R   0.404839 0.876516 0.162131 -0.126915
C33   C     C_R   0.346405 0.832747 0.177984 -0.006429
C34   C     C_1   0.354738 0.819868 0.224666 0.003491
C35   C     C_1   0.357527 0.812801 0.264024 0.069853
C36   C     C_R   0.300042 0.896269 0.090278 0.034121
C37   C     C_R   0.334545 0.346971 0.292454 0.043542
C38   C     C_R   0.366306 0.366267 0.592993 -0.008607
C39   C     C_R   0.395837 0.261618 0.606025 0.005224
C40   C     C_R   0.383699 0.251336 0.650566 -0.077290
C41   C     C_R   0.341594 0.343172 0.680928 0.019652
C42   C     C_R   0.304501 0.446450 0.666941 -0.116507
C43   C     C_R   0.401647 0.382894 0.552002 0.519793
C44   C     C_R   0.316404 0.458088 0.623295 -0.129681
C45   C     C_R   0.217024 0.375454 0.827392 0.262068
C46   C     C_R   0.204700 0.361706 0.870879 -0.124441
C47   C     C_R   0.401793 0.268912 0.886520 -0.001685
C48   C     C_R   0.317321 0.335622 0.198618 -0.005000
C49   C     C_R   0.413187 0.280141 0.842067 -0.130291
C50   C     C_R   0.321512 0.328985 0.812439 0.008039
C51   C     C_1   0.333591 0.329530 0.766170 0.012330
C52   C     C_1   0.338658 0.332994 0.727097 -0.010659
C53   C     C_R   0.295991 0.304446 0.900143 -0.060938
C54   C     C_1   0.761600 0.377216 0.612648 -0.002035
C55   C     C_R   0.712660 0.408095 0.568621 0.546385
C56   C     C_R   0.885572 0.369561 0.724020 -0.152254
C57   C     C_R   0.904612 0.356134 0.769995 -0.121183
C58   C     C_R   0.788456 0.271155 0.763916 -0.085762
C59   C     C_1   0.303172 0.324498 0.150656 -0.067172
C60   C     C_R   0.770262 0.282841 0.717531 0.282405
C61   C     C_R   0.817961 0.333771 0.697678 0.036302
C62   C     C_R   0.855624 0.307734 0.790099 -0.014043
C63   C     C_1   0.878281 0.293546 0.837411 -0.044616
C64   C     C_1   0.791624 0.355613 0.651036 -0.021424
C65   C     C_1   0.905895 0.282307 0.876723 0.004088
C66   C     C_1   0.375935 0.757972 0.613684 -0.003255
C67   C     C_1   0.367060 0.364793 0.380426 -0.012828
C68   C     C_R   0.347291 0.732829 0.724784 -0.105112
C69   C     C_R   0.336287 0.752812 0.771027 -0.105121
C70   C     C_1   0.348243 0.355644 0.340550 -0.029263
C71   C     C_R   0.345589 0.920255 0.769629 -0.101581
C72   C     C_R   0.356503 0.900298 0.723334 -0.102322
C73   C     C_R   0.356645 0.806843 0.700802 0.036146
C74   C     C_R   0.335082 0.846748 0.793520 0.037283
C75   C     C_1   0.315585 0.872435 0.840387 -0.052883
C76   C     C_1   0.366583 0.785020 0.653166 -0.051205
C77   C     C_1   0.294198 0.902118 0.878891 -0.006572
C78   C     C_R   0.951211 0.273173 0.048502 0.556503
C79   C     C_R   0.260861 0.438618 0.269836 -0.171081
C80   C     C_R   0.275309 0.270473 0.065351 0.540375
C81   C     C_1   0.291354 0.305422 0.110929 -0.024653
C82   C     C_R   0.260851 0.953735 0.048774 0.562352
C83   C     C_R   0.952301 0.269017 0.922069 0.552994
C84   C     C_R   0.277176 0.267111 0.940169 0.523841
C85   C     C_R   0.261552 0.950815 0.922875 0.550472
C86   C     C_R   0.251755 0.432898 0.222939 -0.136003
C87   C     C_3   0.067652 0.876945 0.095939 -0.003927
C88   C     C_3   0.979211 0.890100 0.058897 -0.353221
C89   C     C_3   0.159937 0.749888 0.287693 -0.011308
C90   C     C_3   0.062812 0.778515 0.253549 -0.376045
C91   C     C_3   0.587048 0.830460 0.337849 -0.007135
C92   C     C_R   0.763065 0.367978 0.399692 -0.024959
C93   C     C_3   0.708391 0.778983 0.332473 -0.361438
C94   C     C_3   0.089659 0.536204 0.801678 -0.016965
C95   C     C_3   0.994118 0.589146 0.767445 -0.373000
C96   C     C_2   0.437632 0.163790 0.573777 0.211219
C97   C     C_2   0.500100 0.221304 0.918015 0.250022
C98   C     C_3   0.760195 0.140572 0.676965 -0.026957
C99   C     C_3   0.685306 0.105444 0.647206 -0.328805
C100  C     C_3   0.578233 0.154113 0.294254 -0.012828
C101  C     C_3   0.660392 0.049491 0.314899 -0.382009
C102  C     C_3   0.975486 0.473548 0.131368 0.008465
Cr1   Cr    Cr6+3 0.581000 0.584320 0.508140 1.036713
Cr2   Cr    Cr6+3 0.339110 0.576430 0.496080 1.018908
Cr3   Cr    Cr6+3 0.579910 0.339270 0.495810 1.019883
Cr4   Cr    Cr6+3 0.082090 0.079210 0.982490 1.038291
Cr5   Cr    Cr6+3 0.082460 0.324610 0.994920 1.025642
Cr6   Cr    Cr6+3 0.323630 0.087860 0.996130 1.028561
H1    H     H_    0.210602 0.514366 0.288498 0.097688
H2    H     H_    0.193125 0.503577 0.205754 0.109394
H3    H     H_    0.123032 0.389740 0.880471 0.150757
H4    H     H_    0.270359 0.517861 0.690334 0.105187
H5    H     H_    0.293046 0.539002 0.614259 0.139686
H6    H     H_    0.493312 0.249279 0.830158 0.165989
H7    H     H_    0.408643 0.172038 0.661931 0.148536
H8    H     H_    0.922387 0.409105 0.709156 0.130336
H9    H     H_    0.441103 0.168298 0.202341 0.117332
H10   H     H_    0.957057 0.384130 0.790043 0.175249
H11   H     H_    0.750278 0.233709 0.779292 0.129139
H12   H     H_    0.846333 0.145062 0.156927 0.114828
H13   H     H_    0.347601 0.660110 0.707634 0.108128
H14   H     H_    0.327235 0.695990 0.789050 0.108926
H15   H     H_    0.343748 0.993724 0.786686 0.122678
H16   H     H_    0.363885 0.957894 0.705152 0.121757
H17   H     H_    0.822503 0.462727 0.185176 0.127283
H18   H     H_    0.779419 0.512558 0.396169 0.138076
H19   H     H_    0.755505 0.215843 0.391282 0.140136
H20   H     H_    0.047454 0.959217 0.112719 0.122932
H21   H     H_    0.066928 0.824702 0.120539 0.114912
H22   H     H_    0.995049 0.809330 0.042127 0.159946
H23   H     H_    0.896157 0.136192 0.080956 0.130843
H24   H     H_    0.898840 0.928857 0.073396 0.085502
H25   H     H_    0.977292 0.942225 0.033646 0.174470
H26   H     H_    0.146017 0.716986 0.316573 0.124610
H27   H     H_    0.233604 0.685759 0.271300 0.131237
H28   H     H_    0.075200 0.809881 0.223895 0.147410
H29   H     H_    0.053390 0.704920 0.242390 0.082794
H30   H     H_    0.987463 0.841555 0.268833 0.157218
H31   H     H_    0.574900 0.853001 0.374340 0.113827
H32   H     H_    0.544221 0.906025 0.319861 0.164692
H33   H     H_    0.723952 0.761628 0.296298 0.167040
H34   H     H_    0.798070 0.176903 0.312600 0.112745
H35   H     H_    0.740490 0.834639 0.348114 0.077585
H36   H     H_    0.751656 0.701949 0.349371 0.193497
H37   H     H_    0.154873 0.554773 0.794701 0.131775
H38   H     H_    0.061906 0.572266 0.835807 0.133803
H39   H     H_    0.926126 0.575103 0.774194 0.154707
H40   H     H_    0.965504 0.678092 0.769584 0.105959
H41   H     H_    0.019339 0.554270 0.733034 0.159500
H42   H     H_    0.434937 0.171756 0.538238 0.129531
H43   H     H_    0.492521 0.227407 0.953800 0.127999
H44   H     H_    0.794901 0.088237 0.705718 0.126878
H45   H     H_    0.229401 0.774587 0.162097 0.101434
H46   H     H_    0.827222 0.127902 0.656724 0.131788
H47   H     H_    0.648867 0.156837 0.618345 0.187649
H48   H     H_    0.732088 0.019171 0.634263 0.113007
H49   H     H_    0.619498 0.113654 0.666814 0.173086
H50   H     H_    0.577081 0.224040 0.316666 0.146016
H51   H     H_    0.605502 0.153972 0.260989 0.121855
H52   H     H_    0.665547 0.978695 0.292239 0.149091
H53   H     H_    0.741945 0.044933 0.319639 0.091600
H54   H     H_    0.635274 0.046386 0.348020 0.161912
H55   H     H_    0.048922 0.392242 0.128263 0.140260
H56   H     H_    0.200978 0.800334 0.386781 0.145110
H57   H     H_    0.961110 0.498865 0.167493 0.104763
H58   H     H_    0.928069 0.637794 0.116130 0.146905
H59   H     H_    0.071563 0.556192 0.130834 0.084253
H60   H     H_    0.013658 0.532189 0.076329 0.181633
H61   H     H_    0.979638 0.368375 0.293938 0.137288
H62   H     H_    0.977858 0.450556 0.345844 0.126385
H63   H     H_    0.923713 0.609443 0.303710 0.139397
H64   H     H_    0.042031 0.495310 0.280959 0.102731
H65   H     H_    0.910174 0.535620 0.251595 0.154427
H66   H     H_    0.539193 0.723239 0.401211 0.151011
H67   H     H_    0.463751 0.891934 0.184219 0.134309
H68   H     H_    0.425775 0.945557 0.107616 0.143505
O1    O     O_R   0.688580 0.499770 0.460490 -0.521733
O2    O     O_R   0.346150 0.177650 0.050510 -0.510576
O3    O     O_R   0.314200 0.996600 0.036060 -0.515101
O4    O     O_R   0.480400 0.672610 0.462660 -0.500228
O5    O     O_R   0.168690 0.969990 0.933130 -0.503652
O6    O     O_R   0.991920 0.175870 0.937430 -0.487609
O7    O     O_R   0.974010 0.342590 0.941330 -0.511571
O8    O     O_R   0.182630 0.317940 0.955040 -0.502108
O9    O     O_R   0.347320 0.174720 0.953250 -0.512821
O10   O     O_R   0.315290 0.993890 0.945900 -0.487444
O11   O     O_3   0.162730 0.163890 0.991180 -0.253903
O12   O     O_R   0.348600 0.476260 0.536540 -0.500301
O13   O     O_R   0.315310 0.685650 0.451800 -0.514285
O14   O     O_R   0.346220 0.474990 0.446280 -0.498010
O15   O     O_R   0.492270 0.312460 0.441630 -0.510723
O16   O     O_R   0.669740 0.350480 0.455640 -0.500352
O17   O     O_R   0.691150 0.501150 0.557860 -0.504710
O18   O     O_R   0.482790 0.673890 0.552920 -0.482690
O19   O     O_R   0.317880 0.687030 0.549170 -0.515716
O20   O     O_3   0.169482 0.827297 0.076986 -0.536057
O21   O     O_3   0.170463 0.844257 0.301969 -0.554495
O22   O     O_3   0.549381 0.756398 0.318741 -0.537365
O23   O     O_R   0.494840 0.313840 0.539010 -0.521702
O24   O     O_3   0.126426 0.423065 0.797947 -0.572204
O25   O     O_2   0.474266 0.072750 0.586433 -0.529810
O26   O     O_2   0.591211 0.176204 0.904455 -0.514873
O27   O     O_3   0.699989 0.250964 0.692283 -0.554037
O28   O     O_3   0.474871 0.158935 0.289920 -0.564145
O29   O     O_3   0.883062 0.472097 0.107307 -0.534549
O30   O     O_3   0.826109 0.488029 0.312949 -0.550049
O31   O     O_R   0.672120 0.351750 0.545910 -0.490710
O32   O     O_3   0.500010 0.500010 0.500010 -0.244477
O33   O     O_R   0.167510 0.972920 0.030390 -0.469513
O34   O     O_R   0.990840 0.178580 0.027590 -0.519241
O35   O     O_R   0.972840 0.345510 0.038590 -0.462683
O36   O     O_R   0.181550 0.320660 0.045200 -0.508100

loop_
_geom_bond_atom_site_label_1
_geom_bond_atom_site_label_2
_ccdc_geom_bond_type
C58   C62   A    
C31   C66   S    
C30   C32   A    
C87   C88   S    
C98   H46   S    
C1    C21   S    
C89   H27   S    
C48   C86   A    
C41   C42   A    
Cr3   O15   S    
Cr6   O11   S    
C88   H22   S    
C97   O26   D    
C63   C65   T    
C3    H59   S    
C57   C62   A    
C47   C49   A    
C98   H44   S    
C45   C46   A    
C45   O24   S    
C37   C79   A    
C29   C36   A    
C4    H62   S    
C48   C59   S    
C53   C84   S    
C45   C50   A    
Cr6   O10   S    
C101  H54   S    
C11   H17   S    
C87   O20   S    
C34   C35   T    
C9    O30   S    
C38   C39   A    
C80   C81   S    
C1    O4    A    
C65   C83   S    
C40   H7    S    
Cr5   O35   S    
C58   C60   A    
Cr4   O34   S    
Cr5   O11   S    
C56   C57   A    
C17   C18   T    
Cr1   O4    S    
C42   H4    S    
Cr4   O6    S    
C19   C92   S    
C90   H30   S    
C21   C22   A    
C91   O22   S    
C94   H38   S    
C5    H64   S    
C101  H52   S    
C36   C82   S    
C102  H55   S    
C99   H47   S    
C82   O3    A    
C23   C24   A    
C7    O14   A    
C95   H41   S    
Cr1   O18   S    
C6    H34   S    
C47   C53   A    
C9    C10   A    
C19   O1    A    
C41   C52   S    
C93   H35   S    
C19   O16   A    
C80   O36   A    
C82   O33   A    
C2    H19   S    
C94   H37   S    
C49   H6    S    
C21   C27   A    
Cr2   O14   S    
C13   C14   A    
C72   H16   S    
Cr3   O16   S    
C7    O15   A    
C84   O9    A    
C2    C6    A    
C42   C44   A    
C15   C48   A    
C30   H68   S    
C87   H20   S    
C22   H66   S    
C3    H60   S    
Cr3   O31   S    
C10   C92   A    
C97   H43   S    
Cr2   O12   S    
C32   H67   S    
C24   C35   S    
C4    H61   S    
C79   H1    S    
Cr6   O2    S    
C51   C52   T    
C98   O27   S    
C96   O25   D    
C95   H39   S    
Cr1   O32   S    
C74   C75   S    
C39   C40   A    
C68   C69   A    
C15   C26   A    
C6    C8    A    
Cr5   O36   S    
C56   H8    S    
C68   C73   A    
Cr4   O33   S    
C8    C18   S    
C38   C43   S    
C15   H9    S    
Cr6   O3    S    
Cr5   O7    S    
C60   C61   A    
Cr1   O1    S    
C80   O2    A    
C61   C64   S    
C26   O28   S    
Cr4   O5    S    
C38   C44   A    
C62   C63   S    
C27   H56   S    
C91   C93   S    
C90   H28   S    
C11   C16   A    
Cr6   O9    S    
C60   O27   S    
C23   O22   S    
C84   O8    A    
C96   H42   S    
C99   H48   S    
C12   C20   A    
C50   C51   S    
C8    C9    A    
C71   C72   A    
C83   O7    A    
C69   C74   A    
C24   C25   A    
C2    C92   A    
C4    C5    S    
C75   C77   T    
C93   H36   S    
C91   H31   S    
C3    C102  S    
C13   H23   S    
C40   C41   A    
C55   O17   A    
C28   C33   A    
C98   C99   S    
C102  H57   S    
C14   H12   S    
C99   H49   S    
C28   H45   S    
C73   C76   S    
C14   C16   A    
C88   H24   S    
C90   H29   S    
C93   H33   S    
C5    H63   S    
Cr3   O32   S    
C71   H15   S    
C85   O10   A    
C78   O34   A    
C54   C55   S    
C28   C29   A    
C85   O5    A    
C89   H26   S    
C13   C20   A    
C86   H2    S    
C56   C61   A    
C5    H65   S    
C69   H14   S    
C95   H40   S    
C59   C81   T    
C72   C73   A    
C68   H13   S    
Cr4   O11   S    
C71   C74   A    
C11   C12   A    
C26   C37   A    
C4    O30   S    
C30   C36   A    
C25   C27   A    
C29   O20   S    
C89   O21   S    
C47   C97   S    
C20   C78   S    
Cr5   O8    S    
C67   C70   T    
C37   C70   S    
C32   C33   A    
C87   H21   S    
C101  H53   S    
C55   O31   A    
C10   H18   S    
C12   O29   S    
C31   O19   A    
C100  O28   S    
C100  H51   S    
C44   H5    S    
C16   C17   S    
C54   C64   T    
C43   O12   A    
C77   C85   S    
Cr2   O13   S    
C46   C53   A    
C100  C101  S    
Cr2   O19   S    
C33   C34   S    
C94   O24   S    
Cr2   O32   S    
C94   C95   S    
C102  O29   S    
C39   C96   S    
C25   O21   S    
C7    C67   S    
C91   H32   S    
C100  H50   S    
Cr3   O23   S    
C58   H11   S    
C83   O6    A    
C49   C50   A    
C22   C23   A    
C43   O23   A    
Cr1   O17   S    
C88   H25   S    
C89   C90   S    
C46   H3    S    
C78   O35   A    
C79   C86   A    
C66   C76   T    
C3    H58   S    
C57   H10   S    
C31   O18   A    
C1    O13   A    
