data_mof_unit_37741.cif
_audit_creation_date              2012-12-10T19:28:38-0500
_audit_creation_method            fapswitch 2.2
_symmetry_space_group_name_H-M    P1
_symmetry_Int_Tables_number       1
_space_group_crystal_system       triclinic
_cell_length_a                    27.140743
_cell_length_b                    10.573947
_cell_length_c                    9.803403
_cell_angle_alpha                 88.687777
_cell_angle_beta                  87.231481
_cell_angle_gamma                 90.566075
_cell_volume                      2809.23668517

loop_
_atom_site_label
_atom_site_type_symbol
_atom_type_description
_atom_site_fract_x
_atom_site_fract_y
_atom_site_fract_z
_atom_type_partial_charge
C1    C     C_R   0.500764 0.257620 0.501630 1.019224
C2    C     C_R   0.879690 0.408969 0.623902 -0.093857
C3    C     C_R   0.352319 0.521310 0.504561 -0.272085
C4    C     C_R   0.648053 0.480452 0.498216 -0.242450
C5    C     C_R   0.978560 0.459933 0.682696 -0.010719
C6    C     C_R   0.017665 0.691224 0.579835 -0.022860
C7    C     C_R   0.966432 0.679932 0.611274 -0.059049
C8    C     C_R   0.027336 0.494053 0.711420 -0.040314
C9    C     C_R   0.947183 0.558054 0.642979 -0.042971
C10   C     C_R   0.048003 0.600661 0.640675 -0.039479
C11   C     C_R   0.961490 0.333541 0.675745 0.415663
C12   C     C_R   0.501651 0.741787 0.499126 1.006775
C13   C     C_R   0.039427 0.777381 0.480477 0.423090
C14   C     C_R   0.912500 0.309070 0.644365 -0.227083
C15   C     C_R   0.089966 0.768602 0.444119 -0.219994
C16   C     C_R   0.405718 0.502502 0.502183 0.989301
C17   C     C_R   0.594403 0.497815 0.497775 0.998023
C18   C     C_R   0.056367 0.428741 0.805723 0.512262
C19   C     C_R   0.933926 0.783152 0.619300 0.544240
C20   C     C_3   0.518037 0.036537 0.624183 0.406662
C21   C     C_3   0.488829 0.963063 0.383226 0.356987
C22   C     C_3   0.550268 0.958082 0.523390 0.098404
C23   C     C_R   0.099161 0.610347 0.622751 -0.063028
C24   C     C_3   0.456584 0.038499 0.485470 0.151083
C25   C     C_3   0.504114 0.875987 0.500695 -0.338603
C26   C     C_3   0.502062 0.122405 0.505443 -0.355405
C27   C     C_3   0.472732 0.952168 0.603002 0.368415
C28   C     C_3   0.534465 0.045438 0.403835 0.284965
C29   C     C_3   0.498279 0.385482 0.051671 -0.201860
C30   C     C_3   0.501270 0.614105 0.947934 -0.197256
C31   C     C_3   0.537743 0.440465 0.947029 -0.193012
C32   C     C_3   0.462243 0.559854 0.052664 -0.183401
C33   C     C_3   0.460936 0.446411 0.959013 0.480688
C34   C     C_R   0.896944 0.534173 0.629282 -0.074486
C35   C     C_3   0.538666 0.554256 0.039932 0.514661
C36   C     C_R   0.180062 0.549387 0.683216 0.600841
C37   C     C_R   0.814783 0.609707 0.600236 0.627779
C38   C     C_R   0.169351 0.662568 0.473826 0.581523
C39   C     C_R   0.830855 0.388054 0.588809 0.594836
C40   C     C_R   0.283895 0.664408 0.469577 0.511976
C41   C     C_R   0.716417 0.394349 0.624264 0.537680
C42   C     C_R   0.334321 0.636351 0.454618 -0.427836
C43   C     C_R   0.665866 0.396377 0.596839 -0.460495
C44   C     C_R   0.319179 0.427092 0.554212 0.347039
C45   C     C_R   0.129091 0.538357 0.706034 -0.103568
C46   C     C_R   0.681535 0.553226 0.415141 0.316622
C47   C     C_R   0.268480 0.445992 0.548007 0.413754
C48   C     C_R   0.732239 0.537492 0.427176 0.394164
C49   C     C_R   0.250374 0.569224 0.520668 -0.015976
C50   C     C_R   0.749297 0.468199 0.539580 0.032195
C51   C     C_3   0.575502 0.084460 0.787802 0.080067
C52   C     C_3   0.587283 0.965391 0.872035 -0.278331
C53   C     C_3   0.642479 0.954799 0.892744 -0.840461
C54   C     C_3   0.468142 0.016633 0.164583 0.169933
C55   C     C_3   0.433027 0.975414 0.057639 -0.436122
C56   C     C_R   0.864623 0.635922 0.615904 -0.121193
C57   C     C_3   0.417265 0.088447 0.971802 -0.691584
C58   C     C_3   0.402245 0.846819 0.696360 0.110266
C59   C     C_3   0.381855 0.779030 0.827793 -0.396491
C60   C     C_3   0.339417 0.687826 0.806228 -0.811198
C61   C     C_3   0.609312 0.067843 0.275599 0.160441
C62   C     C_3   0.644116 0.143134 0.362828 -0.389433
C63   C     C_3   0.696994 0.096153 0.346882 -0.802450
C64   C     C_3   0.214612 0.300170 0.469902 0.052735
C65   C     C_3   0.167725 0.226085 0.515333 -0.319402
C66   C     C_3   0.145400 0.159534 0.396021 -0.877574
C67   C     C_R   0.107279 0.453896 0.804703 -0.241788
C68   C     C_3   0.773495 0.548990 0.217801 0.112463
C69   C     C_3   0.815080 0.452304 0.225150 -0.411611
C70   C     C_3   0.829049 0.400526 0.084561 -0.913249
C71   C     C_3   0.703871 0.286145 0.839353 0.086911
C72   C     C_3   0.687185 0.399197 0.924932 -0.368089
C73   C     C_3   0.663662 0.354430 0.062191 -0.958803
C74   C     C_3   0.280111 0.879485 0.504876 0.137698
C75   C     C_3   0.240180 0.899208 0.618101 -0.460943
C76   C     C_3   0.255018 0.003591 0.713286 -0.796554
C77   C     C_3   0.016256 0.414249 0.014116 0.054064
C78   C     C_R   0.883001 0.760607 0.619644 -0.220736
C79   C     C_3   0.989179 0.324113 0.117047 -0.301333
C80   C     C_3   0.969305 0.393827 0.242630 -0.894059
C81   C     C_3   0.965757 0.909177 0.780926 0.140083
C82   C     C_3   0.926246 0.974773 0.869864 -0.380546
C83   C     C_3   0.942460 0.989015 0.015694 -0.838955
C84   C     C_R   0.120004 0.684672 0.514861 -0.104649
Cl1   Cl    Cl    0.339908 0.287214 0.631395 -0.476094
Cl2   Cl    Cl    0.662336 0.682221 0.316362 -0.486580
Cl3   Cl    Cl    0.404786 0.386266 0.900233 -0.570616
Cl4   Cl    Cl    0.589374 0.644804 0.088463 -0.581164
Cl5   Cl    Cl    0.002581 0.205976 0.667516 -0.592101
Cl6   Cl    Cl    0.004504 0.877601 0.377206 -0.586549
Cl7   Cl    Cl    0.607302 0.879646 0.549713 -0.617222
Cl8   Cl    Cl    0.395796 0.085685 0.449508 -0.622327
H1    H     H_    0.569674 0.391897 0.897686 0.146980
H2    H     H_    0.105605 0.827060 0.360371 0.210247
H3    H     H_    0.581681 0.167618 0.852099 0.127952
H4    H     H_    0.601065 0.098214 0.696648 0.144853
H5    H     H_    0.567477 0.968387 0.973450 0.213115
H6    H     H_    0.574228 0.879459 0.821139 0.276037
H7    H     H_    0.663368 0.949601 0.792867 0.303528
H8    H     H_    0.649641 0.867849 0.953891 0.310282
H9    H     H_    0.655890 0.037603 0.948233 0.215200
H10   H     H_    0.504270 0.041437 0.112823 0.162566
H11   H     H_    0.453224 0.103206 0.213512 0.185092
H12   H     H_    0.430371 0.609653 0.101269 0.172401
H13   H     H_    0.399694 0.930376 0.109114 0.247363
H14   H     H_    0.451846 0.905221 0.991381 0.257144
H15   H     H_    0.395995 0.154224 0.038111 0.279380
H16   H     H_    0.393249 0.058320 0.890082 0.287532
H17   H     H_    0.450120 0.138082 0.923781 0.304463
H18   H     H_    0.406149 0.778100 0.612508 0.130006
H19   H     H_    0.376266 0.922545 0.670433 0.186100
H20   H     H_    0.411736 0.725289 0.874844 0.246931
H21   H     H_    0.368118 0.850142 0.901019 0.218313
H22   H     H_    0.310809 0.733454 0.746308 0.241684
H23   H     H_    0.496972 0.289205 0.098969 0.162008
H24   H     H_    0.322366 0.656783 0.906850 0.291196
H25   H     H_    0.353327 0.602857 0.754524 0.304601
H26   H     H_    0.620694 0.086347 0.166883 0.141271
H27   H     H_    0.612302 0.963811 0.290890 0.235684
H28   H     H_    0.643117 0.244721 0.332036 0.223053
H29   H     H_    0.631664 0.135822 0.471968 0.235906
H30   H     H_    0.699073 0.996633 0.384732 0.327523
H31   H     H_    0.721384 0.155850 0.407267 0.273700
H32   H     H_    0.710352 0.101629 0.238025 0.239321
H33   H     H_    0.241022 0.236028 0.416332 0.175749
H34   H     H_    0.503344 0.710403 0.900287 0.181206
H35   H     H_    0.204065 0.376785 0.397026 0.145128
H36   H     H_    0.176215 0.154336 0.594964 0.243196
H37   H     H_    0.140147 0.292045 0.560472 0.242923
H38   H     H_    0.135790 0.229710 0.315793 0.269529
H39   H     H_    0.111298 0.107794 0.432650 0.298241
H40   H     H_    0.171866 0.090411 0.351611 0.265879
H41   H     H_    0.784743 0.623731 0.140737 0.192660
H42   H     H_    0.739556 0.503681 0.180914 0.142302
H43   H     H_    0.848061 0.497765 0.266903 0.241779
H44   H     H_    0.802979 0.372199 0.294440 0.239324
H45   H     H_    0.129686 0.401049 0.874047 0.210314
H46   H     H_    0.796835 0.352082 0.042365 0.271815
H47   H     H_    0.859247 0.331170 0.093556 0.272684
H48   H     H_    0.842045 0.478291 0.013169 0.263843
H49   H     H_    0.724824 0.221585 0.905633 0.180420
H50   H     H_    0.672623 0.227828 0.806867 0.114654
H51   H     H_    0.719596 0.460510 0.942943 0.240276
H52   H     H_    0.660122 0.456585 0.869809 0.248050
H53   H     H_    0.630861 0.293796 0.046941 0.260394
H54   H     H_    0.652097 0.436769 0.123318 0.323402
H55   H     H_    0.690829 0.300304 0.120330 0.252313
H56   H     H_    0.858310 0.840486 0.621402 0.212056
H57   H     H_    0.283160 0.967053 0.440065 0.206809
H58   H     H_    0.316629 0.866396 0.547578 0.125364
H59   H     H_    0.205041 0.924820 0.571272 0.240489
H60   H     H_    0.233794 0.810539 0.679355 0.230768
H61   H     H_    0.288996 0.977302 0.765464 0.267506
H62   H     H_    0.224903 0.018049 0.791909 0.266498
H63   H     H_    0.261727 0.093521 0.654643 0.316871
H64   H     H_    0.989547 0.486788 0.980486 0.133126
H65   H     H_    0.046915 0.461925 0.065383 0.153312
H66   H     H_    0.957868 0.278376 0.067404 0.226577
H67   H     H_    0.639185 0.338832 0.655911 0.164683
H68   H     H_    0.014790 0.249176 0.149945 0.251309
H69   H     H_    0.000078 0.437558 0.296352 0.274531
H70   H     H_    0.949321 0.326057 0.314283 0.286674
H71   H     H_    0.943301 0.468701 0.212302 0.258696
H72   H     H_    0.000729 0.964266 0.780904 0.225881
H73   H     H_    0.974116 0.815444 0.829004 0.087240
H74   H     H_    0.918919 0.069909 0.825698 0.257347
H75   H     H_    0.891433 0.918395 0.872172 0.216693
H76   H     H_    0.948008 0.894551 0.064150 0.281586
H77   H     H_    0.977423 0.044496 0.015836 0.280613
H78   H     H_    0.359805 0.707287 0.410337 0.193162
H79   H     H_    0.913601 0.039361 0.076788 0.266566
H80   H     H_    0.900575 0.212034 0.632712 0.222489
N1    N     N_R   0.199421 0.597376 0.559792 -0.338670
N2    N     N_R   0.799273 0.488070 0.578071 -0.319706
N3    N     N_3   0.499960 0.500030 0.863290 -0.112158
N4    N     N_3   0.500040 0.499970 0.136710 -0.109871
O1    O     O_R   0.500000 0.313960 0.616610 -0.581047
O2    O     O_2   0.782130 0.705219 0.604232 -0.509728
O3    O     O_2   0.815470 0.269697 0.562836 -0.539159
O4    O     O_2   0.185576 0.699141 0.346879 -0.498023
O5    O     O_3   0.525403 0.083491 0.756057 -0.604747
O6    O     O_3   0.473849 0.915496 0.258559 -0.596629
O7    O     O_3   0.447852 0.902845 0.723057 -0.610761
O8    O     O_3   0.560695 0.111091 0.295175 -0.660687
O9    O     O_3   0.236502 0.347298 0.586644 -0.579249
O10   O     O_3   0.765450 0.608511 0.344628 -0.574769
O11   O     O_3   0.736699 0.323315 0.729226 -0.602542
O12   O     O_R   0.500000 0.686040 0.383390 -0.558963
O13   O     O_3   0.266950 0.779322 0.420778 -0.576259
O14   O     O_3   0.035268 0.344680 0.902292 -0.604545
O15   O     O_3   0.950986 0.903767 0.644000 -0.577143
O16   O     O_R   0.500020 0.313950 0.383350 -0.601831
O17   O     O_R   0.499980 0.686050 0.616650 -0.612620
O18   O     O_R   0.428750 0.500030 0.616610 -0.566202
O19   O     O_R   0.571250 0.499970 0.383390 -0.568510
O20   O     O_R   0.428770 0.500020 0.383360 -0.613898
O21   O     O_R   0.571230 0.499980 0.616640 -0.623521
O22   O     O_2   0.209873 0.508225 0.780814 -0.507841
Zn1   Zn    Zn3+2 0.499990 0.500010 0.655740 1.022961
Zn2   Zn    Zn3+2 0.500010 0.499990 0.344260 1.042236

loop_
_geom_bond_atom_site_label_1
_geom_bond_atom_site_label_2
_ccdc_geom_bond_type
C72   H51   S    
C30   H34   S    
C3    C42   A    
C34   C56   A    
C23   C45   A    
C13   Cl6   S    
C61   H27   S    
C12   O17   A    
C52   H5    S    
C60   H22   S    
C68   H42   S    
C24   C27   S    
O20   Zn2   S    
C73   H55   S    
C79   H66   S    
C49   N1    S    
C63   H32   S    
C66   H39   S    
C47   C49   A    
C31   N3    S    
C53   H7    S    
C70   H48   S    
C37   O2    S    
C32   N4    S    
C30   C35   S    
C55   H13   S    
C77   O14   S    
C68   H41   S    
C36   O22   S    
C5    C11   A    
C43   H67   S    
C77   H64   S    
C11   C14   A    
O12   Zn2   S    
C40   C49   A    
C12   O12   A    
C29   C33   S    
C76   H61   S    
C56   C78   A    
C41   O11   S    
C72   H52   S    
C76   H62   S    
O21   Zn1   S    
C81   O15   S    
C42   H78   S    
C37   N2    A    
C37   C56   A    
C1    O1    A    
C2    C39   A    
C57   H17   S    
C40   O13   S    
C53   H9    S    
C68   C69   S    
C22   C25   S    
C83   H79   S    
C30   N3    S    
C45   C67   A    
C22   Cl7   S    
C32   H12   S    
C74   H57   S    
C17   O21   A    
C47   O9    S    
C62   H28   S    
C64   O9    S    
C64   H33   S    
C44   C47   A    
C78   H56   S    
C51   H4    S    
C71   H49   S    
C2    C34   A    
C40   C42   A    
C29   H23   S    
C2    C14   A    
C68   O10   S    
C59   C60   S    
C69   H43   S    
C22   C28   S    
C41   C43   A    
C61   C62   S    
N4    Zn2   S    
C39   N2    A    
C33   N3    S    
C24   Cl8   S    
C81   C82   S    
C66   H40   S    
C82   H75   S    
C77   C79   S    
C53   H8    S    
C21   O6    S    
C46   C48   A    
C3    C44   A    
C38   O4    S    
C74   C75   S    
C55   H14   S    
C58   H19   S    
C65   H36   S    
C54   H11   S    
C60   H25   S    
C16   O18   A    
C14   H80   S    
C23   C84   A    
C75   H59   S    
C79   H68   S    
C71   O11   S    
C38   N1    A    
C4    C46   A    
C18   C67   A    
C31   H1    S    
C15   H2    S    
C8    C18   A    
C51   C52   S    
C73   H53   S    
C58   O7    S    
C19   C78   A    
C75   C76   S    
C80   H71   S    
C5    C9    A    
C62   C63   S    
C16   O20   A    
C74   O13   S    
C35   Cl4   S    
C11   Cl5   S    
C39   O3    S    
O18   Zn1   S    
C75   H60   S    
C59   H21   S    
C64   H35   S    
C80   H70   S    
C54   O6    S    
C59   H20   S    
C28   O8    S    
C36   C45   A    
C48   O10   S    
C48   C50   A    
N3    Zn1   S    
C15   C84   A    
C71   H50   S    
C4    C17   S    
C57   H15   S    
C21   C28   S    
C20   C22   S    
C65   C66   S    
C69   H44   S    
C7    C19   A    
C55   C57   S    
C9    C34   A    
C81   H72   S    
C31   C35   S    
C17   O19   A    
C63   H31   S    
C35   N4    S    
C29   N4    S    
C44   Cl1   S    
C41   C50   A    
C63   H30   S    
C52   C53   S    
O19   Zn2   S    
C82   H74   S    
C7    C9    A    
C21   C25   S    
C54   C55   S    
C18   O14   S    
C61   O8    S    
C38   C84   A    
C61   H26   S    
C58   H18   S    
C54   H10   S    
C24   C26   S    
C72   C73   S    
C51   O5    S    
C6    C10   A    
C5    C8    A    
C65   H37   S    
C70   H46   S    
C6    C7    A    
C20   C27   S    
C10   C23   A    
C25   C27   S    
C83   H76   S    
C73   H54   S    
C76   H63   S    
C26   C28   S    
C12   C25   S    
C50   N2    S    
C64   C65   S    
C13   C15   A    
C58   C59   S    
C71   C72   S    
C29   C31   S    
O17   Zn1   S    
C32   C33   S    
C6    C13   A    
C30   C32   S    
C1    C26   S    
C20   C26   S    
C83   H77   S    
C52   H6    S    
C4    C43   A    
O16   Zn2   S    
C33   Cl3   S    
C69   C70   S    
C67   H45   S    
C27   O7    S    
C80   H69   S    
C60   H24   S    
C79   C80   S    
C1    O16   A    
C36   N1    A    
C57   H16   S    
C8    C10   A    
C82   C83   S    
O1    Zn1   S    
C21   C24   S    
C19   O15   S    
C81   H73   S    
C74   H58   S    
C51   H3    S    
C66   H38   S    
C62   H29   S    
C3    C16   S    
C77   H65   S    
C20   O5    S    
C46   Cl2   S    
C70   H47   S    
