data_mof_unit_8730.cif
_audit_creation_date              2012-12-11T21:22:53-0500
_audit_creation_method            fapswitch 2.2
_symmetry_space_group_name_H-M    P1
_symmetry_Int_Tables_number       1
_space_group_crystal_system       triclinic
_cell_length_a                    8.274242
_cell_length_b                    18.753276
_cell_length_c                    19.04796
_cell_angle_alpha                 104.264635
_cell_angle_beta                  92.883527
_cell_angle_gamma                 91.306659
_cell_volume                      2859.00775037

loop_
_atom_site_label
_atom_site_type_symbol
_atom_type_description
_atom_site_fract_x
_atom_site_fract_y
_atom_site_fract_z
_atom_type_partial_charge
Ba1   Ba    Ba6+2 0.155460 0.532000 0.467920 1.713519
Ba2   Ba    Ba6+2 0.654730 0.467990 0.532020 1.683240
C1    C     C_3   0.329729 0.663101 0.221566 -0.245859
C2    C     C_R   0.098625 0.912026 0.567686 0.034242
C3    C     C_R   0.257195 0.937821 0.594797 -0.069658
C4    C     C_3   0.919569 0.723494 0.329199 0.397906
C5    C     C_R   0.319164 0.005017 0.587634 -0.103962
C6    C     C_R   0.223691 0.049661 0.555151 0.037335
C7    C     C_R   0.066837 0.024702 0.525985 0.045417
C8    C     C_R   0.281777 0.119867 0.553959 -0.117625
C9    C     C_R   0.182838 0.168157 0.526955 -0.046215
C10   C     C_R   0.027328 0.142589 0.494609 -0.006720
C11   C     C_R   0.970185 0.070506 0.494135 -0.005508
C12   C     C_3   0.425988 0.709180 0.288373 0.444240
C13   C     C_R   0.232933 0.241964 0.533127 -0.027676
C14   C     C_R   0.129205 0.289032 0.508067 -0.291629
C15   C     C_R   0.981731 0.263541 0.470567 0.055004
C16   C     C_3   0.942913 0.797717 0.311451 -0.363378
C17   C     C_R   0.928875 0.188975 0.463070 -0.041554
C18   C     C_R   0.848480 0.929805 0.501533 0.006964
C19   C     C_R   0.788444 0.858908 0.503959 0.008181
C20   C     C_R   0.882778 0.814416 0.540126 -0.112920
C21   C     C_R   0.029318 0.846387 0.579405 -0.014656
C22   C     C_R   0.780090 0.159453 0.426758 -0.048363
C23   C     C_3   0.518269 0.704733 0.750936 0.273161
C24   C     C_R   0.719260 0.089874 0.430245 0.029673
C25   C     C_R   0.814238 0.045222 0.464292 0.008596
C26   C     C_R   0.753051 0.975159 0.468226 0.022803
C27   C     C_R   0.562821 0.064830 0.401491 -0.080551
C28   C     C_3   0.812071 0.364879 0.308350 0.368036
C29   C     C_R   0.501016 0.996393 0.406605 -0.091615
C30   C     C_R   0.595510 0.950978 0.439402 0.034345
C31   C     C_R   0.632533 0.833318 0.471085 -0.044265
C32   C     C_R   0.535423 0.881373 0.442385 -0.128509
C33   C     C_R   0.580206 0.759822 0.466364 -0.000384
C34   C     C_3   0.446013 0.775175 0.795997 -0.347001
C35   C     C_R   0.681835 0.713796 0.494024 -0.183396
C36   C     C_R   0.827599 0.739566 0.533252 0.004571
C37   C     C_R   0.386741 0.496628 0.802433 -0.124676
C38   C     C_R   0.333233 0.499064 0.731314 0.027845
C39   C     C_R   0.145520 0.427582 0.813181 -0.167745
C40   C     C_3   0.778659 0.339529 0.226185 -0.127452
C41   C     C_R   0.087312 0.435215 0.745322 -0.016649
C42   C     C_R   0.639377 0.549030 0.185662 -0.146350
C43   C     C_R   0.702297 0.552184 0.256086 0.001991
C44   C     C_R   0.450502 0.453002 0.196662 -0.162021
C45   C     C_3   0.903031 0.276350 0.702395 0.291650
C46   C     C_R   0.483630 0.472373 0.271946 0.062645
C47   C     C_R   0.303695 0.452899 0.842277 0.013048
C48   C     C_R   0.186659 0.464884 0.702392 -0.242480
C49   C     C_R   0.518883 0.494656 0.151783 -0.005423
C50   C     C_R   0.613782 0.520364 0.301163 -0.253486
C51   C     C_R   0.153996 0.364838 0.947756 -0.076397
C52   C     C_3   0.005857 0.623194 0.685059 0.305460
C53   C     C_R   0.044465 0.353682 0.997634 -0.066786
C54   C     C_R   0.054502 0.399269 0.067432 -0.064267
C55   C     C_R   0.183609 0.450162 0.089096 -0.099858
C56   C     C_3   0.823163 0.200293 0.694964 -0.202662
C57   C     C_R   0.310618 0.451714 0.043118 0.019047
C58   C     C_R   0.275798 0.421251 0.967640 0.038333
C59   C     C_R   0.470610 0.478266 0.070374 -0.010161
C60   C     C_R   0.586940 0.478972 0.017357 0.040784
C61   C     C_R   0.537221 0.461899 0.941585 0.011008
C62   C     C_R   0.373206 0.442744 0.916514 -0.021560
C63   C     C_R   0.754169 0.494328 0.036481 -0.080060
C64   C     C_3   0.039101 0.640248 0.767312 -0.330427
C65   C     C_R   0.860718 0.506260 0.986234 -0.067360
C66   C     C_R   0.811635 0.488476 0.913673 -0.051075
C67   C     C_3   0.367777 0.282385 0.703916 0.353017
C68   C     C_R   0.657491 0.457838 0.891667 -0.082018
C69   C     C_3   0.302166 0.304671 0.361664 0.327129
C70   C     C_3   0.287611 0.221171 0.335868 -0.398279
C71   C     C_2   0.637112 0.678787 0.801551 0.378744
C72   C     C_2   0.601950 0.724370 0.689618 0.536871
C73   C     C_2   0.945668 0.141670 0.688815 0.415883
C74   C     C_2   0.090112 0.822663 0.643894 0.523887
C75   C     C_3   0.410671 0.258319 0.772836 -0.342386
C76   C     C_R   0.005536 0.954784 0.530555 0.029394
H1    H     H_    0.517722 0.673150 0.304895 -0.035380
H2    H     H_    0.385902 0.319659 0.410874 0.056879
H3    H     H_    0.280366 0.612130 0.233412 0.123613
H4    H     H_    0.198028 0.204846 0.288830 0.124449
H5    H     H_    0.247486 0.196905 0.379806 0.054968
H6    H     H_    0.406949 0.199029 0.319233 0.116817
H7    H     H_    0.408313 0.647818 0.175092 0.061769
H8    H     H_    0.389977 0.763972 0.844206 0.109801
H9    H     H_    0.539874 0.820147 0.814919 0.104889
H10   H     H_    0.349925 0.795191 0.764113 0.169302
H11   H     H_    0.228689 0.694847 0.205557 0.136304
H12   H     H_    0.665391 0.304502 0.213712 0.091226
H13   H     H_    0.899609 0.842015 0.355777 0.061274
H14   H     H_    0.956724 0.276667 0.649934 -0.026215
H15   H     H_    0.999995 0.285962 0.746622 -0.061521
H16   H     H_    0.740179 0.186041 0.645511 0.134782
H17   H     H_    0.752397 0.201112 0.743181 0.105748
H18   H     H_    0.250714 0.254752 0.680043 -0.088155
H19   H     H_    0.356681 0.342757 0.717708 0.026021
H20   H     H_    0.309001 0.268838 0.809072 0.057342
H21   H     H_    0.520642 0.289396 0.801402 0.125951
H22   H     H_    0.990987 0.724567 0.380424 0.080367
H23   H     H_    0.761573 0.388587 0.204163 0.047318
H24   H     H_    0.433109 0.198436 0.759453 0.117438
H25   H     H_    0.336928 0.906559 0.621205 0.130238
H26   H     H_    0.441021 0.022957 0.609432 0.093124
H27   H     H_    0.168191 0.345836 0.514343 0.060042
H28   H     H_    0.402983 0.136895 0.576566 0.105985
H29   H     H_    0.706848 0.190817 0.397605 0.101462
H30   H     H_    0.487161 0.098599 0.375856 0.063996
H31   H     H_    0.379389 0.978732 0.384374 0.068732
H32   H     H_    0.413928 0.864448 0.420040 0.101805
H33   H     H_    0.789218 0.715192 0.337339 -0.110570
H34   H     H_    0.114694 0.601269 0.657478 0.047472
H35   H     H_    0.642592 0.657019 0.487819 0.087743
H36   H     H_    0.489623 0.531182 0.827052 0.063139
H37   H     H_    0.059918 0.404558 0.842039 0.062223
H38   H     H_    0.692423 0.585742 0.156699 0.079796
H39   H     H_    0.370317 0.405724 0.174272 0.082119
H40   H     H_    0.141972 0.469355 0.649358 0.040522
H41   H     H_    0.654036 0.528146 0.357568 0.061477
H42   H     H_    0.146574 0.326958 0.894885 0.058422
H43   H     H_    0.949006 0.311501 0.981450 0.068765
H44   H     H_    0.963671 0.394886 0.105055 0.093498
H45   H     H_    0.907279 0.580306 0.669560 0.072259
H46   H     H_    0.072824 0.809110 0.305130 0.142066
H47   H     H_    0.188284 0.485559 0.142865 0.126903
H48   H     H_    0.808308 0.495774 0.089082 0.072993
H49   H     H_    0.984725 0.524700 0.003009 0.082129
H50   H     H_    0.895331 0.496276 0.874753 0.086352
H51   H     H_    0.630736 0.430749 0.835483 0.127927
H52   H     H_    0.873067 0.797893 0.260174 0.126048
H53   H     H_    0.703460 0.391140 0.333143 -0.049051
H54   H     H_    0.914959 0.405614 0.320199 0.077951
H55   H     H_    0.886190 0.284425 0.135731 0.165423
H56   H     H_    0.064538 0.700058 0.790688 0.176070
H57   H     H_    0.918654 0.248632 0.206742 0.206572
H58   H     H_    0.424577 0.808467 0.260841 0.182768
H59   H     H_    0.588739 0.796705 0.311602 0.151280
H60   H     H_    0.631700 0.623275 0.807757 0.020915
H61   H     H_    0.707220 0.761831 0.700953 -0.049133
H62   H     H_    0.073940 0.154759 0.688531 0.002453
H63   H     H_    0.010783 0.823842 0.687754 -0.006888
H64   H     H_    0.144010 0.610471 0.781925 0.051350
H65   H     H_    0.934864 0.621354 0.793018 0.118930
H66   H     H_    0.180897 0.326099 0.374566 0.003609
N1    N     N_3   0.913806 0.298577 0.191708 -0.479357
N2    N     N_3   0.509531 0.770113 0.268314 -0.514017
O1    O     O_2   0.114280 0.679350 0.549180 -0.395746
O2    O     O_2   0.766050 0.476425 0.750361 -0.518033
O3    O     O_3   0.786859 0.330751 0.719998 -0.556862
O4    O     O_3   0.866400 0.589600 0.543550 -0.498256
O5    O     O_3   0.444420 0.455520 0.411210 -0.489603
O6    O     O_2   0.612810 0.550740 0.677950 -0.483920
O7    O     O_3   0.385245 0.654875 0.723711 -0.641795
O8    O     O_2   0.566324 0.247009 0.524168 -0.480898
O9    O     O_3   0.491537 0.262766 0.656285 -0.569579
O10   O     O_3   0.362150 0.623490 0.415650 -0.464995
O11   O     O_2   0.247500 0.753712 0.475785 -0.455595
O12   O     O_3   0.362219 0.332179 0.305871 -0.632220
O13   O     O_3   0.962416 0.687582 0.664842 -0.637223
O14   O     O_3   0.317225 0.737088 0.342458 -0.615406
O15   O     O_2   0.197490 0.449210 0.322030 -0.463464
O16   O     O_3   0.950520 0.583920 0.376610 -0.491527
O17   O     O_2   0.029779 0.526677 0.244509 -0.503388
O18   O     O_2   0.741824 0.721314 0.837411 -0.611023
O19   O     O_2   0.548747 0.700816 0.627096 -0.576256
O20   O     O_2   0.901101 0.078043 0.683802 -0.572140
O21   O     O_2   0.227025 0.800738 0.648011 -0.564963
O22   O     O_3   0.972972 0.667902 0.272080 -0.593814
O23   O     O_2   0.696020 0.320600 0.450800 -0.459344
O24   O     O_3   0.943900 0.410390 0.456390 -0.506570
O25   O     O_3   0.448150 0.376500 0.584290 -0.471755
O26   O     O_3   0.847740 0.303756 0.335352 -0.651145
O27   O     O_3   0.365880 0.544470 0.588730 -0.423694
O28   O     O_3   0.859790 0.416060 0.623340 -0.457600
P1    P     P_3+3 0.941030 0.670050 0.569830 1.027708
P2    P     P_3+3 0.370400 0.428500 0.331430 0.987327
P3    P     P_3+3 0.912574 0.582762 0.285910 0.930914
P4    P     P_3+3 0.869270 0.329940 0.430110 0.966914
P5    P     P_3+3 0.874950 0.414303 0.713252 0.950242
P6    P     P_3+3 0.380031 0.718917 0.425425 0.986213
P7    P     P_3+3 0.426416 0.562194 0.682246 0.988258
P8    P     P_3+3 0.432612 0.281516 0.573663 0.965763

loop_
_geom_bond_atom_site_label_1
_geom_bond_atom_site_label_2
_ccdc_geom_bond_type
C15   P4    S    
Ba2   O4    S    
C53   C54   A    
C53   H43   S    
Ba1   P2    S    
C1    H7    S    
C45   H14   S    
O25   P8    S    
C67   C75   S    
C49   C59   S    
C21   C74   S    
C52   H45   S    
C67   H18   S    
C3    H25   S    
O9    P8    S    
C5    C6    A    
C66   C68   A    
C34   H10   S    
C41   P5    S    
C24   C25   A    
C35   C36   A    
O24   P4    S    
C16   H13   S    
C33   C35   A    
C22   C24   A    
Ba1   Ba2   S    
C71   O18   D    
C73   H62   S    
Ba2   O27   S    
C55   H47   S    
O1    P1    D    
C55   C57   A    
C19   C31   A    
C71   H60   S    
C28   H53   S    
C20   C36   A    
C13   P8    S    
Ba1   O24   S    
O3    P5    S    
C54   C55   A    
C74   O21   D    
C23   C72   S    
C4    H33   S    
H58   N2    S    
C7    C11   A    
O14   P6    S    
O16   P3    S    
C15   C17   A    
C52   O13   S    
C64   H56   S    
C9    C13   A    
C75   H20   S    
C45   O3    S    
C14   C15   A    
H57   N1    S    
C1    H3    S    
C27   H30   S    
C75   H21   S    
C66   H50   S    
C43   P3    S    
Ba2   O25   S    
C74   H63   S    
O4    P1    S    
Ba1   O15   S    
C57   C58   A    
C47   C62   S    
O13   P1    S    
C19   C20   A    
C39   C41   A    
C75   H24   S    
C39   H37   S    
C39   C47   A    
C69   H2    S    
C51   C58   A    
C56   C73   S    
C44   C46   A    
C51   C53   A    
C34   H9    S    
Ba2   O6    S    
O17   P3    D    
C4    C16   S    
C4    O22   S    
C57   C59   A    
C13   C14   A    
C23   O7    S    
C65   C66   A    
H59   N2    S    
C26   C30   A    
C37   C38   A    
C3    C5    A    
O15   P2    D    
C6    C7    A    
C64   H65   S    
C18   C26   A    
C43   C50   A    
C63   C65   A    
C30   C32   A    
C44   C49   A    
C68   H51   S    
C58   C62   A    
C44   H39   S    
C12   O14   S    
C40   H12   S    
O11   P6    D    
C4    H22   S    
Ba1   O10   S    
C56   H17   S    
C2    C76   A    
C60   C61   A    
C65   H49   S    
C29   C30   A    
C61   C68   A    
C37   H36   S    
Ba1   O27   S    
C31   C32   A    
C45   H15   S    
C52   H34   S    
Ba1   O4    S    
C22   H29   S    
C67   O9    S    
C12   H1    S    
C10   C11   A    
C28   O26   S    
C70   H6    S    
C1    C12   S    
C14   H27   S    
Ba2   O24   S    
C64   H64   S    
C42   C49   A    
O12   P2    S    
C37   C47   A    
O7    P7    S    
Ba1   O16   S    
O2    P5    D    
C5    H26   S    
C32   H32   S    
Ba1   O1    S    
H55   N1    S    
C40   H23   S    
O23   P4    D    
C42   C43   A    
C38   P7    S    
O26   P4    S    
C33   P6    S    
C2    C21   A    
C69   O12   S    
Ba1   P1    S    
O5    P2    S    
C60   C63   A    
C48   H40   S    
C29   H31   S    
C28   C40   S    
C2    C3    A    
C9    C10   A    
C41   C48   A    
C52   C64   S    
C72   H61   S    
C12   N2    S    
C18   C76   A    
C1    H11   S    
C34   H8    S    
C63   H48   S    
C17   C22   A    
C56   H16   S    
C69   C70   S    
C27   C29   A    
Ba2   O5    S    
C45   C56   S    
O10   P6    S    
C36   P1    S    
C38   C48   A    
O8    P8    D    
C10   C17   A    
C31   C33   A    
Ba1   O5    S    
C73   O20   D    
C23   C71   S    
C7    C76   A    
C59   C60   A    
Ba2   O23   S    
C70   H4    S    
C70   H5    S    
C16   H52   S    
C8    C9    A    
C23   C34   S    
O27   P7    S    
C61   C62   A    
C28   H54   S    
C50   H41   S    
C46   C50   A    
C35   H35   S    
C18   C19   A    
C42   H38   S    
C24   C27   A    
C6    C8    A    
C51   H42   S    
C25   C26   A    
C8    H28   S    
C20   C21   A    
C11   C25   A    
Ba2   P4    S    
C16   H46   S    
O6    P7    D    
C40   N1    S    
O28   P5    S    
C72   O19   D    
Ba2   O28   S    
O22   P3    S    
C54   H44   S    
C69   H66   S    
C46   P2    S    
C67   H19   S    
