data_mof_unit_18244.cif
_audit_creation_date              2012-12-11T14:32:56-0500
_audit_creation_method            fapswitch 2.2
_symmetry_space_group_name_H-M    P1
_symmetry_Int_Tables_number       1
_space_group_crystal_system       triclinic
_cell_length_a                    6.946934
_cell_length_b                    13.737552
_cell_length_c                    17.94611
_cell_angle_alpha                 112.375869
_cell_angle_beta                  95.525474
_cell_angle_gamma                 90.291965
_cell_volume                      1574.73254941

loop_
_atom_site_label
_atom_site_type_symbol
_atom_type_description
_atom_site_fract_x
_atom_site_fract_y
_atom_site_fract_z
_atom_type_partial_charge
O1    O     O_R   0.484560 0.544530 0.414330 -0.536850
O2    O     O_R   0.197040 0.638810 0.585080 -0.539192
O3    O     O_R   0.026800 0.455470 0.585670 -0.541772
C1    C     C_R   0.374003 0.678936 0.610367 0.684627
O4    O     O_R   0.155000 0.556150 0.414940 -0.543058
O5    O     O_R   0.984450 0.372220 0.414320 -0.535965
C2    C     C_R   0.317644 0.565051 0.386571 0.757791
O6    O     O_R   0.526900 0.627780 0.585680 -0.539256
O7    O     O_3   0.339170 0.439750 0.499990 -0.374234
V1    V     V_3+5 0.064350 0.511180 0.500000 1.370410
O8    O     O_R   0.654880 0.361190 0.414920 -0.542409
C3    C     C_R   0.816895 0.324468 0.386451 0.763452
O9    O     O_R   0.696930 0.443850 0.585060 -0.541495
C4    C     C_R   0.873211 0.433852 0.612481 0.692448
V2    V     V_3+5 0.564340 0.488820 0.500000 1.370960
O10   O     O_3   0.839390 0.560250 0.500010 -0.374912
C5    C     C_R   0.041528 0.860693 0.822563 -0.051926
C6    C     C_R   0.906330 0.397711 0.679887 -0.051990
C7    C     C_R   0.921244 0.821132 0.682791 -0.127457
C8    C     C_R   0.973503 0.787790 0.745690 -0.145419
C9    C     C_R   0.052602 0.968537 0.836707 -0.211625
C10   C     C_R   0.997661 0.005007 0.773568 0.096727
C11   C     C_R   0.933092 0.928346 0.695816 0.120558
C12   C     C_R   0.002766 0.114215 0.784753 0.066677
C13   C     C_R   0.945231 0.144177 0.717678 0.066676
C14   C     C_R   0.885008 0.063957 0.641698 -0.179197
C15   C     C_R   0.878962 0.958650 0.631318 -0.219207
C16   C     C_R   0.063031 0.194433 0.860729 -0.179247
C17   C     C_R   0.069118 0.299737 0.871105 -0.219145
C18   C     C_R   0.014954 0.330042 0.806611 0.120657
C19   C     C_R   0.950315 0.253387 0.728866 0.096731
C20   C     C_R   0.026833 0.437254 0.819635 -0.127449
C21   C     C_R   0.974482 0.470604 0.756749 -0.145511
C22   C     C_R   0.895287 0.289864 0.665738 -0.211708
H1    H     H_    0.829890 0.900035 0.571883 0.118398
H2    H     H_    0.846810 0.237120 0.604751 0.092695
H3    H     H_    0.989181 0.553584 0.768003 0.091481
H4    H     H_    0.118239 0.358349 0.930536 0.118459
H5    H     H_    0.869210 0.762818 0.623725 0.138699
H6    H     H_    0.958850 0.704807 0.734434 0.091523
H7    H     H_    0.101032 0.021284 0.897696 0.092708
H8    H     H_    0.839950 0.079697 0.588484 0.123613
H9    H     H_    0.078958 0.495563 0.878692 0.138806
H10   H     H_    0.114052 0.224016 0.308852 0.155247
H11   H     H_    0.834383 0.034430 0.193598 0.155251
C23   C     C_2   0.135783 0.037604 0.184062 -0.353376
C24   C     C_2   0.972768 0.077811 0.217023 -0.130270
H12   H     H_    0.674543 0.177341 0.294483 0.125152
C25   C     C_2   0.812644 0.220855 0.318373 -0.353398
C26   C     C_2   0.975663 0.180642 0.285418 -0.130252
H13   H     H_    0.273875 0.081133 0.207935 0.125149
C27   C     C_R   0.409343 0.785123 0.677260 -0.057777
C28   C     C_R   0.539119 0.473103 0.825437 -0.057631
C29   C     C_R   0.531181 0.886788 0.817120 -0.125293
C30   C     C_R   0.478973 0.790287 0.754349 -0.141786
C31   C     C_R   0.397574 0.880133 0.663466 -0.210553
C32   C     C_R   0.452185 0.980754 0.727190 0.097682
C33   C     C_R   0.517754 0.981344 0.804635 0.117980
C34   C     C_R   0.445721 0.080456 0.717434 0.066006
C35   C     C_R   0.502537 0.177781 0.785284 0.066036
C36   C     C_R   0.563536 0.172043 0.860544 -0.179495
C37   C     C_R   0.571196 0.076114 0.869699 -0.217248
C38   C     C_R   0.384691 0.086196 0.642178 -0.179414
C39   C     C_R   0.377034 0.182124 0.633022 -0.217190
C40   C     C_R   0.430523 0.276892 0.698080 0.118070
C41   C     C_R   0.496106 0.277481 0.775524 0.097685
C42   C     C_R   0.417152 0.371445 0.685588 -0.125465
C43   C     C_R   0.469458 0.467939 0.748350 -0.141763
C44   C     C_R   0.550790 0.378099 0.839243 -0.210631
H14   H     H_    0.620972 0.076128 0.928845 0.118595
H15   H     H_    0.453624 0.539200 0.736603 0.091434
H16   H     H_    0.327241 0.182111 0.573877 0.118651
H17   H     H_    0.584098 0.887474 0.876066 0.143260
H18   H     H_    0.494863 0.719024 0.766089 0.091377
H19   H     H_    0.348315 0.872703 0.602684 0.092554
H20   H     H_    0.607909 0.240899 0.913989 0.123767
H21   H     H_    0.364225 0.370765 0.626643 0.143308
H22   H     H_    0.334240 0.667410 0.194525 0.154550
H23   H     H_    0.614930 0.590816 0.308141 0.154403
C45   C     C_2   0.314170 0.602320 0.318880 -0.351016
C46   C     C_2   0.476516 0.610972 0.285376 -0.130037
C47   C     C_2   0.634975 0.655939 0.183745 -0.350736
C48   C     C_2   0.472680 0.647265 0.217275 -0.129860
H24   H     H_    0.176091 0.622215 0.295639 0.126026
O11   O     O_R   0.421600 0.630430 0.917010 -0.539332
O12   O     O_R   0.793840 0.702190 0.087630 -0.542926
O13   O     O_R   0.964010 0.886170 0.088190 -0.535969
C49   C     C_R   0.631302 0.693225 0.116055 0.758169
O14   O     O_R   0.751460 0.619510 0.917500 -0.539205
O15   O     O_R   0.921330 0.802900 0.916840 -0.541862
C50   C     C_R   0.574509 0.579303 0.892311 0.684623
O16   O     O_R   0.464290 0.713700 0.088350 -0.537161
O17   O     O_3   0.609200 0.818520 0.002630 -0.374324
V3    V     V_3+5 0.884140 0.747190 0.002530 1.370443
O18   O     O_R   0.251150 0.814630 0.917340 -0.541871
C51   C     C_R   0.074799 0.824555 0.889966 0.692125
O19   O     O_R   0.293530 0.897310 0.087470 -0.542502
C52   C     C_R   0.131540 0.933979 0.115997 0.763429
V4    V     V_3+5 0.384070 0.769710 0.002370 1.371085
O20   O     O_3   0.109180 0.698190 0.002460 -0.374780
H25   H     H_    0.600057 0.385530 0.900024 0.092610
H26   H     H_    0.340287 0.017341 0.588735 0.123767
H27   H     H_    0.773101 0.636063 0.206961 0.125972
H28   H     H_    0.108124 0.178693 0.913940 0.123641

loop_
_geom_bond_atom_site_label_1
_geom_bond_atom_site_label_2
_ccdc_geom_bond_type
C33   C37   A    
C13   C19   A    
O17   V3    S    
C4    C6    S    
O2    C1    A    
O18   C51   A    
C42   H21   S    
C1    O6    A    
C28   C44   A    
C3    C25   S    
O11   C50   A    
C14   C15   A    
C1    C27   S    
C16   C17   A    
O5    C3    A    
C18   C19   A    
C8    H6    S    
O18   V4    S    
C32   C34   A    
C41   C44   A    
V2    O10   S    
O13   V3    S    
O19   C52   A    
C5    C8    A    
C31   C32   A    
C37   H14   S    
O14   V3    S    
C28   C43   A    
O12   V3    S    
C46   C48   S    
C23   C24   D    
C30   H18   S    
O8    V2    S    
H22   C48   S    
C49   O16   A    
C40   C42   A    
C17   H4    S    
C28   C50   S    
C47   H27   S    
O1    V2    S    
C11   C15   A    
O14   C50   A    
O7    V1    S    
O17   V4    S    
C22   H2    S    
C27   C30   A    
C45   H24   S    
O13   C52   A    
C23   C52   S    
C35   C41   A    
C34   C35   A    
C31   H19   S    
O9    C4    A    
C38   H26   S    
O19   V4    S    
O15   V3    S    
C24   C26   S    
H11   C24   S    
C36   H20   S    
C42   C43   A    
C12   C13   A    
H23   C46   S    
C15   H1    S    
C13   C14   A    
C23   H13   S    
C47   C48   D    
C21   H3    S    
C35   C36   A    
C7    C11   A    
C17   C18   A    
O11   V4    S    
C29   H17   S    
C16   H28   S    
V4    O20   S    
V3    O20   S    
C19   C22   A    
C5    C51   S    
C6    C22   A    
O3    C4    A    
C7    H5    S    
C9    H7    S    
H12   C25   S    
C25   C26   D    
O6    V2    S    
O9    V2    S    
C10   C12   A    
O2    V1    S    
C14   H8    S    
O4    C2    A    
C29   C33   A    
H10   C26   S    
C29   C30   A    
O1    C2    A    
C12   C16   A    
C45   C46   D    
O5    V1    S    
O8    C3    A    
O15   C51   A    
C44   H25   S    
C34   C38   A    
C20   C21   A    
C7    C8    A    
O7    V2    S    
O4    V1    S    
O3    V1    S    
V1    O10   S    
C39   C40   A    
C18   C20   A    
C32   C33   A    
C43   H15   S    
C47   C49   S    
C20   H9    S    
O12   C49   A    
C39   H16   S    
C36   C37   A    
C6    C21   A    
C5    C9    A    
C38   C39   A    
C40   C41   A    
C10   C11   A    
C9    C10   A    
C27   C31   A    
O16   V4    S    
C2    C45   S    
