data_mof_unit_11472.cif
_audit_creation_date              2012-12-11T15:51:14-0500
_audit_creation_method            fapswitch 2.2
_symmetry_space_group_name_H-M    P1
_symmetry_Int_Tables_number       1
_space_group_crystal_system       triclinic
_cell_length_a                    27.859642
_cell_length_b                    22.299318
_cell_length_c                    20.80661
_cell_angle_alpha                 90.088411
_cell_angle_beta                  52.446967
_cell_angle_gamma                 89.93732
_cell_volume                      10247.6526974

loop_
_atom_site_label
_atom_site_type_symbol
_atom_type_description
_atom_site_fract_x
_atom_site_fract_y
_atom_site_fract_z
_atom_type_partial_charge
C1    C     C_R   0.898397 0.563784 0.736565 -0.170299
C2    C     C_R   0.110570 0.637002 0.550562 0.069855
C3    C     C_R   0.393052 0.135057 0.666374 0.506882
C4    C     C_R   0.864090 0.611024 0.743177 -0.076077
C5    C     C_R   0.909161 0.362231 0.733253 -0.071700
C6    C     C_R   0.364058 0.111001 0.743146 -0.076399
C7    C     C_R   0.409108 0.862229 0.733247 -0.081553
C8    C     C_R   0.848378 0.388723 0.516938 -0.100064
C9    C     C_R   0.890864 0.641219 0.447480 -0.139771
C10   C     C_R   0.348432 0.888620 0.516832 -0.099661
C11   C     C_R   0.390369 0.140972 0.447993 -0.139297
C12   C     C_R   0.113694 0.434323 0.546111 -0.151531
C13   C     C_R   0.643770 0.885114 0.498950 0.043042
C14   C     C_R   0.094289 0.579200 0.576377 -0.169450
C15   C     C_R   0.613559 0.934208 0.546375 -0.150165
C16   C     C_R   0.594346 0.079219 0.576294 -0.168015
C17   C     C_R   0.102948 0.561046 0.264724 0.541171
C18   C     C_R   0.061838 0.418729 0.277089 0.615602
C19   C     C_R   0.602992 0.060964 0.264741 0.550525
C20   C     C_R   0.561846 0.918754 0.277074 0.610968
C21   C     C_R   0.088492 0.650821 0.507840 0.143891
C22   C     C_R   0.110249 0.361932 0.475506 0.174211
C23   C     C_R   0.588519 0.150813 0.507753 0.142360
C24   C     C_R   0.610651 0.137020 0.550395 0.068532
C25   C     C_R   0.610193 0.861865 0.475645 0.173963
C26   C     C_3   0.149867 0.841007 0.576504 -0.437665
C27   C     C_3   0.122337 0.899320 0.625162 -0.234431
C28   C     C_3   0.080858 0.928638 0.609432 -0.861136
C29   C     C_3   0.304660 0.251278 0.332208 -0.417750
C30   C     C_3   0.359514 0.238127 0.244425 -0.280352
C31   C     C_3   0.339775 0.221856 0.192393 -0.792604
C32   C     C_3   0.649915 0.341081 0.576287 -0.436117
C33   C     C_3   0.622341 0.399413 0.624874 -0.233845
C34   C     C_3   0.580915 0.428659 0.609002 -0.866852
C35   C     C_R   0.137515 0.607636 0.260798 -0.090555
C36   C     C_3   0.810387 0.755908 0.327034 -0.413089
C37   C     C_3   0.867831 0.748081 0.239533 -0.280844
C38   C     C_3   0.852279 0.734158 0.182301 -0.798235
C39   C     C_3   0.718511 0.226829 0.645641 -0.392207
C40   C     C_3   0.674949 0.201439 0.731629 -0.302388
C41   C     C_3   0.709324 0.176030 0.761121 -0.796188
C42   C     C_3   0.823295 0.836814 0.485009 -0.388313
C43   C     C_3   0.843271 0.902637 0.469717 -0.283396
C44   C     C_3   0.864846 0.921242 0.518899 -0.838892
C45   C     C_3   0.218313 0.726770 0.646062 -0.392057
C46   C     C_R   0.071918 0.358292 0.277269 -0.117160
C47   C     C_3   0.174647 0.702141 0.732468 -0.263352
C48   C     C_3   0.208941 0.677132 0.762278 -0.875568
C49   C     C_3   0.328061 0.339498 0.475999 -0.387308
C50   C     C_3   0.350644 0.404365 0.453502 -0.282309
C51   C     C_3   0.376157 0.425451 0.497008 -0.847149
C52   C     C_3   0.076500 0.713996 0.495113 -0.452876
C53   C     C_3   0.135252 0.750362 0.439553 -0.266298
C54   C     C_3   0.122616 0.811369 0.419561 -0.880377
C55   C     C_3   0.122775 0.301764 0.435081 -0.485384
C56   C     C_3   0.068580 0.259669 0.486193 -0.227722
C57   C     C_R   0.637691 0.107386 0.260850 -0.087980
C58   C     C_3   0.082241 0.197985 0.446587 -0.869550
C59   C     C_3   0.576649 0.213952 0.494769 -0.443825
C60   C     C_3   0.635520 0.250057 0.438748 -0.268625
C61   C     C_3   0.623254 0.310345 0.416692 -0.901368
C62   C     C_3   0.622831 0.801778 0.434994 -0.485399
C63   C     C_3   0.568722 0.759569 0.486015 -0.226626
C64   C     C_3   0.582442 0.697970 0.446182 -0.870722
C65   C     C_3   0.181191 0.676287 0.041413 -0.494348
C66   C     C_3   0.141641 0.728988 0.096515 -0.332305
C67   C     C_3   0.078095 0.725275 0.119629 -0.837994
C68   C     C_R   0.571904 0.858311 0.277246 -0.115645
C69   C     C_3   0.070766 0.269757 0.051952 -0.471513
C70   C     C_3   0.045517 0.218816 0.030108 -0.306384
C71   C     C_3   0.977453 0.226110 0.075061 -0.832376
C72   C     C_3   0.668703 0.249049 0.110045 -0.493765
C73   C     C_3   0.670071 0.293069 0.165794 -0.330933
C74   C     C_3   0.608764 0.323917 0.224426 -0.858789
C75   C     C_3   0.566550 0.762382 0.057378 -0.462815
C76   C     C_3   0.542012 0.708489 0.038852 -0.345676
C77   C     C_3   0.473420 0.712670 0.086419 -0.750490
C78   C     C_3   0.769998 0.265366 0.966818 0.117964
C79   C     C_3   0.677440 0.719473 0.946207 0.246842
C80   C     C_3   0.285129 0.723932 0.928914 0.114534
C81   C     C_R   0.924648 0.420536 0.730507 -0.203864
C82   C     C_3   0.180505 0.223286 0.943767 0.246471
C83   C     C_3   0.311243 0.793644 0.000537 0.715365
C84   C     C_3   0.182236 0.141636 0.026943 0.721029
C85   C     C_3   0.852901 0.269908 0.983961 0.715413
C86   C     C_3   0.685516 0.641869 0.028072 0.720637
C87   C     C_3   0.266986 0.755004 0.077756 0.119408
C88   C     C_3   0.132917 0.179701 0.103798 0.181858
C89   C     C_3   0.807889 0.234953 0.065219 0.117342
C90   C     C_3   0.635938 0.679501 0.105197 0.183331
C91   C     C_1   0.191072 0.630460 0.189984 -0.069064
C92   C     C_R   0.398364 0.063763 0.736553 -0.169401
C93   C     C_1   0.086680 0.316134 0.216907 -0.039625
C94   C     C_1   0.691258 0.130200 0.190027 -0.073836
C95   C     C_1   0.586587 0.816162 0.216896 -0.035749
C96   C     C_3   0.838697 0.252534 0.924083 -0.162169
C97   C     C_3   0.723767 0.685928 0.953294 -0.352948
C98   C     C_3   0.338492 0.752686 0.924186 -0.160863
C99   C     C_3   0.223778 0.185888 0.953282 -0.352694
C100  C     C_3   0.729648 0.219032 0.036086 0.398559
C101  C     C_3   0.636043 0.763713 0.020764 0.389460
C102  C     C_3   0.251572 0.676286 0.998365 0.394380
C103  C     C_R   0.424613 0.920529 0.730518 -0.200167
C104  C     C_3   0.139525 0.267366 0.018580 0.388989
C105  C     C_3   0.272006 0.686804 0.054659 -0.226774
C106  C     C_3   0.147132 0.248212 0.086106 -0.293394
C107  C     C_3   0.771358 0.187202 0.054973 -0.231836
C108  C     C_3   0.646951 0.748186 0.086133 -0.295022
C109  C     C_R   0.880354 0.434428 0.462758 0.398799
C110  C     C_R   0.908494 0.584018 0.418514 0.474210
C111  C     C_R   0.380384 0.934354 0.462681 0.399234
C112  C     C_R   0.408186 0.083844 0.418866 0.473584
C113  C     C_3   0.340904 0.667269 0.006001 0.916085
C114  C     C_R   0.066544 0.345409 0.345488 -0.206042
C115  C     C_3   0.214480 0.260415 0.054479 0.902944
C116  C     C_3   0.818936 0.144957 0.980739 0.913355
C117  C     C_3   0.714463 0.764134 0.050997 0.901560
C118  C     C_3   0.851971 0.184137 0.901493 0.190173
C119  C     C_3   0.758336 0.733715 0.966897 0.199782
C120  C     C_3   0.378136 0.701336 0.922093 0.191541
C121  C     C_3   0.258800 0.230225 0.970303 0.200458
C122  C     C_1   0.231668 0.653340 0.128804 0.201534
C123  C     C_1   0.108422 0.283233 0.160369 0.145258
C124  C     C_1   0.731629 0.153380 0.128945 0.210873
C125  C     C_R   0.106953 0.633968 0.335884 -0.192362
C126  C     C_1   0.608263 0.783269 0.160354 0.142625
C127  C     C_1   0.872674 0.289368 0.851803 0.196631
C128  C     C_1   0.768945 0.654247 0.878463 0.187045
C129  C     C_1   0.372562 0.789410 0.851831 0.205015
C130  C     C_1   0.268902 0.154202 0.878423 0.183443
C131  C     C_1   0.892510 0.321983 0.795819 -0.053409
C132  C     C_1   0.810984 0.632802 0.816547 -0.029115
C133  C     C_1   0.392432 0.821974 0.795802 -0.062687
C134  C     C_1   0.310937 0.132766 0.816499 -0.028621
C135  C     C_1   0.132049 0.677808 0.580631 -0.057267
C136  C     C_R   0.566514 0.845411 0.345484 -0.203544
C137  C     C_1   0.201165 0.364840 0.474652 -0.057118
C138  C     C_1   0.632214 0.177873 0.580292 -0.057541
C139  C     C_1   0.700675 0.864370 0.475828 -0.057324
C140  C     C_2   0.183488 0.753764 0.618402 0.080343
C141  C     C_2   0.303974 0.318588 0.430934 0.073511
C142  C     C_2   0.683604 0.253847 0.618111 0.086823
C143  C     C_2   0.802897 0.818446 0.434634 0.074551
C144  C     C_2   0.690367 0.311503 0.593090 0.076108
C145  C     C_2   0.826265 0.770709 0.383396 0.079109
C146  C     C_2   0.190356 0.811383 0.593208 0.079453
C147  C     C_R   0.607052 0.133842 0.335877 -0.204319
C148  C     C_2   0.324504 0.268791 0.383467 0.081832
C149  C     C_1   0.744366 0.342923 0.567061 -0.036592
C150  C     C_1   0.855307 0.724458 0.396334 -0.039700
C151  C     C_1   0.244408 0.842767 0.567053 -0.035919
C152  C     C_1   0.353834 0.223324 0.397042 -0.038441
C153  C     C_1   0.152933 0.712234 0.601802 -0.023632
C154  C     C_1   0.248943 0.346015 0.453862 -0.010419
C155  C     C_1   0.653108 0.212321 0.601418 -0.023925
C156  C     C_1   0.748171 0.845527 0.456044 -0.010678
C157  C     C_R   0.912514 0.652027 0.490503 0.497276
C158  C     C_R   0.143939 0.385276 0.498586 0.043834
C159  C     C_R   0.885844 0.364962 0.532564 0.401348
C160  C     C_R   0.412285 0.151951 0.490690 0.497355
C161  C     C_R   0.385887 0.864907 0.532495 0.399359
C162  C     C_1   0.791632 0.365068 0.543340 0.110846
C163  C     C_1   0.873801 0.686053 0.416224 0.141532
C164  C     C_1   0.291690 0.864924 0.543255 0.111539
C165  C     C_1   0.372733 0.185498 0.417090 0.142102
C166  C     C_R   0.922146 0.348492 0.659357 0.577032
C167  C     C_R   0.893046 0.635054 0.666396 0.507920
C168  C     C_R   0.422112 0.848495 0.659348 0.573224
H1    H     H_    0.889465 0.535835 0.785053 0.140517
H2    H     H_    0.087964 0.172208 0.117845 0.104891
H3    H     H_    0.804877 0.932125 0.486871 0.207584
H4    H     H_    0.785080 0.830386 0.550285 0.204108
H5    H     H_    0.861775 0.809108 0.470988 0.223455
H6    H     H_    0.239286 0.639923 0.722320 0.270049
H7    H     H_    0.236330 0.712933 0.762951 0.267543
H8    H     H_    0.176233 0.659670 0.824851 0.243266
H9    H     H_    0.143985 0.738612 0.774167 0.206398
H10   H     H_    0.146597 0.665799 0.734180 0.207024
H11   H     H_    0.247779 0.689933 0.603874 0.197364
H12   H     H_    0.248171 0.760027 0.645524 0.223241
H13   H     H_    0.776193 0.267789 0.111784 0.105988
H14   H     H_    0.340717 0.423355 0.563741 0.266868
H15   H     H_    0.415214 0.396994 0.479534 0.268000
H16   H     H_    0.391826 0.472544 0.479863 0.245754
H17   H     H_    0.386712 0.407574 0.386946 0.206416
H18   H     H_    0.312794 0.434628 0.470437 0.207426
H19   H     H_    0.291207 0.336439 0.542338 0.204318
H20   H     H_    0.366147 0.311146 0.462090 0.221422
H21   H     H_    0.959264 0.703404 0.506639 0.335676
H22   H     H_    0.923396 0.290988 0.522398 0.347251
H23   H     H_    0.459153 0.203541 0.506382 0.335362
H24   H     H_    0.590596 0.669205 0.121851 0.104359
H25   H     H_    0.423525 0.790969 0.522239 0.347681
H26   H     H_    0.915178 0.262429 0.673479 0.321629
H27   H     H_    0.838428 0.701573 0.697634 0.335761
H28   H     H_    0.414988 0.762442 0.673507 0.337255
H29   H     H_    0.338527 0.201658 0.697601 0.337265
H30   H     H_    0.155122 0.540423 0.150936 0.318876
H31   H     H_    0.046860 0.415009 0.197673 0.306159
H32   H     H_    0.654341 0.041493 0.150568 0.326002
H33   H     H_    0.546848 0.915067 0.197674 0.308741
H34   H     H_    0.103558 0.805611 0.386088 0.266035
H35   H     H_    0.832662 0.172172 0.869243 0.167544
H36   H     H_    0.090160 0.837243 0.476088 0.265732
H37   H     H_    0.165448 0.837108 0.380974 0.252625
H38   H     H_    0.156715 0.757588 0.469369 0.201406
H39   H     H_    0.169068 0.726069 0.382297 0.208305
H40   H     H_    0.051572 0.713098 0.469484 0.189689
H41   H     H_    0.046726 0.736694 0.555064 0.200823
H42   H     H_    0.093691 0.201828 0.385433 0.272775
H43   H     H_    0.120721 0.176726 0.440991 0.261604
H44   H     H_    0.041833 0.168838 0.484534 0.258309
H45   H     H_    0.057086 0.254415 0.547300 0.219426
H46   H     H_    0.774613 0.768961 0.920374 0.168745
H47   H     H_    0.028810 0.279005 0.493774 0.231863
H48   H     H_    0.137789 0.307232 0.372646 0.209248
H49   H     H_    0.161758 0.280277 0.427982 0.196115
H50   H     H_    0.604342 0.303428 0.383217 0.267770
H51   H     H_    0.590793 0.337068 0.472356 0.270039
H52   H     H_    0.666201 0.335813 0.377422 0.252959
H53   H     H_    0.656526 0.258301 0.468979 0.201931
H54   H     H_    0.669588 0.225041 0.382302 0.198602
H55   H     H_    0.551523 0.212943 0.469418 0.189379
H56   H     H_    0.547084 0.236899 0.554560 0.198931
H57   H     H_    0.388825 0.668577 0.874239 0.169223
H58   H     H_    0.593835 0.701945 0.385071 0.272431
H59   H     H_    0.620974 0.676704 0.440447 0.261437
H60   H     H_    0.542079 0.668755 0.484057 0.259315
H61   H     H_    0.557309 0.754183 0.547059 0.218305
H62   H     H_    0.528881 0.778893 0.493767 0.232097
H63   H     H_    0.637751 0.807382 0.372625 0.210252
H64   H     H_    0.661941 0.780344 0.427649 0.196570
H65   H     H_    0.080134 0.728464 0.064733 0.255831
H66   H     H_    0.056148 0.682379 0.151278 0.271701
H67   H     H_    0.050012 0.762935 0.160985 0.246006
H68   H     H_    0.277869 0.266105 0.924051 0.167424
H69   H     H_    0.136233 0.727046 0.153918 0.213491
H70   H     H_    0.161660 0.772481 0.065650 0.221583
H71   H     H_    0.175517 0.672576 0.993027 0.195402
H72   H     H_    0.161336 0.634549 0.077697 0.229386
H73   H     H_    0.952889 0.222740 0.141543 0.255507
H74   H     H_    0.967426 0.270223 0.060870 0.250501
H75   H     H_    0.960952 0.190136 0.056023 0.282571
H76   H     H_    0.067703 0.220004 0.964061 0.236305
H77   H     H_    0.053375 0.174326 0.045864 0.218876
H78   H     H_    0.040446 0.274599 0.118881 0.182705
H79   H     H_    0.126528 0.462164 0.575821 0.118356
H80   H     H_    0.063801 0.311641 0.029511 0.237451
H81   H     H_    0.596975 0.350298 0.190545 0.260587
H82   H     H_    0.572861 0.290143 0.262774 0.265051
H83   H     H_    0.610767 0.354944 0.264528 0.250086
H84   H     H_    0.679380 0.268267 0.203375 0.211701
H85   H     H_    0.704597 0.328370 0.129806 0.222558
H86   H     H_    0.648269 0.273071 0.085155 0.192425
H87   H     H_    0.636064 0.212913 0.148950 0.229355
H88   H     H_    0.450523 0.711912 0.152631 0.243947
H89   H     H_    0.461010 0.754576 0.070856 0.269145
H90   H     H_    0.094606 0.558015 0.622835 0.114144
H91   H     H_    0.457274 0.673818 0.070952 0.277336
H92   H     H_    0.562557 0.708086 0.973309 0.242580
H93   H     H_    0.552366 0.665500 0.054707 0.218628
H94   H     H_    0.537516 0.768172 0.124135 0.180999
H95   H     H_    0.556968 0.802517 0.035072 0.241576
H96   H     H_    0.626261 0.961947 0.576325 0.118639
H97   H     H_    0.929935 0.442394 0.772286 0.135797
H98   H     H_    0.594723 0.058048 0.622708 0.115060
H99   H     H_    0.059808 0.300788 0.369131 0.157936
H100  H     H_    0.122232 0.671682 0.350273 0.157521
H101  H     H_    0.559746 0.800791 0.369143 0.156916
H102  H     H_    0.622303 0.171641 0.350153 0.155160
H103  H     H_    0.341873 0.849993 0.040143 0.337908
H104  H     H_    0.192584 0.074157 0.077698 0.349404
H105  H     H_    0.924602 0.275423 0.980479 0.333886
H106  H     H_    0.700694 0.577509 0.077659 0.347660
H107  H     H_    0.878735 0.353685 0.953685 0.331747
H108  H     H_    0.389407 0.035804 0.785047 0.140000
H109  H     H_    0.686713 0.570472 0.972019 0.335935
H110  H     H_    0.306818 0.872846 0.962774 0.333717
H111  H     H_    0.182563 0.072711 0.968098 0.338060
H112  H     H_    0.258439 0.802516 0.163147 0.327985
H113  H     H_    0.104198 0.124687 0.193056 0.326360
H114  H     H_    0.847528 0.240092 0.116469 0.326402
H115  H     H_    0.611863 0.626383 0.194472 0.325042
H116  H     H_    0.929264 0.181019 0.793007 0.323186
H117  H     H_    0.810387 0.669950 0.961930 0.370904
H118  H     H_    0.461662 0.727194 0.841753 0.326961
H119  H     H_    0.429876 0.942376 0.772327 0.139534
H120  H     H_    0.307290 0.162458 0.965616 0.370974
H121  H     H_    0.329905 0.583808 0.041583 0.338794
H122  H     H_    0.212090 0.340528 0.096594 0.342731
H123  H     H_    0.775529 0.068344 0.016900 0.338517
H124  H     H_    0.709822 0.845759 0.091027 0.343539
H125  H     H_    0.721038 0.288218 0.932714 0.317627
H126  H     H_    0.734036 0.777951 0.861823 0.360259
H127  H     H_    0.272345 0.695826 0.851693 0.319499
H128  H     H_    0.240906 0.280839 0.861622 0.359859
H129  H     H_    0.681642 0.190461 0.000186 0.346859
H130  H     H_    0.759848 0.311508 0.992853 0.120166
H131  H     H_    0.631083 0.850953 0.038476 0.336513
H132  H     H_    0.256867 0.607885 0.932607 0.350928
H133  H     H_    0.137597 0.354085 0.037981 0.335181
H134  H     H_    0.904701 0.458285 0.359749 0.344593
H135  H     H_    0.958499 0.540243 0.318959 0.341467
H136  H     H_    0.404836 0.957929 0.359530 0.345147
H137  H     H_    0.458126 0.040207 0.319195 0.342888
H138  H     H_    0.376516 0.721049 0.043368 0.397925
H139  H     H_    0.231118 0.195902 0.104453 0.380562
H140  H     H_    0.893777 0.146038 0.973129 0.401714
H141  H     H_    0.650380 0.683448 0.946500 0.150909
H142  H     H_    0.736043 0.703196 0.099282 0.379274
H143  H     H_    0.106680 0.939530 0.544084 0.259972
H144  H     H_    0.042913 0.898149 0.627939 0.261632
H145  H     H_    0.061761 0.970789 0.645109 0.261548
H146  H     H_    0.095704 0.889566 0.690998 0.208454
H147  H     H_    0.158896 0.931426 0.607959 0.212400
H148  H     H_    0.177237 0.851048 0.510662 0.206157
H149  H     H_    0.111944 0.811291 0.593018 0.202211
H150  H     H_    0.310659 0.181312 0.216803 0.262281
H151  H     H_    0.314322 0.259619 0.191114 0.268187
H152  H     H_    0.253175 0.760674 0.941802 0.120807
H153  H     H_    0.380312 0.212330 0.129391 0.251621
H154  H     H_    0.389161 0.278310 0.218224 0.205077
H155  H     H_    0.386148 0.200159 0.242780 0.223804
H156  H     H_    0.275531 0.210765 0.358922 0.198955
H157  H     H_    0.277735 0.287334 0.330926 0.193179
H158  H     H_    0.606786 0.439498 0.543631 0.260829
H159  H     H_    0.542993 0.398143 0.627479 0.262176
H160  H     H_    0.561783 0.470830 0.644620 0.258945
H161  H     H_    0.595660 0.389700 0.690728 0.207255
H162  H     H_    0.658878 0.431542 0.607696 0.211745
H163  H     H_    0.152804 0.189423 0.941689 0.149524
H164  H     H_    0.677319 0.351091 0.510431 0.205045
H165  H     H_    0.612010 0.311346 0.592780 0.201658
H166  H     H_    0.825728 0.692013 0.200787 0.263396
H167  H     H_    0.825596 0.771455 0.182765 0.268457
H168  H     H_    0.894649 0.728514 0.119608 0.248989
H169  H     H_    0.895049 0.789934 0.219154 0.205795
H170  H     H_    0.895797 0.710746 0.236137 0.220187
H171  H     H_    0.783562 0.713775 0.347878 0.198956
H172  H     H_    0.782407 0.791624 0.327407 0.193890
H173  H     H_    0.740100 0.139332 0.720358 0.258095
H174  H     H_    0.220713 0.770878 0.105722 0.105183
H175  H     H_    0.736254 0.211779 0.762890 0.276045
H176  H     H_    0.676663 0.157730 0.823213 0.251081
H177  H     H_    0.644040 0.237555 0.773898 0.210770
H178  H     H_    0.647150 0.165133 0.732694 0.211117
H179  H     H_    0.748383 0.190396 0.602935 0.196899
H180  H     H_    0.747953 0.260223 0.645809 0.223325
H181  H     H_    0.827800 0.915803 0.584746 0.267502
H182  H     H_    0.904318 0.893565 0.501535 0.269010
H183  H     H_    0.878728 0.969059 0.506860 0.245078
H184  H     H_    0.880834 0.909213 0.404209 0.207252
N1    N     N_R   0.945170 0.558260 0.657960 -0.065535
N2    N     N_R   0.935930 0.399220 0.495700 -0.131281
N3    N     N_R   0.435930 0.100780 0.495700 -0.140675
N4    N     N_R   0.435930 0.899220 0.495700 -0.131219
N5    N     N_R   0.942620 0.398370 0.613240 -0.085154
N6    N     N_R   0.942620 0.601630 0.613240 -0.087912
N7    N     N_R   0.442620 0.898370 0.613240 -0.084610
N8    N     N_R   0.442620 0.101630 0.613240 -0.087898
N9    N     N_R   0.064810 0.441760 0.549020 -0.052917
N10   N     N_R   0.064810 0.558240 0.549020 -0.048181
N11   N     N_R   0.564810 0.941760 0.549020 -0.052874
N12   N     N_R   0.945170 0.441740 0.657960 -0.068029
N13   N     N_R   0.564810 0.058240 0.549020 -0.048274
N14   N     N_R   0.053030 0.555470 0.342040 -0.086649
N15   N     N_R   0.053030 0.444530 0.342040 -0.083596
N16   N     N_R   0.553030 0.055470 0.342040 -0.087948
N17   N     N_R   0.553030 0.944530 0.342040 -0.084366
N18   N     N_R   0.062260 0.600860 0.504300 -0.063628
N19   N     N_R   0.062260 0.399140 0.504300 -0.059440
N20   N     N_R   0.562260 0.100860 0.504300 -0.063120
N21   N     N_R   0.562260 0.899140 0.504300 -0.059357
N22   N     N_R   0.055570 0.396370 0.386760 -0.078090
N23   N     N_R   0.445170 0.058260 0.657960 -0.065777
N24   N     N_R   0.055570 0.603630 0.386760 -0.083472
N25   N     N_R   0.555570 0.896370 0.386760 -0.078057
N26   N     N_R   0.555570 0.103630 0.386760 -0.081794
N27   N     N_R   0.445170 0.941740 0.657960 -0.068141
N28   N     N_R   0.933380 0.440900 0.450980 -0.133340
N29   N     N_R   0.933380 0.559100 0.450980 -0.144225
N30   N     N_R   0.433380 0.940900 0.450980 -0.133517
N31   N     N_R   0.433380 0.059100 0.450980 -0.144697
N32   N     N_R   0.935930 0.600780 0.495700 -0.140551
Ni1   Ni    Ni4+2 0.004930 0.500000 0.602560 0.196691
Ni2   Ni    Ni4+2 0.504930 0.000000 0.602560 0.198131
Ni3   Ni    Ni4+2 0.993260 0.500000 0.397440 0.238584
Ni4   Ni    Ni4+2 0.493260 1.000000 0.397440 0.240071
Ni5   Ni    Ni4+2 0.999100 0.599910 0.500000 0.199616
Ni6   Ni    Ni4+2 0.999100 0.400090 0.500000 0.204196
Ni7   Ni    Ni4+2 0.499100 0.099910 0.500000 0.199358
Ni8   Ni    Ni4+2 0.499100 0.900090 0.500000 0.204304
O1    O     O_3   0.358686 0.816759 0.000038 -0.714335
O2    O     O_3   0.127863 0.162481 0.172819 -0.708540
O3    O     O_3   0.837734 0.207843 0.093186 -0.711358
O4    O     O_3   0.633885 0.664987 0.172721 -0.709305
O5    O     O_3   0.914609 0.172002 0.849013 -0.692024
O6    O     O_3   0.811978 0.713650 0.953472 -0.708823
O7    O     O_3   0.433198 0.723446 0.901682 -0.698057
O8    O     O_3   0.310273 0.206492 0.959847 -0.709963
O9    O     O_3   0.348197 0.605188 0.989641 -0.692562
O10   O     O_3   0.227159 0.322531 0.043643 -0.723120
O11   O     O_3   0.789774 0.097328 0.972443 -0.689974
O12   O     O_3   0.217484 0.108253 0.041986 -0.778683
O13   O     O_3   0.724400 0.826626 0.038870 -0.720433
O14   O     O_3   0.758196 0.264038 0.909780 -0.724625
O15   O     O_3   0.704585 0.747803 0.870705 -0.696285
O16   O     O_3   0.307059 0.698141 0.853571 -0.724024
O17   O     O_3   0.210684 0.252795 0.868428 -0.697623
O18   O     O_3   0.711447 0.173924 0.006939 -0.679468
O19   O     O_3   0.656495 0.822705 0.992393 -0.688740
O20   O     O_3   0.272090 0.618349 0.963694 -0.677866
O21   O     O_3   0.162759 0.325899 0.991747 -0.691281
O22   O     O_3   0.866368 0.458584 0.415594 -0.713255
O23   O     O_3   0.913587 0.254924 0.948752 -0.712539
O24   O     O_3   0.923111 0.567515 0.344852 -0.719618
O25   O     O_3   0.366480 0.958356 0.415357 -0.711805
O26   O     O_3   0.422596 0.067311 0.345328 -0.715958
O27   O     O_3   0.362305 0.679186 0.051476 -0.715501
O28   O     O_3   0.223459 0.239609 0.110877 -0.707637
O29   O     O_3   0.859656 0.118682 0.992050 -0.692379
O30   O     O_3   0.726555 0.746521 0.105380 -0.705705
O31   O     O_3   0.929797 0.708509 0.495397 -0.720204
O32   O     O_3   0.881477 0.306982 0.557043 -0.717110
O33   O     O_3   0.429490 0.208510 0.495460 -0.720460
O34   O     O_3   0.723598 0.611849 0.040931 -0.779992
O35   O     O_3   0.381586 0.806911 0.556887 -0.717203
O36   O     O_3   0.931057 0.291497 0.628792 -0.788830
O37   O     O_3   0.876093 0.685679 0.647338 -0.750876
O38   O     O_3   0.431031 0.791503 0.628774 -0.787156
O39   O     O_3   0.376192 0.185754 0.647315 -0.750250
O40   O     O_3   0.115217 0.527986 0.200525 -0.727893
O41   O     O_3   0.040792 0.444082 0.238129 -0.738872
O42   O     O_3   0.614968 0.028278 0.200442 -0.717894
O43   O     O_3   0.540777 0.944120 0.238151 -0.734933
O44   O     O_3   0.843754 0.332087 0.001107 -0.825153
O45   O     O_3   0.655709 0.598931 0.013736 -0.824033
O46   O     O_3   0.277845 0.841539 0.000499 -0.826066
O47   O     O_3   0.152141 0.101661 0.009583 -0.820646
O48   O     O_3   0.276537 0.763228 0.136403 -0.708306

loop_
_geom_bond_atom_site_label_1
_geom_bond_atom_site_label_2
_ccdc_geom_bond_type
N10   Ni1   S    
C7    C168  A    
C113  O27   S    
C160  N3    A    
C161  N4    A    
C111  N30   A    
C152  C165  T    
C159  O32   S    
H109  O45   S    
C150  C163  T    
C76   H92   S    
C137  C158  S    
N10   N18   A    
C13   C139  S    
C3    O39   S    
C7    C133  S    
C51   H15   S    
C117  C119  S    
C85   C96   S    
C141  C154  S    
C113  O9    S    
C82   C99   S    
C56   H47   S    
N13   N20   A    
C78   C96   S    
H21   O31   S    
C91   C122  T    
C32   H164  S    
C92   H108  S    
H125  O14   S    
C99   C121  S    
C48   H7    S    
N5    N12   A    
C23   N20   A    
C59   C60   S    
C130  C134  T    
C77   H88   S    
C107  C124  S    
H131  O19   S    
C79   C97   S    
H135  O24   S    
C45   C47   S    
C75   H95   S    
C136  N25   A    
C68   C95   S    
C161  O35   S    
C61   H51   S    
C33   H162  S    
C86   C90   S    
C119  O6    S    
N9    Ni1   S    
C85   O23   S    
H127  O16   S    
N28   Ni3   S    
C89   H13   S    
C3    N8    A    
C75   C76   S    
N16   N26   A    
C37   C38   S    
C113  C120  S    
C68   C136  A    
C54   H37   S    
C17   N14   A    
H31   O41   S    
C10   C111  A    
C30   H154  S    
C19   N16   A    
C103  H119  S    
H137  O26   S    
H27   O37   S    
C63   H62   S    
C129  C133  T    
C62   H64   S    
C57   C147  A    
C12   N9    A    
C142  C144  D    
C38   H167  S    
C72   H87   S    
H129  O18   S    
C15   N11   A    
C9    C110  A    
C44   H181  S    
C32   H165  S    
C82   O17   S    
C20   C68   A    
C84   C88   S    
C72   C73   S    
C160  O33   S    
C98   C120  S    
C12   H79   S    
N2    Ni6   S    
C17   O40   S    
C106  C115  S    
C167  O37   S    
N1    Ni1   S    
C8    C162  S    
C49   H20   S    
C6    C92   A    
H117  O6    S    
C98   C129  S    
C28   H143  S    
C116  C118  S    
C25   C62   S    
C69   C70   S    
C2    C14   A    
C127  C131  T    
C32   C144  S    
C59   H56   S    
C70   H77   S    
C1    N1    A    
C42   C143  S    
C75   C101  S    
C82   C104  S    
C149  C162  T    
C108  C126  S    
N21   Ni8   S    
H107  O44   S    
C115  C121  S    
N8    Ni7   S    
C3    C6    A    
C60   H53   S    
C29   C148  S    
C74   H83   S    
C4    C132  S    
C90   H24   S    
N5    Ni6   S    
C23   C59   S    
C19   O42   S    
C105  C113  S    
C36   C37   S    
C87   H174  S    
C147  H102  S    
H124  O13   S    
C109  O22   S    
C39   H180  S    
C83   O1    S    
C78   O14   S    
C80   O16   S    
C26   C146  S    
C41   H176  S    
H28   O38   S    
N31   Ni4   S    
N18   Ni5   S    
C84   O47   S    
C83   C98   S    
C25   N21   A    
N29   N32   A    
C23   C24   A    
C109  N28   A    
C145  C150  S    
C66   C67   S    
C44   H183  S    
C27   H147  S    
C66   H70   S    
C81   H97   S    
C36   H172  S    
C97   C128  S    
C166  N5    A    
C48   H6    S    
C110  N29   A    
C14   N10   A    
C159  N2    A    
N14   N24   A    
C39   C40   S    
C43   H3    S    
C40   H178  S    
C34   H159  S    
C27   H146  S    
H118  O7    S    
C80   C102  S    
C97   C119  S    
C29   C30   S    
C87   C105  S    
C121  H68   S    
C103  N27   A    
C53   H38   S    
H123  O11   S    
C5    C166  A    
C136  H101  S    
H121  O9    S    
C92   N23   A    
C57   C94   S    
C101  O19   S    
C50   H18   S    
C74   H81   S    
C41   H173  S    
C52   C53   S    
C11   C165  S    
C115  O28   S    
C108  C117  S    
C148  C152  S    
C71   H74   S    
C72   H86   S    
C89   O3    S    
H22   O32   S    
N19   Ni6   S    
C38   H166  S    
C2    C135  S    
H32   O42   S    
H104  O12   S    
C73   H84   S    
H113  O2    S    
C90   C108  S    
C66   H69   S    
N32   Ni5   S    
C77   H89   S    
C8    C159  A    
C95   C126  T    
H25   O35   S    
H26   O36   S    
C56   C58   S    
C16   N13   A    
C107  C116  S    
H120  O8    S    
C146  C151  S    
C36   C145  S    
C78   H130  S    
C18   N15   A    
C119  H46   S    
C49   C50   S    
C77   H91   S    
C87   O48   S    
C79   C101  S    
C12   C158  A    
C64   H59   S    
C83   O46   S    
C54   H34   S    
H103  O1    S    
C138  C155  T    
C83   C87   S    
C55   C56   S    
C67   H66   S    
H112  O48   S    
C73   C74   S    
C64   H60   S    
C117  O30   S    
N7    N27   A    
C104  C106  S    
C43   H184  S    
C55   H49   S    
N20   Ni7   S    
C19   C57   A    
C168  N7    A    
N2    N28   A    
C26   C27   S    
C114  N22   A    
N15   N22   A    
C33   H161  S    
C22   N19   A    
C47   H10   S    
C30   C31   S    
H134  O22   S    
N23   Ni2   S    
C102  C105  S    
C79   O15   S    
N24   Ni5   S    
C9    C163  S    
C45   H12   S    
C11   C112  A    
C21   N18   A    
C112  N31   A    
C49   C141  S    
C65   H72   S    
C70   C71   S    
C112  O26   S    
C140  C153  S    
C63   H61   S    
N8    N23   A    
C101  C108  S    
H138  O27   S    
C38   H168  S    
C18   C46   A    
C11   C160  A    
H106  O34   S    
C88   H2    S    
C79   H141  S    
C44   H182  S    
C61   H50   S    
C18   O41   S    
C51   H16   S    
C14   H90   S    
C140  C146  D    
C85   C89   S    
C117  O13   S    
C22   C158  A    
C53   C54   S    
C45   C140  S    
C60   C61   S    
H111  O47   S    
C62   C63   S    
C5    C81   A    
C49   H19   S    
C39   C142  S    
C9    C157  A    
C104  O21   S    
C88   O2    S    
C89   C107  S    
C2    C21   A    
C50   C51   S    
C28   H144  S    
H139  O28   S    
C59   H55   S    
C73   H85   S    
C116  O29   S    
H114  O3    S    
C10   C161  A    
N27   Ni2   S    
C78   C100  S    
C52   H41   S    
H128  O17   S    
C42   C43   S    
H33   O43   S    
H126  O15   S    
H29   O39   S    
C99   C130  S    
C80   C98   S    
C84   C99   S    
H30   O40   S    
N9    N19   A    
H115  O4    S    
C60   H54   S    
C86   O45   S    
C22   C55   S    
C58   H44   S    
C4    C167  A    
C32   C33   S    
C81   N12   A    
C71   H75   S    
H110  O46   S    
C114  H99   S    
H122  O10   S    
C31   H150  S    
C37   H169  S    
C54   H36   S    
C39   H179  S    
C137  C154  T    
C29   H157  S    
C41   H175  S    
C69   H78   S    
C5    C131  S    
N17   N25   A    
C96   C127  S    
C47   H9    S    
C62   H63   S    
C17   C35   A    
C16   H98   S    
C37   H170  S    
C76   H93   S    
N17   Ni4   S    
C102  O20   S    
C29   H156  S    
C118  H35   S    
C61   H52   S    
C43   C44   S    
C51   H14   S    
C64   H58   S    
C166  O36   S    
C46   C93   S    
C67   H67   S    
N4    N30   A    
C96   C118  S    
C34   H160  S    
C110  O24   S    
C35   C125  A    
C157  N32   A    
C100  O18   S    
C31   H153  S    
C125  N24   A    
C15   H96   S    
C141  C148  D    
C70   H76   S    
C86   O34   S    
C93   C123  T    
C106  C123  S    
C105  C122  S    
C116  O11   S    
C90   O4    S    
C147  N26   A    
C142  C155  S    
N1    N6    A    
N22   Ni6   S    
C75   H94   S    
C16   C24   A    
C13   C25   A    
C65   C102  S    
H142  O30   S    
N11   Ni2   S    
C128  C132  T    
C74   H82   S    
C58   H42   S    
C46   C114  A    
H132  O20   S    
N14   Ni3   S    
H133  O21   S    
C76   C77   S    
C71   H73   S    
C55   H48   S    
N3    N31   A    
H136  O25   S    
C24   C138  S    
C28   H145  S    
C26   H148  S    
C63   C64   S    
N7    Ni8   S    
C144  C149  S    
H140  O29   S    
C88   C106  S    
N29   Ni3   S    
C69   H80   S    
C47   C48   S    
N30   Ni4   S    
C118  O5    S    
C157  O31   S    
C33   C34   S    
N12   Ni1   S    
N3    Ni7   S    
N16   Ni4   S    
C168  O38   S    
C80   H152  S    
C115  O10   S    
C56   H45   S    
C42   H4    S    
C167  N6    A    
N15   Ni3   S    
C40   C41   S    
C26   H149  S    
C151  C164  T    
C13   C15   A    
C125  H100  S    
C20   N17   A    
C86   C97   S    
C36   H171  S    
N13   Ni2   S    
C111  O25   S    
C72   C100  S    
C69   C104  S    
C143  C145  D    
C67   H65   S    
C100  C107  S    
C10   C164  S    
C52   H40   S    
C42   H5    S    
C40   H177  S    
C34   H158  S    
C30   H155  S    
C135  C153  T    
C1    C4    A    
N6    Ni5   S    
C6    C134  S    
C8    C109  A    
C121  O8    S    
C143  C156  S    
C120  O7    S    
C139  C156  T    
C1    H1    S    
C53   H39   S    
C20   O43   S    
C84   O12   S    
N25   Ni8   S    
C58   H43   S    
C82   H163  S    
H105  O23   S    
N26   Ni7   S    
H23   O33   S    
C85   O44   S    
C45   H11   S    
C31   H151  S    
C65   C66   S    
C27   C28   S    
C65   H71   S    
C7    C103  A    
H116  O5    S    
C48   H8    S    
C50   H17   S    
C120  H57   S    
N11   N21   A    
C21   C52   S    
N4    Ni8   S    
C35   C91   S    
C94   C124  T    
