data_mof_unit_43877.cif
_audit_creation_date              2012-12-11T15:23:46-0500
_audit_creation_method            fapswitch 2.2
_symmetry_space_group_name_H-M    P1
_symmetry_Int_Tables_number       1
_space_group_crystal_system       triclinic
_cell_length_a                    17.418531
_cell_length_b                    24.555118
_cell_length_c                    15.209125
_cell_angle_alpha                 90.272052
_cell_angle_beta                  127.191574
_cell_angle_gamma                 90.006556
_cell_volume                      5182.0356978

loop_
_atom_site_label
_atom_site_type_symbol
_atom_type_description
_atom_site_fract_x
_atom_site_fract_y
_atom_site_fract_z
_atom_type_partial_charge
C1    C     C_R   0.311821 0.372041 0.909470 -0.145615
C2    C     C_R   0.683264 0.367516 0.091539 -0.106432
C3    C     C_R   0.825055 0.860352 0.905625 -0.083564
C4    C     C_R   0.186905 0.871393 0.093395 -0.087336
C5    C     C_R   0.367214 0.676281 0.996693 0.232680
C6    C     C_R   0.620101 0.680489 0.003891 0.268018
C7    C     C_R   0.875004 0.179039 0.996688 0.215247
C8    C     C_R   0.120055 0.182357 0.001189 0.182036
C9    C     C_R   0.475709 0.502133 0.297775 0.175331
C10   C     C_R   0.466134 0.499991 0.654326 0.224104
C11   C     C_R   0.967154 0.001862 0.289433 0.181925
C12   C     C_R   0.970781 0.999264 0.656960 0.213596
C13   C     C_R   0.197490 0.500109 0.626014 -0.288518
C14   C     C_R   0.831783 0.501818 0.316620 -0.114471
C15   C     C_R   0.692565 0.999980 0.626480 -0.199493
C16   C     C_R   0.331387 0.001446 0.330572 -0.073444
C17   C     C_2   0.003180 0.467924 0.426432 0.206824
C18   C     C_2   0.091585 0.469429 0.432095 0.484228
C19   C     C_2   0.495733 0.963165 0.411455 0.228913
C20   C     C_2   0.586278 0.976181 0.423271 0.377994
C21   C     C_2   0.935290 0.506243 0.362741 0.410885
C22   C     C_2   0.168718 0.498386 0.512635 0.488482
C23   C     C_2   0.440041 0.005057 0.402580 0.454083
C24   C     C_2   0.666892 0.999544 0.513686 0.476818
C25   C     C_R   0.244201 0.715973 0.997763 -0.426388
C26   C     C_R   0.771633 0.715015 0.065821 -0.443102
C27   C     C_R   0.738967 0.215662 0.974151 -0.411100
C28   C     C_R   0.218533 0.262911 0.103994 -0.451890
C29   C     C_R   0.688645 0.258539 0.974555 0.616064
C30   C     C_R   0.270904 0.307016 0.108075 0.633094
C31   C     C_R   0.198124 0.760538 0.000528 0.610128
C32   C     C_R   0.827243 0.752003 0.060010 0.621486
C33   C     C_R   0.730088 0.310463 0.998842 -0.333239
C34   C     C_R   0.245615 0.328105 0.007283 -0.307236
C35   C     C_R   0.233239 0.812411 0.003615 -0.318237
C36   C     C_R   0.781403 0.798070 0.995138 -0.306546
C37   C     C_R   0.817426 0.320955 0.016345 0.424222
C38   C     C_R   0.153020 0.316539 0.909617 0.444736
C39   C     C_R   0.310561 0.820740 0.999610 0.409624
C40   C     C_R   0.682907 0.808816 0.938932 0.392891
C41   C     C_R   0.358873 0.775226 0.000744 0.454553
C42   C     C_R   0.626548 0.769745 0.941300 0.464396
C43   C     C_R   0.868840 0.277170 0.018184 0.458627
C44   C     C_R   0.103277 0.270914 0.905941 0.489783
C45   C     C_R   0.435020 0.648227 0.089917 -0.156185
C46   C     C_R   0.558961 0.650022 0.910637 -0.121347
C47   C     C_R   0.938744 0.149612 0.089672 -0.146776
C48   C     C_R   0.059821 0.149769 0.909455 -0.160198
C49   C     C_R   0.322104 0.723724 0.995930 -0.192115
C50   C     C_R   0.673351 0.724488 0.008348 -0.189869
C51   C     C_R   0.827057 0.225344 0.994596 -0.192413
C52   C     C_R   0.144744 0.239711 0.002775 -0.143945
C53   C     C_R   0.514957 0.540316 0.553252 -0.283519
C54   C     C_R   0.517155 0.541601 0.465473 -0.239332
C55   C     C_R   0.015453 0.039384 0.551026 -0.273841
C56   C     C_R   0.013286 0.041233 0.460051 -0.232004
C57   C     C_R   0.460222 0.505123 0.378644 -0.110698
C58   C     C_R   0.458059 0.501550 0.555876 -0.091551
C59   C     C_R   0.954501 0.004867 0.373125 -0.108067
C60   C     C_R   0.961557 0.000013 0.557340 -0.113368
C61   C     C_R   0.395936 0.469236 0.374727 0.416244
C62   C     C_R   0.398700 0.464811 0.468118 0.502644
C63   C     C_R   0.893584 0.968161 0.373678 0.417584
C64   C     C_R   0.901584 0.962909 0.470275 0.520616
C65   C     C_R   0.500179 0.455382 0.269068 -0.097804
C66   C     C_R   0.469569 0.454048 0.707758 -0.152799
C67   C     C_R   0.992401 0.955026 0.261245 -0.131626
C68   C     C_R   0.972215 0.953676 0.709800 -0.136142
C69   C     C_R   0.246077 0.544808 0.693861 -0.169668
C70   C     C_R   0.770356 0.546202 0.271887 -0.234120
C71   C     C_R   0.742983 0.044654 0.695248 -0.134515
C72   C     C_R   0.269999 0.046017 0.279880 -0.248943
C73   C     C_R   0.492840 0.546826 0.258787 -0.181446
C74   C     C_R   0.469446 0.545586 0.709253 -0.133026
C75   C     C_R   0.987711 0.046595 0.253530 -0.171004
C76   C     C_R   0.972400 0.045203 0.710650 -0.129712
C77   C     C_R   0.242679 0.455247 0.694004 0.618039
C78   C     C_R   0.772026 0.455598 0.280050 0.579067
C79   C     C_R   0.740713 0.955175 0.694940 0.630245
C80   C     C_R   0.270243 0.955561 0.288872 0.613202
C81   C     C_R   0.341040 0.647476 0.905162 -0.124300
C82   C     C_R   0.649042 0.650419 0.094279 -0.192575
C83   C     C_R   0.845533 0.148897 0.905486 -0.161711
C84   C     C_R   0.149515 0.151025 0.092643 -0.145733
C85   C     C_R   0.410971 0.367837 0.092570 -0.082153
C86   C     C_R   0.591959 0.370543 0.907597 -0.121410
C87   C     C_R   0.920143 0.859359 0.091061 -0.087399
C88   C     C_R   0.094624 0.872033 0.909186 -0.142594
C89   C     C_R   0.318265 0.355958 0.002430 0.147186
C90   C     C_R   0.678028 0.353643 0.000515 0.233161
C91   C     C_R   0.839318 0.838054 0.996608 0.201977
C92   C     C_R   0.182619 0.857261 0.003048 0.238231
H1    H     H_    0.251164 0.366425 0.824503 0.217578
H2    H     H_    0.734638 0.351871 0.173122 0.171680
H3    H     H_    0.771661 0.848819 0.820599 0.174860
H4    H     H_    0.241544 0.859286 0.177281 0.170567
H5    H     H_    0.220525 0.675295 0.998937 0.177938
H6    H     H_    0.803546 0.677100 0.109326 0.175887
H7    H     H_    0.710789 0.174569 0.960565 0.180485
H8    H     H_    0.239488 0.245101 0.180118 0.162375
H9    H     H_    0.476224 0.662486 0.174361 0.089620
H10   H     H_    0.520583 0.662119 0.825540 0.093605
H11   H     H_    0.979189 0.163244 0.174444 0.086895
H12   H     H_    0.016142 0.161092 0.823715 0.159272
H13   H     H_    0.507570 0.415154 0.301311 0.112491
H14   H     H_    0.460874 0.412420 0.680354 0.105931
H15   H     H_    0.994488 0.914168 0.288208 0.103414
H16   H     H_    0.963425 0.911973 0.683103 0.109622
H17   H     H_    0.488049 0.589204 0.274068 0.106369
H18   H     H_    0.458398 0.587544 0.682825 0.090466
H19   H     H_    0.982249 0.088971 0.268257 0.106340
H20   H     H_    0.961733 0.087042 0.683675 0.099592
H21   H     H_    0.294820 0.660345 0.819938 0.096484
H22   H     H_    0.692977 0.663754 0.179519 0.101158
H23   H     H_    0.799698 0.161558 0.820112 0.096457
H24   H     H_    0.186660 0.164855 0.176735 0.081553
H25   H     H_    0.448938 0.354977 0.176101 0.144024
H26   H     H_    0.561250 0.360351 0.823251 0.072912
H27   H     H_    0.955122 0.846623 0.175028 0.103635
H28   H     H_    0.064433 0.860612 0.825525 0.071842
N1    N     N_R   0.395440 0.396300 0.944370 -0.055592
N2    N     N_R   0.604560 0.396300 0.055630 -0.059955
N3    N     N_R   0.895440 0.896300 0.944370 -0.061054
N4    N     N_R   0.104560 0.896300 0.055630 -0.058231
N5    N     N_R   0.449890 0.602500 0.055780 -0.040669
N6    N     N_R   0.550110 0.602500 0.944220 -0.051583
N7    N     N_R   0.949890 0.102500 0.055780 -0.040670
N8    N     N_R   0.050110 0.102500 0.944220 -0.048477
N9    N     N_R   0.525090 0.470990 0.205640 -0.062652
N10   N     N_R   0.474910 0.470990 0.794360 -0.056806
N11   N     N_R   0.025090 0.970990 0.205640 -0.060351
N12   N     N_R   0.974910 0.970990 0.794360 -0.056304
N13   N     N_R   0.320240 0.527820 0.794510 -0.064552
N14   N     N_R   0.679760 0.527820 0.205490 -0.068149
N15   N     N_R   0.820240 0.027820 0.794510 -0.072546
N16   N     N_R   0.179760 0.027820 0.205490 -0.069565
N17   N     N_R   0.524580 0.527810 0.205160 -0.040418
N18   N     N_R   0.475420 0.527810 0.794840 -0.044318
N19   N     N_R   0.024580 0.027810 0.205160 -0.040288
N20   N     N_R   0.975420 0.027810 0.794840 -0.044421
N21   N     N_R   0.320750 0.470990 0.794990 -0.099463
N22   N     N_R   0.679250 0.470990 0.205010 -0.108950
N23   N     N_R   0.820750 0.970990 0.794990 -0.096798
N24   N     N_R   0.179250 0.970990 0.205010 -0.118165
N25   N     N_R   0.393580 0.602500 0.942610 -0.046096
N26   N     N_R   0.606420 0.602500 0.057390 -0.041471
N27   N     N_R   0.893580 0.102500 0.942610 -0.039812
N28   N     N_R   0.106420 0.102500 0.057390 -0.038047
N29   N     N_R   0.451750 0.396300 0.057540 -0.059804
N30   N     N_R   0.548250 0.396300 0.942460 -0.049672
N31   N     N_R   0.951750 0.896300 0.057540 -0.057174
N32   N     N_R   0.048250 0.896300 0.942460 -0.049321
Ni1   Ni    Ni4+2 0.435420 0.434250 0.870220 0.214694
Ni2   Ni    Ni4+2 0.564580 0.434250 0.129780 0.195627
Ni3   Ni    Ni4+2 0.935420 0.934250 0.870220 0.216218
Ni4   Ni    Ni4+2 0.064580 0.934250 0.129780 0.206716
Ni5   Ni    Ni4+2 0.563400 0.564580 0.128670 0.198838
Ni6   Ni    Ni4+2 0.436600 0.564580 0.871330 0.210433
Ni7   Ni    Ni4+2 0.063400 0.064580 0.128670 0.199205
Ni8   Ni    Ni4+2 0.936600 0.064580 0.871330 0.207807
O1    O     O_3   0.964347 0.552595 0.337344 -0.654863
C93   C     C_3   0.924592 0.552101 0.224163 -0.243834
H29   H     H_    0.970147 0.578065 0.212937 0.157354
H30   H     H_    0.851217 0.569905 0.173434 0.152213
H31   H     H_    0.922559 0.510708 0.192438 0.165297
O2    O     O_3   0.239243 0.512296 0.501030 -0.569128
C94   C     C_3   0.211793 0.560593 0.439133 -0.156677
H32   H     H_    0.272835 0.574502 0.439981 0.137573
H33   H     H_    0.195354 0.593876 0.475332 0.102192
H34   H     H_    0.149311 0.553394 0.351607 0.169520
O3    O     O_3   0.483666 0.054688 0.452668 -0.631858
C95   C     C_3   0.476088 0.091354 0.376234 -0.356045
H35   H     H_    0.450781 0.131218 0.384222 0.179209
H36   H     H_    0.426107 0.078368 0.288093 0.130071
H37   H     H_    0.548289 0.098000 0.397358 0.148645
O4    O     O_3   0.743337 0.010044 0.510170 -0.564730
C96   C     C_3   0.727509 0.059734 0.455497 -0.201805
H38   H     H_    0.789908 0.067985 0.455167 0.158667
H39   H     H_    0.722498 0.094259 0.499284 0.098883
H40   H     H_    0.662445 0.057916 0.367960 0.138265
O5    O     O_3   0.603605 0.250034 0.961713 -0.599477
C97   C     C_3   0.531354 0.231375 0.853461 -0.245112
H41   H     H_    0.543040 0.188047 0.843240 0.141584
H42   H     H_    0.526545 0.257040 0.790073 0.110000
H43   H     H_    0.460779 0.233900 0.838614 0.170352
O6    O     O_3   0.340041 0.332965 0.207501 -0.572598
C98   C     C_3   0.405116 0.295571 0.290402 -0.324980
H44   H     H_    0.424427 0.261817 0.257870 0.130829
H45   H     H_    0.375916 0.279305 0.332778 0.139896
H46   H     H_    0.472727 0.317634 0.353575 0.160942
O7    O     O_3   0.123718 0.754261 0.009080 -0.593935
C99   C     C_3   0.041654 0.733298 0.908833 -0.203176
H47   H     H_    0.051553 0.689727 0.897922 0.124538
H48   H     H_    0.023163 0.757459 0.836601 0.101263
H49   H     H_    0.979382 0.735798 0.911305 0.182922
O8    O     O_3   0.923289 0.741707 0.106025 -0.601148
C100  C     C_3   0.976327 0.728313 0.218898 -0.260352
H50   H     H_    0.967818 0.684457 0.228751 0.154041
H51   H     H_    0.956520 0.754075 0.262918 0.116565
H52   H     H_    0.053857 0.735598 0.259043 0.169590
O9    O     O_3   0.855001 0.373127 0.038845 -0.611566
C101  C     C_3   0.828138 0.396589 0.939519 -0.227991
H53   H     H_    0.748350 0.398957 0.877657 0.119988
H54   H     H_    0.859496 0.373928 0.904582 0.148323
H55   H     H_    0.856806 0.438791 0.957212 0.158091
O10   O     O_3   0.109526 0.349222 0.817368 -0.578774
C102  C     C_3   0.087280 0.399692 0.842129 -0.244488
H56   H     H_    0.153276 0.424813 0.897451 0.147518
H57   H     H_    0.048917 0.394477 0.879403 0.116465
H58   H     H_    0.038374 0.422689 0.764876 0.137874
O11   O     O_3   0.342226 0.872852 0.002469 -0.609781
C103  C     C_3   0.304615 0.887995 0.894027 -0.214675
H59   H     H_    0.224379 0.886985 0.838441 0.114382
H60   H     H_    0.333322 0.861784 0.860159 0.173901
H61   H     H_    0.327270 0.930463 0.895857 0.156577
O12   O     O_3   0.642303 0.856379 0.879736 -0.608832
C104  C     C_3   0.641112 0.894927 0.947813 -0.214451
H62   H     H_    0.715464 0.904731 0.022013 0.152889
H63   H     H_    0.595991 0.880718 0.972541 0.156656
H64   H     H_    0.608877 0.933131 0.900598 0.162695
O13   O     O_3   0.437317 0.780603 0.999573 -0.574496
C105  C     C_3   0.520096 0.791154 0.108109 -0.113888
H65   H     H_    0.533413 0.757919 0.165260 0.083483
H66   H     H_    0.515004 0.831000 0.139328 0.157352
H67   H     H_    0.583512 0.793211 0.107744 0.157084
O14   O     O_3   0.528374 0.776516 0.886802 -0.579126
C106  C     C_3   0.479153 0.778246 0.771476 -0.138621
H68   H     H_    0.511898 0.751629 0.742664 0.080195
H69   H     H_    0.474416 0.820780 0.744336 0.182497
H70   H     H_    0.404361 0.763565 0.730270 0.133393
O15   O     O_3   0.954645 0.285844 0.033388 -0.627152
C107  C     C_3   0.032496 0.282015 0.146645 -0.207297
H71   H     H_    0.061820 0.240095 0.165838 0.135942
H72   H     H_    0.014265 0.293854 0.202927 0.108917
H73   H     H_    0.090772 0.309671 0.164428 0.167956
O16   O     O_3   0.017788 0.256571 0.806006 -0.608939
C108  C     C_3   0.940562 0.269258 0.809248 -0.197012
H74   H     H_    0.942492 0.312671 0.832016 0.143537
H75   H     H_    0.939658 0.241930 0.866576 0.170549
H76   H     H_    0.872032 0.262639 0.725713 0.142430
H77   H     H_    0.561764 0.567822 0.621968 0.153153
H78   H     H_    0.566888 0.569345 0.468031 0.150367
H79   H     H_    0.062803 0.067207 0.618869 0.160449
H80   H     H_    0.061111 0.069500 0.460147 0.154913
O17   O     O_3   0.335013 0.437020 0.282474 -0.580380
C109  C     C_3   0.244901 0.463048 0.214488 -0.165428
H81   H     H_    0.251485 0.503485 0.186723 0.107882
H82   H     H_    0.210880 0.467431 0.256877 0.178827
H83   H     H_    0.196311 0.437485 0.139808 0.158504
O18   O     O_3   0.339109 0.428894 0.471732 -0.589546
C110  C     C_3   0.356036 0.374570 0.456338 -0.210141
H84   H     H_    0.431715 0.367100 0.487199 0.098729
H85   H     H_    0.304530 0.362739 0.368124 0.218714
H86   H     H_    0.342076 0.347134 0.502940 0.113059
O19   O     O_3   0.829039 0.936617 0.281593 -0.631547
C111  C     C_3   0.738420 0.962397 0.221636 -0.233757
H87   H     H_    0.739657 0.000611 0.183488 0.128623
H88   H     H_    0.714538 0.971050 0.273646 0.204989
H89   H     H_    0.683969 0.934715 0.154493 0.147891
O20   O     O_3   0.845268 0.925683 0.476499 -0.578650
C112  C     C_3   0.872815 0.872034 0.472770 -0.261283
H90   H     H_    0.952454 0.867375 0.521749 0.092702
H91   H     H_    0.836442 0.858416 0.386345 0.200650
H92   H     H_    0.848820 0.844153 0.509010 0.138291
H93   H     H_    0.244161 0.585125 0.664254 0.128424
H94   H     H_    0.791042 0.588619 0.283618 0.161804
H95   H     H_    0.738929 0.085281 0.665605 0.123820
H96   H     H_    0.289328 0.088596 0.296574 0.158831
O21   O     O_3   0.217078 0.401959 0.657279 -0.629249
C113  C     C_3   0.288083 0.377252 0.654419 -0.294291
H97   H     H_    0.357216 0.373199 0.738126 0.141946
H98   H     H_    0.296922 0.399750 0.598213 0.211428
H99   H     H_    0.263476 0.335533 0.620123 0.171672
O22   O     O_3   0.801664 0.404873 0.328390 -0.596233
C114  C     C_3   0.739724 0.385766 0.352319 -0.282388
H100  H     H_    0.667566 0.374909 0.275785 0.135540
H101  H     H_    0.732852 0.415959 0.402095 0.123706
H102  H     H_    0.771165 0.348223 0.402224 0.181281
O23   O     O_3   0.717049 0.901894 0.658141 -0.670771
C115  C     C_3   0.786942 0.879301 0.650724 -0.373654
H103  H     H_    0.857339 0.874977 0.733114 0.156185
H104  H     H_    0.793359 0.903442 0.594195 0.242793
H105  H     H_    0.762981 0.837819 0.614735 0.166823
O24   O     O_3   0.295336 0.906253 0.343921 -0.596933
C116  C     C_3   0.221197 0.887094 0.347926 -0.288573
H106  H     H_    0.157972 0.872901 0.265581 0.149489
H107  H     H_    0.199745 0.918490 0.382295 0.138054
H108  H     H_    0.248626 0.851533 0.403854 0.167678
O25   O     O_3   0.984838 0.421372 0.461784 -0.571850
C117  C     C_3   0.982508 0.434842 0.550339 -0.014382
H109  H     H_    0.924171 0.464167 0.525863 0.073228
H110  H     H_    0.052785 0.451347 0.621714 0.096598
H111  H     H_    0.967661 0.397076 0.577467 0.186456
O26   O     O_3   0.086399 0.456161 0.339600 -0.629223
C118  C     C_3   0.038859 0.405903 0.294673 -0.132175
H112  H     H_    0.960543 0.409395 0.254695 0.170775
H113  H     H_    0.072064 0.373307 0.358194 0.145398
H114  H     H_    0.046285 0.393915 0.229813 0.175259
O27   O     O_3   0.452210 0.913257 0.364519 -0.611076
C119  C     C_3   0.513445 0.870770 0.433417 -0.046095
H115  H     H_    0.533727 0.875084 0.517954 0.159538
H116  H     H_    0.578421 0.868141 0.435881 0.151594
H117  H     H_    0.473773 0.831696 0.398843 0.132568
O28   O     O_3   0.593358 0.959005 0.340775 -0.578287
C120  C     C_3   0.510748 0.973187 0.234736 -0.192248
H118  H     H_    0.491331 0.016667 0.230717 0.085192
H119  H     H_    0.448803 0.946187 0.207364 0.207800
H120  H     H_    0.526998 0.967405 0.175159 0.154589

loop_
_geom_bond_atom_site_label_1
_geom_bond_atom_site_label_2
_ccdc_geom_bond_type
C87   C91   A    
C117  H111  S    
C88   N32   A    
C19   C20   S    
C32   O8    S    
C39   C41   A    
N26   Ni5   S    
C27   H7    S    
C54   H78   S    
C14   C21   S    
O24   C116  S    
C44   O16   S    
C69   H93   S    
N9    Ni2   S    
C111  H89   S    
C29   C33   A    
N12   Ni3   S    
O22   C114  S    
C2    C90   A    
C97   H41   S    
C4    H4    S    
N16   Ni7   S    
C27   C51   A    
C102  H58   S    
C94   H34   S    
C95   H37   S    
C42   O14   S    
N19   Ni7   S    
O17   C109  S    
C5    C49   S    
C41   C49   A    
C3    N3    A    
C93   H30   S    
C101  H53   S    
O7    C99   S    
C99   H49   S    
C86   C90   A    
O10   C102  S    
C17   C21   D    
C16   C80   A    
C97   H43   S    
C19   C23   D    
C93   H31   S    
C106  H68   S    
C107  H72   S    
C55   H79   S    
C85   H25   S    
N1    Ni1   S    
C36   C91   S    
C113  H98   S    
C24   O4    S    
C119  H115  S    
N13   N21   A    
O8    C100  S    
C74   H18   S    
C53   C58   A    
C57   C61   A    
C59   C63   A    
C56   C59   A    
C60   C64   A    
C26   C50   A    
C116  H107  S    
C73   N17   A    
N1    N29   A    
C43   O15   S    
C9    C65   A    
C22   O2    S    
C62   O18   S    
N9    N17   A    
C103  H59   S    
C1    H1    S    
C70   N14   A    
C3    H3    S    
O6    C98   S    
C25   C31   A    
C7    C83   A    
C26   C32   A    
C27   C29   A    
C11   C75   A    
C118  H113  S    
C53   C54   A    
C12   C68   A    
C20   O28   S    
C32   C36   A    
N11   Ni4   S    
C10   C58   S    
C53   H77   S    
N13   Ni6   S    
C86   N30   A    
C112  H90   S    
C72   H96   S    
O16   C108  S    
C4    N4    A    
C100  H51   S    
C15   C79   A    
C96   H39   S    
C111  H88   S    
C8    C52   S    
C119  H117  S    
C120  H120  S    
C40   C42   A    
C56   H80   S    
C84   H24   S    
C108  H74   S    
N27   Ni8   S    
C65   H13   S    
C95   H36   S    
C70   H94   S    
C77   N21   A    
C10   C66   A    
C30   C34   A    
C83   H23   S    
C2    H2    S    
C114  H102  S    
C115  H103  S    
C110  H86   S    
C105  H67   S    
C104  H62   S    
N30   Ni1   S    
C6    C50   S    
C99   H48   S    
N24   Ni4   S    
C87   H27   S    
O13   C105  S    
N18   Ni6   S    
N23   Ni3   S    
C103  H61   S    
C40   O12   S    
O25   C117  S    
C23   O3    S    
N22   Ni2   S    
C105  H66   S    
C42   C50   A    
C25   H5    S    
C15   C24   S    
C106  H69   S    
C96   H38   S    
C16   C23   S    
C77   O21   S    
C78   O22   S    
C109  H81   S    
O28   C120  S    
C18   C22   D    
O20   C112  S    
C112  H92   S    
C47   N7    A    
N17   Ni5   S    
N4    Ni4   S    
C34   C89   S    
C75   N19   A    
N20   Ni8   S    
N21   Ni1   S    
C13   C69   A    
C61   C62   A    
C1    N1    A    
C120  H119  S    
N11   N19   A    
C63   C64   A    
O14   C106  S    
C108  H76   S    
C102  H57   S    
C55   C60   A    
C109  H83   S    
C58   C62   A    
C55   C56   A    
C114  H100  S    
C16   C72   A    
C115  H105  S    
O1    C93   S    
C110  H84   S    
N3    Ni3   S    
O5    C97   S    
C104  H64   S    
C74   N18   A    
C101  H54   S    
N2    N30   A    
C78   N22   A    
O26   C118  S    
N5    Ni5   S    
C31   O7    S    
C3    C91   A    
C117  H109  S    
C68   N12   A    
C98   H46   S    
C101  H55   S    
C69   N13   A    
O23   C115  S    
C88   H28   S    
C38   O10   S    
C35   C92   S    
C84   N28   A    
C18   O26   S    
O21   C113  S    
C14   C70   A    
C113  H99   S    
C11   C59   S    
C82   N26   A    
C119  H116  S    
C2    N2    A    
N3    N31   A    
C47   H11   S    
C102  H56   S    
C94   H33   S    
C94   H32   S    
C85   C89   A    
N8    N28   A    
O18   C110  S    
C5    C45   A    
C33   C37   A    
N28   Ni7   S    
C7    C47   A    
C37   C43   A    
C100  H52   S    
C35   C39   A    
N29   Ni2   S    
C8    C48   A    
C38   C44   A    
C116  H106  S    
C48   N8    A    
C5    C81   A    
O11   C103  S    
N32   Ni3   S    
C86   H26   S    
N31   Ni4   S    
C45   H9    S    
C103  H60   S    
C80   O24   S    
C12   C76   A    
C13   C77   A    
C31   C35   A    
C76   N20   A    
C118  H112  S    
C93   H29   S    
C71   H95   S    
N15   Ni8   S    
C8    C84   A    
C65   N9    A    
C73   H17   S    
N12   N20   A    
C15   C71   A    
C75   H19   S    
C7    C51   S    
C98   H44   S    
N16   N24   A    
N25   Ni6   S    
C43   C51   A    
C107  H71   S    
C13   C22   S    
C25   C49   A    
C72   N16   A    
C79   O23   S    
C120  H118  S    
C81   H21   S    
C37   O9    S    
C113  H97   S    
N5    N25   A    
C41   O13   S    
C4    C92   A    
O3    C95   S    
C6    C82   A    
C28   C52   A    
O9    C101  S    
O27   C119  S    
N6    N26   A    
C46   H10   S    
C29   O5    S    
C30   O6    S    
C114  H101  S    
C115  H104  S    
C116  H108  S    
C71   N15   A    
C110  H85   S    
N14   N22   A    
C61   O17   S    
C48   H12   S    
C63   O19   S    
C20   C24   D    
C45   N5    A    
C17   C18   S    
C9    C57   S    
C28   H8    S    
N4    N32   A    
C87   N31   A    
N2    Ni2   S    
C100  H50   S    
C9    C73   A    
C66   H14   S    
C11   C67   A    
C118  H114  S    
C97   H42   S    
N6    Ni6   S    
C109  H82   S    
C21   O1    S    
C88   C92   A    
C36   C40   A    
O12   C104  S    
C82   H22   S    
C112  H91   S    
C80   N24   A    
C107  H73   S    
C79   N23   A    
C76   H20   S    
C96   H40   S    
C111  H87   S    
C106  H70   S    
C39   O11   S    
C26   H6    S    
C83   N27   A    
O4    C96   S    
C81   N25   A    
C108  H75   S    
O2    C94   S    
O19   C111  S    
N7    Ni7   S    
C95   H35   S    
N8    Ni8   S    
C1    C89   A    
C6    C46   A    
C34   C38   A    
C46   N6    A    
C67   N11   A    
C44   C52   A    
C104  H63   S    
C99   H47   S    
C28   C30   A    
C33   C90   S    
C10   C74   A    
C67   H15   S    
C17   O25   S    
N15   N23   A    
C19   O27   S    
N10   Ni1   S    
C117  H110  S    
C14   C78   A    
C105  H65   S    
C85   N29   A    
C98   H45   S    
C12   C60   S    
N14   Ni5   S    
O15   C107  S    
C68   H16   S    
C54   C57   A    
C64   O20   S    
N7    N27   A    
C66   N10   A    
N10   N18   A    
