data_mof_unit_26014.cif
_audit_creation_date              2012-12-10T20:21:42-0500
_audit_creation_method            fapswitch 2.2
_symmetry_space_group_name_H-M    P1
_symmetry_Int_Tables_number       1
_space_group_crystal_system       triclinic
_cell_length_a                    19.446784
_cell_length_b                    18.504766
_cell_length_c                    8.901175
_cell_angle_alpha                 90.003193
_cell_angle_beta                  91.307961
_cell_angle_gamma                 89.996816
_cell_volume                      3202.32609933

loop_
_atom_site_label
_atom_site_type_symbol
_atom_type_description
_atom_site_fract_x
_atom_site_fract_y
_atom_site_fract_z
_atom_type_partial_charge
C1    C     C_R   0.365506 0.499982 0.505996 0.859999
C2    C     C_R   0.634488 0.499978 0.493874 0.859994
C3    C     C_R   0.538550 0.726483 0.605067 -0.019748
C4    C     C_R   0.460152 0.273576 0.397073 -0.020313
C5    C     C_R   0.461444 0.726482 0.394941 -0.019697
C6    C     C_R   0.539842 0.273581 0.602949 -0.020076
C7    C     C_R   0.539488 0.802872 0.607244 0.315917
C8    C     C_R   0.458618 0.197226 0.396369 0.311182
C9    C     C_R   0.460491 0.802871 0.392791 0.315929
C10   C     C_R   0.541365 0.197230 0.603704 0.310846
C11   C     C_R   0.499983 0.842108 0.500027 -0.144546
C12   C     C_R   0.499989 0.158205 0.500042 -0.145508
C13   C     C_R   0.485120 0.962276 0.631121 -0.177322
C14   C     C_R   0.514711 0.038157 0.368912 -0.166642
C15   C     C_R   0.514830 0.962272 0.368959 -0.177456
C16   C     C_R   0.485239 0.038163 0.631179 -0.166354
C17   C     C_R   0.499975 0.077091 0.500047 0.185659
C18   C     C_R   0.499975 0.923273 0.500036 0.151420
C19   C     C_R   0.499884 0.499998 0.218512 0.945041
C20   C     C_R   0.500116 0.500001 0.781488 0.945142
C21   C     C_1   0.499959 0.499998 0.065365 -0.170458
C22   C     C_1   0.500041 0.500002 0.934635 -0.170509
C23   C     C_R   0.747335 0.433627 0.474191 -0.000767
C24   C     C_R   0.252467 0.566035 0.523871 -0.002761
C25   C     C_R   0.252615 0.433646 0.524806 -0.000420
C26   C     C_R   0.747456 0.566021 0.473973 -0.002607
C27   C     C_R   0.818677 0.434459 0.477041 -0.220749
C28   C     C_R   0.181126 0.565060 0.519808 -0.220321
C29   C     C_R   0.181267 0.434454 0.520824 -0.218123
C30   C     C_R   0.818804 0.565062 0.476657 -0.217702
C31   C     C_R   0.854158 0.499714 0.481424 0.079620
C32   C     C_R   0.145785 0.499718 0.515152 0.079655
C33   C     C_R   0.710191 0.499877 0.480771 -0.140949
C34   C     C_R   0.289769 0.499887 0.518263 -0.140927
C35   C     C_R   0.965888 0.542350 0.390049 -0.187818
C36   C     C_R   0.034048 0.456875 0.605972 -0.187827
C37   C     C_R   0.037059 0.542490 0.398901 -0.185422
C38   C     C_R   0.962887 0.456728 0.597106 -0.185425
C39   C     C_R   0.071197 0.499755 0.506854 0.127299
C40   C     C_R   0.928747 0.499491 0.489218 0.127314
H1    H     H_    0.847004 0.383952 0.473628 0.138023
H2    H     H_    0.152693 0.615512 0.522625 0.138220
H3    H     H_    0.153027 0.383863 0.521335 0.136811
H4    H     H_    0.847139 0.615593 0.475994 0.137097
H5    H     H_    0.939830 0.574964 0.305217 0.137871
H6    H     H_    0.060089 0.424307 0.690907 0.137946
H7    H     H_    0.065530 0.575169 0.320738 0.138902
H8    H     H_    0.934421 0.424083 0.675341 0.138922
H9    H     H_    0.472713 0.933934 0.733412 0.181870
H10   H     H_    0.526899 0.066588 0.266578 0.175558
H11   H     H_    0.527242 0.933927 0.266666 0.181921
H12   H     H_    0.473055 0.066598 0.733517 0.175506
N1    N     N_R   0.500000 0.689440 0.500000 -0.174934
N2    N     N_R   0.500000 0.310560 0.500000 -0.171343
O1    O     O_R   0.398180 0.560840 0.499960 -0.613744
O2    O     O_R   0.601820 0.439160 0.500040 -0.613096
O3    O     O_R   0.601820 0.560840 0.500040 -0.613686
O4    O     O_R   0.398180 0.439160 0.499960 -0.612992
O5    O     O_R   0.500000 0.560800 0.285330 -0.618844
O6    O     O_R   0.500000 0.439200 0.714670 -0.617578
O7    O     O_R   0.500000 0.560800 0.714670 -0.618824
O8    O     O_R   0.500000 0.439200 0.285330 -0.617584
Zn1   Zn    Zn3+2 0.500000 0.581210 0.500000 0.974136
Zn2   Zn    Zn3+2 0.500000 0.418790 0.500000 0.975417
C41   C     C_1   0.715229 0.363616 0.456147 0.204352
N3    N     N_1   0.690074 0.307384 0.440203 -0.244977
C42   C     C_1   0.284453 0.636058 0.542262 0.206298
N4    N     N_1   0.309598 0.692263 0.558517 -0.241369
C43   C     C_1   0.284702 0.363646 0.543331 0.203570
N5    N     N_1   0.309840 0.307425 0.559644 -0.245014
C44   C     C_1   0.715400 0.636062 0.456517 0.205842
N6    N     N_1   0.690199 0.692287 0.441015 -0.241430
C45   C     C_1   0.580324 0.687699 0.713732 0.349169
N7    N     N_1   0.614300 0.657147 0.801279 -0.215716
C46   C     C_1   0.418095 0.312424 0.289074 0.335219
N8    N     N_1   0.383947 0.343091 0.202023 -0.214999
C47   C     C_1   0.419687 0.687697 0.286246 0.348798
N9    N     N_1   0.385723 0.657147 0.198672 -0.216111
C48   C     C_1   0.581907 0.312436 0.710926 0.335265
N10   N     N_1   0.616062 0.343108 0.797957 -0.215410
O9    O     O_3   0.576487 0.838357 0.719687 -0.603569
C49   C     C_3   0.641466 0.858198 0.665275 0.107473
H13   H     H_    0.636458 0.906094 0.590377 0.153127
H14   H     H_    0.666262 0.813365 0.602883 0.147390
C50   C     C_3   0.688604 0.877747 0.797762 -0.820968
H15   H     H_    0.697693 0.829416 0.869504 0.260801
H16   H     H_    0.738693 0.897456 0.756495 0.204909
H17   H     H_    0.664786 0.920729 0.866330 0.260658
O10   O     O_3   0.418742 0.160787 0.290269 -0.604755
C51   C     C_3   0.354173 0.145006 0.351992 0.126026
H18   H     H_    0.321426 0.194264 0.350735 0.156089
H19   H     H_    0.358727 0.124051 0.469378 0.135928
C52   C     C_3   0.318797 0.087193 0.256845 -0.828004
H20   H     H_    0.350784 0.037516 0.257475 0.263492
H21   H     H_    0.267762 0.074274 0.303441 0.203548
H22   H     H_    0.311623 0.106483 0.139380 0.261534
O11   O     O_3   0.423497 0.838357 0.280343 -0.603498
C53   C     C_3   0.358488 0.858136 0.334696 0.107402
H23   H     H_    0.363450 0.905953 0.409838 0.152956
H24   H     H_    0.333675 0.813233 0.396815 0.147336
C54   C     C_3   0.311406 0.877811 0.202197 -0.821477
H25   H     H_    0.302374 0.829554 0.130198 0.260773
H26   H     H_    0.261287 0.897452 0.243445 0.204869
H27   H     H_    0.335237 0.920880 0.133896 0.260981
O12   O     O_3   0.581173 0.160813 0.709960 -0.604662
C55   C     C_3   0.645726 0.144888 0.648331 0.125669
H28   H     H_    0.678310 0.194253 0.648011 0.155587
H29   H     H_    0.641062 0.123165 0.531576 0.136234
C56   C     C_3   0.681431 0.087824 0.744879 -0.827754
H30   H     H_    0.649576 0.038074 0.746060 0.263459
H31   H     H_    0.732406 0.074704 0.698198 0.203404
H32   H     H_    0.688780 0.107954 0.861692 0.261416

loop_
_geom_bond_atom_site_label_1
_geom_bond_atom_site_label_2
_ccdc_geom_bond_type
C15   C18   A    
C11   C18   S    
C54   H25   S    
C3    N1    A    
C45   N7    T    
C4    C8    A    
O11   C53   S    
C6    C48   S    
C2    O3    A    
C47   N9    T    
C7    C11   A    
C52   H20   S    
N2    Zn2   S    
C13   C18   A    
C5    N1    A    
C35   C37   A    
C29   C32   A    
C3    C7    A    
C56   H31   S    
C30   C31   A    
C55   H28   S    
C19   O8    A    
C31   C40   S    
C32   C39   S    
C20   O7    A    
O7    Zn1   S    
C4    C46   S    
O8    Zn2   S    
C24   C42   S    
C16   C17   A    
C23   C33   A    
O1    Zn1   S    
C12   C17   S    
O2    Zn2   S    
C36   H6    S    
C23   C27   A    
C20   O6    A    
C38   H8    S    
C25   C34   A    
C52   H21   S    
C21   C22   T    
C29   H3    S    
C25   C29   A    
C26   C44   S    
C14   C17   A    
C30   H4    S    
C6    N2    A    
C1    C34   S    
O9    C49   S    
C50   H16   S    
O4    Zn2   S    
C27   C31   A    
C42   N4    T    
C24   C28   A    
C28   C32   A    
C56   H32   S    
C19   O5    A    
C50   H15   S    
C49   H13   S    
C24   C34   A    
C46   N8    T    
C5    C9    A    
C27   H1    S    
C26   C33   A    
C51   H19   S    
C49   H14   S    
C8    C12   A    
C9    C11   A    
C10   C12   A    
C13   H9    S    
C2    C33   S    
C7    O9    S    
C20   C22   S    
C26   C30   A    
C52   H22   S    
C15   H11   S    
C37   H7    S    
C5    C47   S    
C35   H5    S    
C51   C52   S    
C50   H17   S    
C9    O11   S    
C4    N2    A    
O5    Zn1   S    
C36   C39   A    
C16   H12   S    
O3    Zn1   S    
C6    C10   A    
C54   H27   S    
C49   C50   S    
O12   C55   S    
C53   H24   S    
C53   C54   S    
O6    Zn2   S    
C23   C41   S    
C36   C38   A    
C35   C40   A    
C1    O1    A    
C44   N6    T    
C37   C39   A    
C2    O2    A    
C1    O4    A    
C38   C40   A    
N1    Zn1   S    
C51   H18   S    
C14   H10   S    
C55   H29   S    
C28   H2    S    
C41   N3    T    
C43   N5    T    
C3    C45   S    
C48   N10   T    
C25   C43   S    
C54   H26   S    
C53   H23   S    
C13   C16   A    
C14   C15   A    
C10   O12   S    
C8    O10   S    
O10   C51   S    
C56   H30   S    
C19   C21   S    
C55   C56   S    
