data_mof_unit_41172.cif
_audit_creation_date              2013-03-05T15:59:53-0500
_audit_creation_method            fapswitch 2.2
_symmetry_space_group_name_H-M    P1
_symmetry_Int_Tables_number       1
_space_group_crystal_system       triclinic
_cell_length_a                    6.94366
_cell_length_b                    21.348236
_cell_length_c                    23.654577
_cell_angle_alpha                 89.999985
_cell_angle_beta                  90.000472
_cell_angle_gamma                 89.999968
_cell_volume                      3506.43367586

loop_
_atom_site_label
_atom_site_type_symbol
_atom_site_description
_atom_site_fract_x
_atom_site_fract_y
_atom_site_fract_z
_atom_type_partial_charge
O1    O     O_R   0.615270 0.806540 0.192260 -0.589544
O2    O     O_R   0.384730 0.193460 0.807740 -0.589544
O3    O     O_R   0.384730 0.193460 0.692260 -0.589563
O4    O     O_R   0.615270 0.806540 0.307740 -0.589563
O5    O     O_R   0.115270 0.693460 0.307740 -0.589543
O6    O     O_R   0.884730 0.306540 0.692260 -0.589543
O7    O     O_R   0.884730 0.306540 0.807740 -0.589559
O8    O     O_R   0.115270 0.693460 0.192260 -0.589559
O9    O     O_R   0.285500 0.813970 0.307340 -0.582948
O10   O     O_R   0.714500 0.186030 0.692660 -0.582948
O11   O     O_R   0.714500 0.186030 0.807340 -0.582927
O12   O     O_R   0.285500 0.813970 0.192660 -0.582928
O13   O     O_R   0.785500 0.686030 0.192660 -0.582944
O14   O     O_R   0.214500 0.313970 0.807340 -0.582944
O15   O     O_R   0.214500 0.313970 0.692660 -0.582926
O16   O     O_R   0.785500 0.686030 0.307340 -0.582926
C1    C     C_R   0.454354 0.829091 0.326715 0.985007
C2    C     C_R   0.545646 0.170909 0.673285 0.985007
C3    C     C_R   0.545648 0.170909 0.826716 0.984964
C4    C     C_R   0.454351 0.829091 0.173284 0.984965
C5    C     C_R   0.954353 0.670909 0.173285 0.985000
C6    C     C_R   0.045647 0.329091 0.826715 0.984999
C7    C     C_R   0.045648 0.329091 0.673284 0.984966
C8    C     C_R   0.954352 0.670909 0.326716 0.984966
O17   O     O_3   0.448760 0.710460 0.250000 -0.269470
O18   O     O_3   0.551240 0.289540 0.750000 -0.269470
O19   O     O_3   0.948760 0.789540 0.250000 -0.269475
O20   O     O_3   0.051240 0.210460 0.750000 -0.269475
V1    V     V_3+5 0.173900 0.757330 0.250000 1.235811
V2    V     V_3+5 0.826100 0.242670 0.750000 1.235811
V3    V     V_3+5 0.673900 0.742670 0.250000 1.235813
V4    V     V_3+5 0.326100 0.257330 0.750000 1.235813
C9    C     C_3   0.043707 0.528972 0.547648 0.496365
C10   C     C_3   0.956293 0.471027 0.452352 0.496365
C11   C     C_3   0.955910 0.471043 0.047625 0.496316
C12   C     C_3   0.044090 0.528957 0.952375 0.496316
C13   C     C_3   0.543701 0.971027 0.952352 0.496365
C14   C     C_3   0.456299 0.028973 0.047648 0.496365
C15   C     C_3   0.455790 0.028952 0.452382 0.496303
C16   C     C_3   0.544210 0.971047 0.547618 0.496303
C17   C     C_3   0.863484 0.541110 0.511829 0.244782
C18   C     C_3   0.136516 0.458890 0.488171 0.244782
C19   C     C_3   0.136242 0.458811 0.011878 0.244761
C20   C     C_3   0.863757 0.541189 0.988122 0.244761
C21   C     C_3   0.363479 0.958892 0.988171 0.244787
C22   C     C_3   0.636521 0.041108 0.011829 0.244787
C23   C     C_3   0.636155 0.041214 0.488107 0.244778
C24   C     C_3   0.363845 0.958786 0.511893 0.244778
H1    H     H_    0.686794 0.445719 0.510331 0.239640
H2    H     H_    0.313206 0.554281 0.489669 0.239640
H3    H     H_    0.313469 0.554096 0.010462 0.239327
H4    H     H_    0.686531 0.445904 0.989538 0.239327
H5    H     H_    0.186799 0.054285 0.989669 0.239643
H6    H     H_    0.813200 0.945715 0.010330 0.239643
H7    H     H_    0.813552 0.945962 0.489499 0.239232
H8    H     H_    0.186448 0.054038 0.510501 0.239232
C25   C     C_1   0.964244 0.625377 0.372149 -0.247834
C26   C     C_1   0.035756 0.374623 0.627851 -0.247834
C27   C     C_1   0.035751 0.374624 0.872148 -0.247856
C28   C     C_1   0.964249 0.625375 0.127852 -0.247856
C29   C     C_1   0.464241 0.874623 0.127851 -0.247840
C30   C     C_1   0.535759 0.125377 0.872149 -0.247840
C31   C     C_1   0.535746 0.125375 0.627852 -0.247855
C32   C     C_1   0.464254 0.874625 0.372148 -0.247856
C33   C     C_3   0.172166 0.530291 0.493878 -0.429416
C34   C     C_3   0.827834 0.469709 0.506122 -0.429416
C35   C     C_3   0.827701 0.469807 0.993802 -0.429756
C36   C     C_3   0.172299 0.530193 0.006198 -0.429756
C37   C     C_3   0.672163 0.969707 0.006122 -0.429415
C38   C     C_3   0.327837 0.030293 0.993878 -0.429415
C39   C     C_3   0.327658 0.030162 0.506221 -0.429887
C40   C     C_3   0.672342 0.969838 0.493779 -0.429887
C41   C     C_3   0.987733 0.542217 0.457741 -0.125482
C42   C     C_3   0.012267 0.457783 0.542258 -0.125482
C43   C     C_3   0.012245 0.457784 0.957740 -0.125227
C44   C     C_3   0.987755 0.542216 0.042260 -0.125227
C45   C     C_3   0.487731 0.957783 0.042258 -0.125485
C46   C     C_3   0.512269 0.042217 0.957741 -0.125485
C47   C     C_3   0.512237 0.042215 0.542261 -0.125149
C48   C     C_3   0.487763 0.957785 0.457739 -0.125149
C49   C     C_1   0.974100 0.587732 0.410549 0.267900
C50   C     C_1   0.025900 0.412268 0.589451 0.267900
C51   C     C_1   0.025885 0.412270 0.910547 0.267715
C52   C     C_1   0.974115 0.587730 0.089453 0.267715
C53   C     C_1   0.474097 0.912268 0.089451 0.267899
C54   C     C_1   0.525903 0.087732 0.910549 0.267899
C55   C     C_1   0.525877 0.087730 0.589454 0.267661
C56   C     C_1   0.474123 0.912270 0.410546 0.267661
N1    N     N_R   0.714516 0.586057 0.527150 0.253254
O21   O     O_R   0.620482 0.579315 0.574295 -0.318645
O22   O     O_R   0.673014 0.632500 0.493744 -0.385974
N2    N     N_R   0.285484 0.413943 0.472850 0.253254
O23   O     O_R   0.379518 0.420685 0.425705 -0.318646
O24   O     O_R   0.326986 0.367500 0.506256 -0.385973
N3    N     N_R   0.284911 0.413781 0.027251 0.253305
O25   O     O_R   0.378781 0.420466 0.074432 -0.318427
O26   O     O_R   0.326380 0.367334 0.993846 -0.385885
N4    N     N_R   0.715089 0.586219 0.972749 0.253305
O27   O     O_R   0.621219 0.579534 0.925568 -0.318427
O28   O     O_R   0.673620 0.632666 0.006154 -0.385885
N5    N     N_R   0.214506 0.913946 0.972850 0.253252
O29   O     O_R   0.120468 0.920689 0.925705 -0.318653
O30   O     O_R   0.173007 0.867503 0.006255 -0.385989
N6    N     N_R   0.785493 0.086053 0.027150 0.253252
O31   O     O_R   0.879532 0.079311 0.074294 -0.318653
O32   O     O_R   0.826993 0.132497 0.993745 -0.385989
N7    N     N_R   0.784728 0.086271 0.472719 0.253326
O33   O     O_R   0.878547 0.079603 0.425528 -0.318356
O34   O     O_R   0.826184 0.132719 0.506124 -0.385841
N8    N     N_R   0.215272 0.913729 0.527281 0.253327
O35   O     O_R   0.121453 0.920396 0.574472 -0.318356
O36   O     O_R   0.173816 0.867281 0.493876 -0.385841
O37   O     O_3   0.086323 0.559630 0.598341 -0.649012
H9    H     H_    0.103385 0.604296 0.588051 0.358951
O38   O     O_3   0.913677 0.440370 0.401659 -0.649012
H10   H     H_    0.896615 0.395704 0.411949 0.358951
O39   O     O_3   0.912877 0.440399 0.098295 -0.649055
H11   H     H_    0.895501 0.395751 0.087983 0.358970
O40   O     O_3   0.087123 0.559601 0.901705 -0.649055
H12   H     H_    0.104498 0.604249 0.912017 0.358970
O41   O     O_3   0.586311 0.940370 0.901659 -0.649014
H13   H     H_    0.603364 0.895703 0.911948 0.358944
O42   O     O_3   0.413689 0.059630 0.098341 -0.649014
H14   H     H_    0.396636 0.104297 0.088052 0.358944
O43   O     O_3   0.412627 0.059592 0.401718 -0.649070
H15   H     H_    0.395116 0.104232 0.412038 0.358987
O44   O     O_3   0.587373 0.940408 0.598281 -0.649070
H16   H     H_    0.604884 0.895768 0.587962 0.358987

loop_
_geom_bond_atom_site_label_1
_geom_bond_atom_site_label_2
_geom_bond_distance
_ccdc_geom_bond_type
O17   V3    1.707842 S    
C7    C26   1.450712 S    
C17   N1    1.456710 S    
C14   C38   1.553763 S    
O18   V4    1.707842 S    
N5    O29   1.300271 A    
C15   O43   1.397803 S    
C13   C37   1.553763 S    
O12   V1    1.975420 S    
O19   V1    1.707841 S    
C37   C45   1.560608 S    
N3    O25   1.300287 A    
C10   C18   1.533308 S    
C23   C47   1.543302 S    
C43   C51   1.482993 S    
C44   C52   1.482993 S    
C47   C55   1.482992 S    
C9    C33   1.553764 S    
O42   H14   0.991216 S    
C12   C36   1.553761 S    
O16   V3    1.975409 S    
C30   C54   1.214746 T    
O11   C3    1.299581 A    
O8    V1    1.972396 S    
C27   C51   1.214739 T    
C26   C50   1.214743 T    
C1    C32   1.450711 S    
C29   C53   1.214746 T    
C2    C31   1.450711 S    
C38   C46   1.560608 S    
C3    C30   1.450713 S    
O38   H10   0.991216 S    
C34   C42   1.560609 S    
O1    V3    1.972395 S    
C33   C41   1.560609 S    
O3    C2    1.296811 A    
O2    V4    1.972393 S    
C4    C29   1.450713 S    
C20   C44   1.543300 S    
C12   O40   1.397799 S    
N8    O35   1.300286 A    
C22   C37   1.550135 S    
C20   N4    1.456713 S    
O11   V2    1.975419 S    
C19   C36   1.550141 S    
C18   C33   1.550134 S    
C19   N3    1.456713 S    
N7    O33   1.300286 A    
N1    O22   1.300189 A    
C11   C19   1.533335 S    
H7    C40   1.109715 S    
O9    V1    1.975410 S    
C46   C54   1.482985 S    
O15   C7    1.299580 A    
C21   C38   1.550135 S    
C45   C53   1.482985 S    
O16   C8    1.299579 A    
O7    V2    1.972394 S    
N6    O32   1.300188 A    
C48   C56   1.482992 S    
C19   C43   1.543300 S    
N7    O34   1.300195 A    
C10   C34   1.553764 S    
C42   C50   1.482985 S    
H5    C38   1.109641 S    
C41   C49   1.482985 S    
N6    O31   1.300271 A    
O5    V1    1.972398 S    
O17   V1    2.154920 S    
C11   C44   1.540658 S    
C18   C42   1.543305 S    
H1    C34   1.109642 S    
O19   V3    2.154921 S    
O20   V4    2.154922 S    
C23   N7    1.456715 S    
C5    C28   1.450713 S    
C6    C27   1.450713 S    
C22   C46   1.543307 S    
C8    C25   1.450712 S    
C10   O38   1.397789 S    
C16   O44   1.397803 S    
C22   N6    1.456709 S    
C39   C47   1.560636 S    
C12   C43   1.540658 S    
O10   V2    1.975412 S    
C11   C35   1.553761 S    
H8    C39   1.109715 S    
O12   C4    1.299580 A    
N2    O24   1.300189 A    
O8    C5    1.296812 A    
C16   C47   1.540661 S    
O13   C5    1.299585 A    
O41   H13   0.991216 S    
H4    C35   1.109699 S    
C21   N5    1.456709 S    
C13   O41   1.397788 S    
O4    C1    1.296811 A    
O9    C1    1.299586 A    
O6    V2    1.972400 S    
O18   V2    2.154921 S    
N4    O28   1.300193 A    
O43   H15   0.991241 S    
C25   C49   1.214743 T    
C12   C20   1.533335 S    
C35   C43   1.560631 S    
C24   C39   1.550144 S    
C13   C21   1.533306 S    
O44   H16   0.991241 S    
C15   C23   1.533340 S    
O37   H9    0.991216 S    
C16   C24   1.533340 S    
H6    C37   1.109641 S    
O1    C4    1.296821 A    
C16   C40   1.553762 S    
C31   C55   1.214737 T    
O2    C3    1.296821 A    
O13   V3    1.975420 S    
C14   O42   1.397788 S    
O14   V4    1.975419 S    
O15   V4    1.975411 S    
O40   H12   0.991237 S    
N3    O26   1.300193 A    
C17   C34   1.550134 S    
C14   C45   1.540652 S    
C36   C44   1.560631 S    
O7    C6    1.296812 A    
C13   C46   1.540652 S    
C9    O37   1.397789 S    
C9    C17   1.533308 S    
C15   C48   1.540661 S    
C24   C48   1.543302 S    
O20   V2    1.707841 S    
N1    O21   1.300272 A    
C40   C48   1.560636 S    
O39   H11   0.991237 S    
C28   C52   1.214739 T    
O14   C6    1.299586 A    
O5    C8    1.296822 A    
O10   C2    1.299587 A    
O6    C7    1.296822 A    
N2    O23   1.300272 A    
C18   N2    1.456710 S    
H3    C36   1.109699 S    
O3    V4    1.972400 S    
H2    C33   1.109642 S    
N8    O36   1.300195 A    
C23   C40   1.550144 S    
C14   C22   1.533306 S    
O4    V3    1.972398 S    
C11   O39   1.397799 S    
C10   C41   1.540653 S    
C17   C41   1.543305 S    
C9    C42   1.540653 S    
N5    O30   1.300188 A    
N4    O27   1.300287 A    
C15   C39   1.553762 S    
C20   C35   1.550141 S    
C21   C45   1.543307 S    
C24   N8    1.456715 S    
C32   C56   1.214737 T    
