data_mof_unit_63818.cif
_audit_creation_date              2012-12-10T20:04:53-0500
_audit_creation_method            fapswitch 2.2
_symmetry_space_group_name_H-M    P1
_symmetry_Int_Tables_number       1
_space_group_crystal_system       triclinic
_cell_length_a                    38.51596
_cell_length_b                    32.092613
_cell_length_c                    21.327899
_cell_angle_alpha                 90.002926
_cell_angle_beta                  123.578663
_cell_angle_gamma                 89.991703
_cell_volume                      21963.6859313

loop_
_atom_site_label
_atom_site_type_symbol
_atom_type_description
_atom_site_fract_x
_atom_site_fract_y
_atom_site_fract_z
_atom_type_partial_charge
Br1   Br    Br    0.904658 0.002475 0.602308 -0.505888
Br2   Br    Br    0.095353 0.002645 0.397700 -0.508814
Br3   Br    Br    0.404673 0.503368 0.602326 -0.507826
Br4   Br    Br    0.595275 0.504584 0.397619 -0.507229
Br5   Br    Br    0.700186 0.071862 0.285874 -0.481553
Br6   Br    Br    0.299889 0.034405 0.672116 -0.470492
Br7   Br    Br    0.200125 0.548673 0.316978 -0.474053
Br8   Br    Br    0.799851 0.553293 0.687662 -0.475692
C1    C     C_R   0.919307 0.000009 0.419390 0.926948
C2    C     C_R   0.271801 0.986114 0.823254 -0.224530
C3    C     C_R   0.982950 0.228415 0.932122 -0.175250
C4    C     C_R   0.519222 0.728413 0.068243 -0.175243
C5    C     C_R   0.480757 0.728415 0.931735 -0.175237
C6    C     C_R   0.999988 0.206779 0.999988 0.164076
C7    C     C_R   0.499989 0.706779 0.999988 0.163754
C8    C     C_1   0.499996 0.837915 0.999991 -0.062513
C9    C     C_1   0.999995 0.337915 0.999991 -0.062378
C10   C     C_3   0.979543 0.966166 0.750252 -0.180202
C11   C     C_3   0.020539 0.966200 0.249823 -0.179712
C12   C     C_3   0.479218 0.466355 0.749926 -0.180183
C13   C     C_R   0.228190 0.480420 0.181148 -0.224525
C14   C     C_3   0.521224 0.466616 0.250512 -0.180258
C15   C     C_1   0.999989 0.162345 0.999989 -0.063060
C16   C     C_1   0.499989 0.662345 0.999989 -0.063047
C17   C     C_1   0.999992 0.125030 0.999991 -0.174403
C18   C     C_1   0.499992 0.625030 0.999992 -0.174315
C19   C     C_1   0.499998 0.875232 0.999993 -0.165064
C20   C     C_1   0.999998 0.375232 0.999994 -0.164851
C21   C     C_3   0.000166 0.000020 0.810828 -0.032491
C22   C     C_3   0.999840 0.000016 0.189179 -0.033091
C23   C     C_3   0.500161 0.500012 0.810823 -0.032730
C24   C     C_R   0.771821 0.478541 0.816971 -0.224395
C25   C     C_3   0.499839 0.500000 0.189177 -0.032681
C26   C     C_3   0.981315 0.034877 0.751991 -0.180633
C27   C     C_3   0.018620 0.034907 0.247948 -0.180694
C28   C     C_3   0.481637 0.535046 0.752317 -0.180383
C29   C     C_3   0.517901 0.535270 0.247224 -0.180263
C30   C     C_3   0.020975 0.033779 0.750368 -0.208990
C31   C     C_3   0.978964 0.033734 0.249579 -0.208563
C32   C     C_3   0.521285 0.533575 0.750677 -0.208698
C33   C     C_3   0.478274 0.533287 0.248887 -0.208554
C34   C     C_3   0.039834 0.998981 0.810449 -0.154206
C35   C     C_R   0.706582 0.000831 0.207527 0.082871
C36   C     C_3   0.960178 0.998901 0.189568 -0.153597
C37   C     C_3   0.539816 0.498600 0.810427 -0.153905
C38   C     C_3   0.460207 0.498077 0.189595 -0.154055
C39   C     C_3   0.019200 0.965183 0.748630 -0.209820
C40   C     C_3   0.980888 0.965141 0.251453 -0.209945
C41   C     C_3   0.518860 0.464999 0.748289 -0.210160
C42   C     C_3   0.481605 0.464748 0.252170 -0.210306
C43   C     C_3   0.434216 0.207226 0.049970 -0.281081
C44   C     C_3   0.565979 0.206930 0.950690 -0.273891
C45   C     C_3   0.926608 0.706968 0.031234 -0.278262
C46   C     C_R   0.293414 0.000375 0.792055 0.081086
C47   C     C_3   0.073391 0.706975 0.968703 -0.278500
C48   C     C_R   0.206585 0.500571 0.207828 0.081565
C49   C     C_R   0.793415 0.500610 0.792216 0.081747
C50   C     C_R   0.728443 0.030499 0.264955 0.280957
C51   C     C_R   0.271586 0.014576 0.717271 0.279361
C52   C     C_R   0.228419 0.520651 0.278112 0.279438
C53   C     C_R   0.080692 0.000002 0.580619 0.926412
C54   C     C_R   0.771571 0.522602 0.723846 0.279589
C55   C     C_R   0.771921 0.030083 0.308206 -0.185590
C56   C     C_R   0.228108 0.014359 0.674276 -0.183837
C57   C     C_R   0.271897 0.520351 0.321178 -0.183794
C58   C     C_R   0.728094 0.522274 0.680747 -0.183913
C59   C     C_R   0.793335 0.000318 0.294181 0.106334
C60   C     C_R   0.206660 0.000096 0.705723 0.103923
C61   C     C_R   0.293338 0.500192 0.294251 0.104569
C62   C     C_R   0.706662 0.500195 0.705748 0.104738
C63   C     C_R   0.771551 0.970832 0.237067 -0.173249
C64   C     C_R   0.419308 0.500008 0.419383 0.926597
C65   C     C_R   0.228408 0.985975 0.780086 -0.177602
C66   C     C_R   0.271583 0.480231 0.224360 -0.176776
C67   C     C_R   0.728428 0.478334 0.773736 -0.176190
C68   C     C_1   0.662105 0.000456 0.162430 0.012274
C69   C     C_1   0.337891 0.000204 0.837381 0.011008
C70   C     C_1   0.162107 0.500317 0.162566 0.011275
C71   C     C_1   0.837893 0.500337 0.837456 0.011526
C72   C     C_1   0.837756 0.000121 0.338360 -0.020796
C73   C     C_1   0.162241 0.000019 0.661613 -0.021169
C74   C     C_1   0.337758 0.500069 0.338379 -0.021161
C75   C     C_R   0.580692 0.500003 0.580615 0.926619
C76   C     C_1   0.662242 0.500059 0.661615 -0.021081
C77   C     C_1   0.875061 0.000027 0.375419 -0.143273
C78   C     C_1   0.124936 0.999992 0.624581 -0.143056
C79   C     C_1   0.375063 0.500014 0.375418 -0.143263
C80   C     C_1   0.624937 0.500001 0.624577 -0.143274
C81   C     C_R   0.000335 0.000002 0.622170 0.911196
C82   C     C_R   0.999674 0.000000 0.377838 0.911568
C83   C     C_R   0.500328 0.500001 0.622164 0.911379
C84   C     C_R   0.499674 0.499998 0.377837 0.911302
C85   C     C_1   0.624795 0.000185 0.124778 -0.138184
C86   C     C_3   0.000383 0.999985 0.689628 -0.040942
C87   C     C_1   0.375202 0.000080 0.875176 -0.138392
C88   C     C_1   0.124797 0.500130 0.124811 -0.138371
C89   C     C_1   0.875203 0.500137 0.875196 -0.138266
C90   C     C_R   0.000003 0.919356 0.000003 0.900210
C91   C     C_R   0.500003 0.419356 0.000002 0.899986
C92   C     C_R   0.000038 0.000049 0.878122 0.884180
C93   C     C_R   0.999963 0.000047 0.121879 0.884391
C94   C     C_R   0.500037 0.500044 0.878121 0.884188
C95   C     C_R   0.499963 0.500038 0.121879 0.884195
C96   C     C_R   0.999997 0.080766 0.999997 0.903444
C97   C     C_3   0.999631 0.999979 0.310386 -0.041218
C98   C     C_R   0.499997 0.580766 0.999997 0.903513
C99   C     C_R   0.500000 0.919501 0.999998 0.894485
C100  C     C_R   0.000000 0.419501 0.999999 0.894526
C101  C     C_R   0.580544 0.999994 0.080479 0.895663
C102  C     C_R   0.419455 0.999997 0.919516 0.893737
C103  C     C_R   0.080545 0.499997 0.080482 0.894154
C104  C     C_R   0.919455 0.499997 0.919518 0.894407
C105  C     C_R   0.500004 0.080591 0.000006 0.892521
C106  C     C_R   0.999999 0.580590 0.000001 0.891767
C107  C     C_R   0.487928 0.228290 0.042249 0.484288
C108  C     C_3   0.500373 0.499979 0.689618 -0.041038
C109  C     C_R   0.512195 0.228285 0.957944 0.481827
C110  C     C_R   0.984244 0.728292 0.036384 0.482866
C111  C     C_R   0.015765 0.728282 0.963631 0.482960
C112  C     C_R   0.500061 0.206628 0.000095 -0.096794
C113  C     C_R   0.000003 0.706626 0.000006 -0.096706
C114  C     C_R   0.014903 0.771865 0.962603 -0.276901
C115  C     C_R   0.985113 0.771874 0.037420 -0.276809
C116  C     C_R   0.511314 0.271866 0.957024 -0.276619
C117  C     C_R   0.488795 0.271876 0.043140 -0.277119
C118  C     C_3   0.961141 0.001017 0.690682 0.318527
C119  C     C_3   0.499628 0.499966 0.310383 -0.041031
C120  C     C_3   0.038869 0.001084 0.309326 0.319187
C121  C     C_3   0.461143 0.501380 0.690686 0.318974
C122  C     C_3   0.538836 0.501873 0.309292 0.318877
C123  C     C_R   0.000010 0.793420 0.000014 0.018510
C124  C     C_R   0.500045 0.293421 0.000066 0.018691
C125  C     C_1   0.500042 0.162108 0.000065 0.096609
C126  C     C_1   0.000002 0.662106 0.000005 0.095964
C127  C     C_1   0.000010 0.837827 0.000013 0.011983
C128  C     C_1   0.500027 0.337828 0.000038 0.012033
C129  C     C_1   0.000008 0.875123 0.000010 -0.186610
C130  C     C_R   0.728158 0.971091 0.193740 -0.225058
C131  C     C_1   0.500013 0.375123 0.000017 -0.186551
C132  C     C_1   0.500024 0.124817 0.000034 -0.140577
C133  C     C_1   0.000000 0.624817 0.000004 -0.141147
C134  C     C_R   0.480758 0.771844 0.931735 -0.173396
C135  C     C_R   0.519225 0.771841 0.068243 -0.174768
C136  C     C_R   0.982951 0.271843 0.932123 -0.173925
C137  C     C_R   0.017030 0.271842 0.067855 -0.173879
C138  C     C_R   0.499993 0.793479 0.999989 0.161567
C139  C     C_R   0.999992 0.293479 0.999989 0.161493
C140  C     C_R   0.017027 0.228413 0.067854 -0.175244
H1    H     H_    0.962478 0.938739 0.751828 0.160131
H2    H     H_    0.025973 0.788771 0.932939 0.170669
H3    H     H_    0.480565 0.288793 0.077130 0.170430
H4    H     H_    0.519559 0.288770 0.923047 0.170619
H5    H     H_    0.969728 0.211747 0.879462 0.145932
H6    H     H_    0.030248 0.211745 0.120514 0.145882
H7    H     H_    0.465833 0.711748 0.878773 0.146423
H8    H     H_    0.534145 0.711744 0.121204 0.146156
H9    H     H_    0.465834 0.788511 0.878773 0.148396
H10   H     H_    0.534152 0.788507 0.121205 0.147403
H11   H     H_    0.969729 0.288511 0.879463 0.147940
H12   H     H_    0.037662 0.938805 0.248297 0.160546
H13   H     H_    0.030254 0.288508 0.120516 0.147926
H14   H     H_    0.965690 0.063161 0.754985 0.157520
H15   H     H_    0.034182 0.063221 0.244894 0.157603
H16   H     H_    0.466281 0.563476 0.755584 0.157471
H17   H     H_    0.532878 0.563895 0.243581 0.157092
H18   H     H_    0.037957 0.061283 0.748793 0.161073
H19   H     H_    0.961924 0.061206 0.251104 0.161503
H20   H     H_    0.538524 0.560917 0.749354 0.161147
H21   H     H_    0.460676 0.560403 0.249862 0.160849
H22   H     H_    0.072176 0.998141 0.861200 0.158992
H23   H     H_    0.461895 0.439090 0.751243 0.160353
H24   H     H_    0.927837 0.998001 0.138821 0.159612
H25   H     H_    0.572149 0.497453 0.861167 0.159288
H26   H     H_    0.427892 0.496508 0.138872 0.159110
H27   H     H_    0.034746 0.936821 0.745677 0.162185
H28   H     H_    0.965404 0.936750 0.254465 0.162210
H29   H     H_    0.534138 0.436491 0.745070 0.162156
H30   H     H_    0.466703 0.436044 0.255755 0.162377
H31   H     H_    0.788083 0.947742 0.226085 0.151079
H32   H     H_    0.211847 0.974910 0.804572 0.148998
H33   H     H_    0.288139 0.464592 0.203378 0.149490
H34   H     H_    0.538906 0.439576 0.249554 0.160837
H35   H     H_    0.711881 0.461206 0.793226 0.149865
H36   H     H_    0.711427 0.948147 0.149527 0.157913
H37   H     H_    0.288504 0.975125 0.880889 0.158555
H38   H     H_    0.211481 0.464886 0.126995 0.158371
H39   H     H_    0.788538 0.461528 0.869643 0.158426
H40   H     H_    0.418294 0.193168 0.992752 0.159176
H41   H     H_    0.422472 0.239356 0.046722 0.157680
H42   H     H_    0.426025 0.188162 0.083382 0.200435
H43   H     H_    0.581632 0.192580 0.007644 0.163568
H44   H     H_    0.577991 0.239008 0.954627 0.157326
H45   H     H_    0.788942 0.052898 0.352550 0.183696
H46   H     H_    0.574196 0.187979 0.917193 0.200488
H47   H     H_    0.913829 0.692620 0.974970 0.161761
H48   H     H_    0.914119 0.739052 0.024938 0.157894
H49   H     H_    0.915610 0.688024 0.060480 0.200316
H50   H     H_    0.086212 0.692670 0.025013 0.161314
H51   H     H_    0.085845 0.739062 0.974894 0.158115
H52   H     H_    0.084381 0.688008 0.939463 0.200326
H53   H     H_    0.211111 0.025282 0.616577 0.192008
H54   H     H_    0.288898 0.535793 0.375416 0.189467
H55   H     H_    0.711085 0.539188 0.627983 0.188564
H56   H     H_    0.974041 0.788786 0.067081 0.170668
O1    O     O_R   0.939010 0.034440 0.439030 -0.612962
O2    O     O_R   0.439000 0.999980 0.991570 -0.622261
O3    O     O_R   0.061000 0.499980 0.008430 -0.621348
O4    O     O_R   0.939000 0.499980 0.991570 -0.621064
O5    O     O_R   0.500000 0.061040 0.052440 -0.604294
O6    O     O_R   0.500000 0.061040 0.947560 -0.604593
O7    O     O_R   0.000000 0.561040 0.052440 -0.604343
O8    O     O_R   0.000000 0.561040 0.947560 -0.604285
O9    O     O_R   0.939030 0.965580 0.439000 -0.614117
O10   O     O_R   0.060970 0.965580 0.561000 -0.613213
O11   O     O_R   0.439030 0.465580 0.439000 -0.613752
O12   O     O_R   0.060990 0.034440 0.560970 -0.613093
O13   O     O_R   0.560970 0.465580 0.561000 -0.614041
O14   O     O_R   0.000010 0.034440 0.593030 -0.620555
O15   O     O_R   0.999990 0.034440 0.406970 -0.620415
O16   O     O_R   0.500010 0.534440 0.593030 -0.620222
O17   O     O_R   0.499990 0.534440 0.406970 -0.619833
O18   O     O_R   0.000020 0.965580 0.593000 -0.621239
O19   O     O_R   0.999980 0.965580 0.407000 -0.621316
O20   O     O_R   0.500020 0.465580 0.593000 -0.621590
O21   O     O_R   0.499980 0.465580 0.407000 -0.621961
O22   O     O_R   0.034440 0.939060 0.034360 -0.613790
O23   O     O_R   0.439010 0.534440 0.439030 -0.612855
O24   O     O_R   0.965560 0.939060 0.965640 -0.614054
O25   O     O_R   0.534440 0.439060 0.034360 -0.613687
O26   O     O_R   0.465560 0.439060 0.965640 -0.614079
O27   O     O_R   0.034440 0.000050 0.941370 -0.629678
O28   O     O_R   0.965560 0.000050 0.058630 -0.629619
O29   O     O_R   0.534440 0.500050 0.941370 -0.629607
O30   O     O_R   0.465560 0.500050 0.058630 -0.629648
O31   O     O_R   0.965570 0.000070 0.872530 -0.613599
O32   O     O_R   0.034430 0.000070 0.127470 -0.613242
O33   O     O_R   0.465570 0.500070 0.872530 -0.613401
O34   O     O_R   0.560990 0.534440 0.560970 -0.612634
O35   O     O_R   0.534430 0.500070 0.127470 -0.613386
O36   O     O_R   0.034450 0.061050 0.034440 -0.613770
O37   O     O_R   0.965550 0.061050 0.965560 -0.613743
O38   O     O_R   0.534450 0.561050 0.034440 -0.613749
O39   O     O_R   0.465550 0.561050 0.965560 -0.613641
O40   O     O_R   0.500030 0.939050 0.052570 -0.615249
O41   O     O_R   0.499970 0.939050 0.947430 -0.613992
O42   O     O_R   0.000030 0.439050 0.052570 -0.614550
O43   O     O_R   0.999970 0.439050 0.947430 -0.614709
O44   O     O_3   0.477880 0.206764 0.086306 -0.584903
O45   O     O_R   0.561000 0.000050 0.113470 -0.599764
O46   O     O_3   0.522285 0.206768 0.913937 -0.587190
O47   O     O_3   0.970540 0.706783 0.074952 -0.586569
O48   O     O_3   0.029459 0.706762 0.925049 -0.586499
O49   O     O_R   0.439000 0.000050 0.886530 -0.594667
O50   O     O_R   0.061000 0.500050 0.113470 -0.596232
O51   O     O_R   0.939000 0.500050 0.886530 -0.596773
O52   O     O_R   0.561000 0.999980 0.008430 -0.619762
Zn1   Zn    Zn3+2 1.000000 0.045990 0.500000 0.995102
Zn2   Zn    Zn3+2 0.499980 0.000060 0.929880 1.010764
Zn3   Zn    Zn3+2 0.000020 0.500060 0.070120 1.008840
Zn4   Zn    Zn3+2 0.999980 0.500060 0.929880 1.008148
Zn5   Zn    Zn3+2 0.500000 0.545990 0.500000 0.995775
Zn6   Zn    Zn3+2 0.000000 0.954030 0.500000 0.994923
Zn7   Zn    Zn3+2 0.500000 0.454030 0.500000 0.993838
Zn8   Zn    Zn3+2 0.045990 0.000050 0.045940 0.986229
Zn9   Zn    Zn3+2 0.954010 0.000050 0.954060 0.985610
Zn10  Zn    Zn3+2 0.545990 0.500050 0.045940 0.986332
Zn11  Zn    Zn3+2 0.454010 0.500050 0.954060 0.986037
Zn12  Zn    Zn3+2 0.500020 0.000060 0.070120 1.004555

loop_
_geom_bond_atom_site_label_1
_geom_bond_atom_site_label_2
_ccdc_geom_bond_type
O31   Zn9   S    
C135  C138  A    
C109  O46   S    
O27   Zn8   S    
O7    Zn3   S    
O13   Zn7   S    
C103  O3    A    
C21   C34   S    
O5    Zn12  S    
Br3   C121  S    
C33   C119  S    
O16   Zn5   S    
C98   O39   A    
C56   H53   S    
C56   C60   A    
C67   H35   S    
C10   C39   S    
C18   C98   S    
C24   C67   A    
O43   Zn4   S    
C13   H38   S    
C66   H33   S    
O1    Zn1   S    
C15   C17   T    
O28   Zn9   S    
C100  O43   A    
C101  O45   A    
C51   C56   A    
C72   C77   T    
C137  H13   S    
C115  H56   S    
C60   C73   S    
O12   Zn1   S    
O45   Zn12  S    
C84   O17   A    
C9    C139  S    
C109  C116  A    
C16   C18   T    
C105  O6    A    
C30   C34   S    
C123  C127  S    
C110  O47   S    
C128  C131  T    
C44   H44   S    
C75   O13   A    
C2    C65   A    
C47   H50   S    
C102  O49   A    
C106  O8    A    
C96   O37   A    
C100  O42   A    
C11   C120  S    
C83   O16   A    
C2    H37   S    
C48   C70   S    
C29   C122  S    
C116  C124  A    
C35   C130  A    
C8    C138  S    
C112  C125  S    
C45   O47   S    
C63   H31   S    
C81   C86   S    
C134  C138  A    
C5    H7    S    
C43   H40   S    
C117  H3    S    
C35   C50   A    
C1    C77   S    
C81   O14   A    
C65   H32   S    
O49   Zn2   S    
C47   H51   S    
C57   H54   S    
C47   H52   S    
C70   C88   T    
C64   O23   A    
O2    Zn12  S    
C91   O25   A    
C33   C38   S    
C38   H26   S    
O42   Zn3   S    
C53   O12   A    
C19   C99   S    
C113  C126  S    
O20   Zn7   S    
C10   H1    S    
C62   C76   S    
C3    C136  A    
C12   C121  S    
C23   C28   S    
C90   O24   A    
C73   C78   T    
C43   H41   S    
C26   C118  S    
C14   C42   S    
C46   C69   S    
C91   C131  S    
C8    C19   T    
C111  C113  A    
C75   C80   S    
C116  H4    S    
C75   O34   A    
C97   C120  S    
O4    Zn3   S    
C26   C30   S    
C14   C122  S    
C31   H19   S    
C25   C38   S    
O14   Zn1   S    
C22   C36   S    
C140  H6    S    
C24   C49   A    
C98   O38   A    
C136  C139  A    
C2    C46   A    
C64   O11   A    
O18   Zn6   S    
C71   C89   T    
C63   C130  A    
C41   H29   S    
C46   C51   A    
C86   C118  S    
O9    Zn6   S    
C32   C37   S    
C88   C103  S    
C55   C59   A    
C137  C139  A    
C90   C129  S    
C21   C92   S    
C106  C133  S    
O11   Zn7   S    
C28   C32   S    
C44   H46   S    
Br1   C118  S    
C104  O4    A    
C83   C108  S    
C53   C78   S    
C109  C112  A    
C81   O18   A    
C89   C104  S    
C54   C58   A    
C11   C40   S    
C104  O51   A    
Br4   C122  S    
C42   H30   S    
C49   C54   A    
C60   C65   A    
C33   H21   S    
C13   C66   A    
O8    Zn4   S    
C34   H22   S    
C27   H15   S    
C48   C52   A    
O35   Zn10  S    
O52   Zn2   S    
O40   Zn12  S    
C110  C113  A    
C76   C80   T    
C6    C15   S    
C27   C31   S    
C36   H24   S    
C12   C41   S    
C37   H25   S    
C68   C85   T    
C99   O41   A    
C40   C97   S    
C114  H2    S    
C4    C7    A    
C37   C41   S    
C124  C128  S    
C30   C86   S    
C93   O32   A    
C55   H45   S    
C105  C132  S    
C61   C66   A    
C102  O2    A    
C10   C21   S    
C5    C134  A    
O29   Zn10  S    
C136  H11   S    
O50   Zn3   S    
O41   Zn2   S    
C82   O15   A    
C43   H42   S    
C125  C132  T    
O15   Zn1   S    
C58   H55   S    
C22   C27   S    
C7    C16   S    
C12   H23   S    
O32   Zn8   S    
C95   O30   A    
C5    C7    A    
C45   H47   S    
C127  C129  T    
O37   Zn9   S    
C99   O40   A    
C53   O10   A    
O21   Zn7   S    
C134  H9    S    
C84   C119  S    
O22   Zn8   S    
C114  C123  A    
C64   C79   S    
C130  H36   S    
C137  C140  A    
O23   Zn5   S    
C135  H10   S    
C107  O44   S    
C111  C114  A    
C50   C55   A    
C30   H18   S    
C14   C25   S    
O51   Zn4   S    
C94   O33   A    
C24   H39   S    
C115  C123  A    
C25   C95   S    
C9    C20   T    
Br6   C51   S    
O10   Zn6   S    
C92   O27   A    
C59   C72   S    
C31   C97   S    
C82   C97   S    
O39   Zn11  S    
C26   H14   S    
C87   C102  S    
C52   C57   A    
C13   C48   A    
C29   H17   S    
O25   Zn10  S    
C107  C112  A    
C17   C96   S    
C31   C36   S    
C108  C121  S    
C23   C94   S    
O6    Zn2   S    
C38   C42   S    
C101  O52   A    
O17   Zn5   S    
C107  C117  A    
C4    C135  A    
Br2   C120  S    
C91   O26   A    
O33   Zn11  S    
C45   H49   S    
C106  O7    A    
C43   O44   S    
C110  C115  A    
C119  C122  S    
C105  O5    A    
C82   O19   A    
C14   H34   S    
C6    C140  A    
C11   H12   S    
C111  O48   S    
C10   C118  S    
C126  C133  T    
C117  C124  A    
O30   Zn11  S    
C32   C108  S    
C84   O21   A    
O26   Zn11  S    
C103  O50   A    
C57   C61   A    
O3    Zn4   S    
C21   C26   S    
C22   C93   S    
C3    C6    A    
C39   C86   S    
C69   C87   T    
C61   C74   S    
C93   O28   A    
C59   C63   A    
C34   C39   S    
O38   Zn10  S    
C4    H8    S    
C29   C33   S    
C27   C120  S    
C20   C100  S    
C49   C71   S    
C25   C29   S    
C32   H20   S    
O24   Zn9   S    
C3    H5    S    
C36   C40   S    
C41   C108  S    
C58   C62   A    
C94   O29   A    
C95   O35   A    
Br5   C50   S    
C23   C37   S    
Br7   C52   S    
Br8   C54   S    
C62   C67   A    
C28   H16   S    
C45   H48   S    
C96   O36   A    
C47   O48   S    
C35   C68   S    
O34   Zn5   S    
C1    O1    A    
C42   C119  S    
C90   O22   A    
C83   O20   A    
C28   C121  S    
C11   C22   S    
C44   O46   S    
O36   Zn8   S    
C44   H43   S    
O19   Zn6   S    
C39   H27   S    
C74   C79   T    
C85   C101  S    
C1    O9    A    
C40   H28   S    
C12   C23   S    
C92   O31   A    
