data_mof_unit_23912.cif
_audit_creation_date              2012-12-10T20:31:08-0500
_audit_creation_method            fapswitch 2.2
_symmetry_space_group_name_H-M    P1
_symmetry_Int_Tables_number       1
_space_group_crystal_system       triclinic
_cell_length_a                    14.893563
_cell_length_b                    10.749187
_cell_length_c                    9.902456
_cell_angle_alpha                 88.955286
_cell_angle_beta                  90.806918
_cell_angle_gamma                 90.519901
_cell_volume                      1584.8384033

loop_
_atom_site_label
_atom_site_type_symbol
_atom_type_description
_atom_site_fract_x
_atom_site_fract_y
_atom_site_fract_z
_atom_type_partial_charge
C1    C     C_R   0.502318 0.260127 0.500611 0.927930
C2    C     C_R   0.185690 0.410022 0.427761 -0.213353
C3    C     C_R   0.231899 0.502298 0.497072 -0.019118
C4    C     C_R   0.327163 0.500956 0.499109 0.879724
C5    C     C_R   0.187847 0.593928 0.567284 -0.225044
C6    C     C_R   0.473245 0.060064 0.612166 0.012877
C7    C     C_R   0.501943 0.127603 0.498812 -0.263612
C8    C     C_R   0.522941 0.064845 0.378686 0.453503
C9    C     C_R   0.516459 0.936368 0.376680 -0.350316
C10   C     C_R   0.496924 0.870607 0.495501 -0.136707
C11   C     C_R   0.472961 0.932870 0.610459 -0.005515
C12   C     C_R   0.907816 0.588658 0.574165 0.050534
C13   C     C_3   0.506012 0.916467 0.752379 -0.626451
C14   C     C_3   0.504521 0.059026 0.757845 0.935930
C15   C     C_R   0.421497 0.490897 0.069736 0.204077
C16   C     C_R   0.500508 0.739376 0.498799 0.909629
C17   C     C_R   0.575267 0.529251 0.074194 -0.143502
C18   C     C_R   0.574895 0.534434 0.930543 0.032250
C19   C     C_R   0.421163 0.491032 0.927857 0.073032
C20   C     C_3   0.350897 0.390914 0.924664 -0.227959
C21   C     C_3   0.352114 0.391084 0.079071 -0.571050
C22   C     C_R   0.672961 0.499726 0.500908 0.844956
C23   C     C_R   0.952601 0.302261 0.374077 -0.005686
C24   C     C_R   0.815071 0.587293 0.575232 -0.171325
C25   C     C_R   0.768441 0.497089 0.503585 -0.031362
C26   C     C_R   0.812120 0.403960 0.435066 -0.275807
C27   C     C_R   0.905600 0.398575 0.438020 0.052972
C28   C     C_R   0.953498 0.495125 0.504532 0.055905
C29   C     C_3   0.456077 0.082839 0.978734 0.129501
C30   C     C_3   0.371739 0.041981 0.053069 -0.835578
C31   C     C_3   0.663799 0.074958 0.725709 -0.012344
C32   C     C_3   0.732534 0.178032 0.701125 -0.745750
C33   C     C_2   0.652796 0.593173 0.864983 0.425682
C34   C     C_R   0.046203 0.309340 0.369099 -0.207742
C35   C     C_2   0.263160 0.434978 0.865402 0.503171
C36   C     C_2   0.906873 0.190652 0.318023 0.380879
C37   C     C_3   0.114619 0.881203 0.606905 0.085733
C38   C     C_3   0.041355 0.979623 0.602843 -0.802523
C39   C     C_3   0.644886 0.121463 0.255676 0.064188
C40   C     C_3   0.677077 0.207567 0.142380 -0.770876
C41   C     C_R   0.092898 0.406137 0.431481 0.112720
C42   C     C_R   0.046914 0.498688 0.501432 0.017050
C43   C     C_R   0.094656 0.594934 0.568018 -0.004094
C44   C     C_R   0.048280 0.689357 0.634189 0.498755
C45   C     C_R   0.955063 0.683464 0.639739 -0.268066
H1    H     H_    0.778907 0.658918 0.627199 0.130411
H2    H     H_    0.083314 0.237080 0.319728 0.184854
H3    H     H_    0.222347 0.339312 0.374978 0.131958
H4    H     H_    0.226726 0.664178 0.620047 0.157747
H5    H     H_    0.919570 0.754401 0.693630 0.176626
H6    H     H_    0.480460 0.172665 0.019337 0.208650
H7    H     H_    0.508951 0.011914 0.999863 0.149286
H8    H     H_    0.349883 0.948608 0.018609 0.249583
H9    H     H_    0.385363 0.037103 0.163439 0.239304
H10   H     H_    0.316699 0.109020 0.032693 0.271533
H11   H     H_    0.650773 0.029108 0.627591 0.130479
H12   H     H_    0.532670 0.888814 0.284679 0.183036
H13   H     H_    0.693233 0.006371 0.798646 0.163195
H14   H     H_    0.749226 0.225252 0.797237 0.278328
H15   H     H_    0.794751 0.138547 0.659414 0.196265
H16   H     H_    0.704793 0.247163 0.627554 0.243286
H17   H     H_    0.642785 0.656284 0.779794 0.078968
H18   H     H_    0.238192 0.526810 0.887948 0.064579
H19   H     H_    0.841066 0.162108 0.352283 0.033907
H20   H     H_    0.127350 0.848413 0.502608 0.126869
H21   H     H_    0.177967 0.926207 0.642008 0.185267
H22   H     H_    0.027731 0.011518 0.706547 0.275887
H23   H     H_    0.454363 0.869323 0.815682 0.211700
H24   H     H_    0.063498 0.060682 0.540226 0.227717
H25   H     H_    0.978624 0.941230 0.557625 0.233783
H26   H     H_    0.665853 0.025014 0.233010 0.147213
H27   H     H_    0.677774 0.151311 0.351732 0.118992
H28   H     H_    0.659031 0.304974 0.164203 0.267623
H29   H     H_    0.751071 0.201691 0.133446 0.223249
H30   H     H_    0.645825 0.180430 0.044807 0.268086
H31   H     H_    0.572811 0.871945 0.759601 0.155120
H32   H     H_    0.635372 0.553820 0.130606 0.187687
H33   H     H_    0.375165 0.304307 0.880147 0.246992
H34   H     H_    0.289433 0.425096 0.125169 0.201060
H35   H     H_    0.771982 0.337431 0.379772 0.128581
H36   H     H_    0.378930 0.304847 0.127111 0.228487
N1    N     N_R   0.499390 0.499140 0.142800 -0.112453
N2    N     N_R   0.499390 0.499180 0.857150 -0.142276
O1    O     O_R   0.500010 0.316790 0.614690 -0.574063
O2    O     O_3   0.586045 0.127110 0.781805 -0.625268
O3    O     O_2   0.728774 0.576230 0.909093 -0.586497
O4    O     O_2   0.218847 0.366986 0.792419 -0.552406
O5    O     O_2   0.943568 0.126779 0.234654 -0.561453
O6    O     O_3   0.093395 0.784176 0.700217 -0.615907
O7    O     O_3   0.550498 0.128251 0.263496 -0.611087
O8    O     O_R   0.500000 0.316760 0.385350 -0.569058
O9    O     O_R   0.367850 0.499990 0.614680 -0.612013
O10   O     O_R   0.367840 0.499950 0.385340 -0.627916
O11   O     O_R   0.500000 0.683240 0.614650 -0.642957
O12   O     O_R   0.499990 0.683210 0.385310 -0.627605
O13   O     O_R   0.632160 0.500050 0.614660 -0.633949
O14   O     O_R   0.632150 0.500010 0.385320 -0.629400
O15   O     O_3   0.434531 0.100265 0.840034 -0.641506
Zn1   Zn    Zn3+2 0.500010 0.500020 0.653130 0.967523
Zn2   Zn    Zn3+2 0.499990 0.499980 0.346870 0.954761

loop_
_geom_bond_atom_site_label_1
_geom_bond_atom_site_label_2
_ccdc_geom_bond_type
C38   H25   S    
C31   O2    S    
C41   C42   A    
C19   C20   S    
C43   C44   A    
C7    C8    A    
C36   O5    D    
C1    O1    A    
C15   C19   A    
C30   H9    S    
C26   C27   A    
C29   C30   S    
C29   O15   S    
C12   C28   A    
C45   H5    S    
C31   H13   S    
C32   H16   S    
C2    C41   A    
O13   Zn1   S    
C40   H28   S    
C17   C18   A    
C17   N1    A    
C20   C35   S    
C35   O4    D    
C8    C9    A    
C22   C25   S    
C37   H20   S    
C39   H27   S    
C23   C27   A    
O8    Zn2   S    
C9    C10   A    
C39   O7    S    
C5    C43   A    
C38   H24   S    
C1    O8    A    
C22   O14   A    
N2    Zn1   S    
C13   C14   S    
C5    H4    S    
C34   C41   A    
N1    Zn2   S    
C19   N2    A    
C14   O15   S    
C15   N1    A    
C30   H8    S    
C24   C25   A    
C39   C40   S    
O12   Zn2   S    
C33   H17   S    
C2    H3    S    
C25   C26   A    
C26   H35   S    
C33   O3    D    
C37   C38   S    
C6    C14   S    
C31   C32   S    
C13   H31   S    
C23   C34   A    
C37   H21   S    
C21   H34   S    
C17   H32   S    
C18   N2    A    
C38   H22   S    
O10   Zn2   S    
C21   H36   S    
C31   H11   S    
C8    O7    S    
C42   C43   A    
C32   H15   S    
C3    C4    S    
C6    C11   A    
O14   Zn2   S    
C44   C45   A    
C29   H6    S    
C16   O12   A    
C1    C7    S    
O1    Zn1   S    
C22   O13   A    
C14   O2    S    
C12   C45   A    
C3    C5    A    
C6    C7    A    
C37   O6    S    
C30   H10   S    
C12   C24   A    
C16   O11   A    
C40   H30   S    
C20   H33   S    
C24   H1    S    
C2    C3    A    
C10   C16   S    
C11   C13   S    
O11   Zn1   S    
C28   C42   A    
C40   H29   S    
C9    H12   S    
C18   C33   S    
C10   C11   A    
C4    O10   A    
C15   C21   S    
C20   C21   S    
C23   C36   S    
C27   C28   A    
C39   H26   S    
C35   H18   S    
C34   H2    S    
C32   H14   S    
C36   H19   S    
C29   H7    S    
C44   O6    S    
O9    Zn1   S    
C4    O9    A    
C13   H23   S    
