data_mof_unit_53633.cif
_audit_creation_date              2012-12-10T18:53:02-0500
_audit_creation_method            fapswitch 2.2
_symmetry_space_group_name_H-M    P1
_symmetry_Int_Tables_number       1
_space_group_crystal_system       triclinic
_cell_length_a                    9.881679
_cell_length_b                    10.649883
_cell_length_c                    16.622753
_cell_angle_alpha                 89.776238
_cell_angle_beta                  84.923685
_cell_angle_gamma                 88.741768
_cell_volume                      1742.07235

loop_
_atom_site_label
_atom_site_type_symbol
_atom_type_description
_atom_site_fract_x
_atom_site_fract_y
_atom_site_fract_z
_atom_type_partial_charge
C1    C     C_R   0.498984 0.739889 0.500607 0.896195
C2    C     C_R   0.067669 0.610697 0.503916 0.563700
C3    C     C_R   0.075638 0.390245 0.498507 -0.217288
C4    C     C_R   0.924157 0.609637 0.502721 -0.243618
C5    C     C_R   0.481076 0.499155 0.653289 0.944163
C6    C     C_R   0.518941 0.494921 0.346029 0.879924
C7    C     C_R   0.472406 0.469054 0.738405 -0.172865
C8    C     C_R   0.534394 0.464761 0.259252 -0.190125
C9    C     C_R   0.553964 0.530140 0.790620 0.454045
C10   C     C_R   0.424718 0.427299 0.215237 0.457281
C11   C     C_R   0.571500 0.476177 0.865430 -0.206661
C12   C     C_R   0.501091 0.260111 0.499432 0.840165
C13   C     C_R   0.453825 0.381395 0.137057 -0.207019
C14   C     C_R   0.509920 0.361716 0.888261 0.106178
C15   C     C_R   0.587912 0.372253 0.101148 0.114726
C16   C     C_R   0.422471 0.306477 0.837843 -0.140521
C17   C     C_R   0.694049 0.412367 0.143812 -0.165964
C18   C     C_R   0.403765 0.359845 0.763239 -0.254234
C19   C     C_R   0.667735 0.458639 0.221499 -0.251429
C20   C     C_2   0.520480 0.308251 0.969016 -0.184075
C21   C     C_2   0.617430 0.344383 0.014710 -0.186801
C22   C     C_3   0.911424 0.203244 0.425536 0.045903
C23   C     C_R   0.600485 0.933329 0.537729 -0.158009
C24   C     C_3   0.858310 0.257095 0.348240 -0.316987
C25   C     C_3   0.901998 0.174156 0.275517 -0.899075
C26   C     C_3   0.090837 0.795920 0.573192 0.078310
C27   C     C_3   0.027966 0.921431 0.548425 -0.385429
C28   C     C_3   0.982851 0.002109 0.621995 -0.911825
C29   C     C_R   0.400237 0.066675 0.461958 -0.199938
C30   C     C_R   0.602598 0.061924 0.536399 -0.196600
C31   C     C_R   0.398358 0.938067 0.463119 -0.198451
C32   C     C_R   0.502363 0.127662 0.498628 -0.005097
C33   C     C_R   0.498139 0.872352 0.501206 -0.011057
C34   C     C_R   0.932352 0.389204 0.495259 0.544541
H1    H     H_    0.753524 0.488179 0.252445 0.184860
H2    H     H_    0.323153 0.118279 0.432068 0.169955
H3    H     H_    0.680156 0.109742 0.565943 0.189785
H4    H     H_    0.321201 0.890145 0.433292 0.195600
H5    H     H_    0.132826 0.302962 0.500470 0.167570
H6    H     H_    0.866901 0.697096 0.503820 0.174339
H7    H     H_    0.713464 0.828032 0.828345 0.383657
H8    H     H_    0.055562 0.414243 0.204359 0.373842
H9    H     H_    0.869906 0.107803 0.435379 0.166857
H10   H     H_    0.023565 0.189681 0.417716 0.145795
H11   H     H_    0.745596 0.263603 0.355692 0.238017
H12   H     H_    0.342088 0.311586 0.722849 0.170754
H13   H     H_    0.898447 0.352663 0.336496 0.221461
H14   H     H_    0.014614 0.167387 0.266024 0.299799
H15   H     H_    0.862661 0.215404 0.220533 0.266227
H16   H     H_    0.860652 0.078528 0.284834 0.262768
H17   H     H_    0.182670 0.815295 0.604776 0.187011
H18   H     H_    0.018766 0.747488 0.618083 0.153053
H19   H     H_    0.103435 0.973640 0.508513 0.227171
H20   H     H_    0.938683 0.904550 0.514156 0.210648
H21   H     H_    0.903663 0.953609 0.661499 0.280393
H22   H     H_    0.939591 0.092861 0.602048 0.281015
H23   H     H_    0.711826 0.380055 0.985731 0.159585
H24   H     H_    0.070861 0.021601 0.656886 0.269448
H25   H     H_    0.434267 0.256074 0.995184 0.159175
H26   H     H_    0.370539 0.220850 0.855653 0.156340
H27   H     H_    0.797745 0.410178 0.116377 0.155331
H28   H     H_    0.369782 0.357113 0.103499 0.195483
H29   H     H_    0.631757 0.525276 0.905912 0.190839
H30   H     H_    0.677473 0.881720 0.567683 0.184251
N1    N     N_R   0.142790 0.500030 0.500020 -0.116642
N2    N     N_R   0.857210 0.499970 0.499980 -0.129858
O1    O     O_R   0.385380 0.683250 0.500010 -0.568502
O2    O     O_2   0.546558 0.753302 0.714812 -0.347212
O3    O     O_3   0.665592 0.751640 0.848162 -0.555333
O4    O     O_2   0.225653 0.341271 0.320008 -0.345035
O5    O     O_2   0.213345 0.564787 0.283403 -0.287598
O6    O     O_3   0.149534 0.400620 0.179443 -0.582765
O7    O     O_3   0.866214 0.276107 0.494410 -0.639975
O8    O     O_3   0.132849 0.724225 0.503269 -0.623585
O9    O     O_R   0.614620 0.316750 0.499990 -0.573754
O10   O     O_R   0.614710 0.683220 0.500000 -0.629302
O11   O     O_R   0.385290 0.316780 0.500000 -0.633823
O12   O     O_R   0.371780 0.500040 0.615800 -0.628783
O13   O     O_R   0.628220 0.499960 0.384200 -0.642608
O14   O     O_R   0.601110 0.500010 0.615800 -0.556287
O15   O     O_R   0.398890 0.499990 0.384200 -0.508962
O16   O     O_2   0.767898 0.644731 0.715697 -0.323411
S1    S     S_3+6 0.635209 0.673153 0.764247 -0.001585
S2    S     S_3+6 0.250107 0.434784 0.252612 0.000616
Zn1   Zn    Zn3+2 0.346870 0.500020 0.500000 1.041770
Zn2   Zn    Zn3+2 0.653130 0.499980 0.500000 1.009547

loop_
_geom_bond_atom_site_label_1
_geom_bond_atom_site_label_2
_ccdc_geom_bond_type
C4    N2    A    
C2    N1    A    
C34   N2    A    
C28   H22   S    
C27   H20   S    
C1    C33   S    
C29   H2    S    
C26   C27   S    
C24   H11   S    
C29   C32   A    
C11   H29   S    
C11   C14   A    
C7    C9    A    
C16   H26   S    
C25   H16   S    
C26   O8    S    
O14   Zn2   S    
C17   H27   S    
C22   H10   S    
C13   H28   S    
C4    H6    S    
C23   C33   A    
C31   C33   A    
O4    S2    D    
C2    O8    S    
O11   Zn1   S    
C6    O15   A    
C12   C32   S    
O2    S1    D    
C3    N1    A    
C18   H12   S    
C28   H21   S    
O1    Zn1   S    
C8    C19   A    
C23   C30   A    
C14   C20   S    
C24   C25   S    
C5    C7    S    
C17   C19   A    
C6    C8    S    
C3    C34   A    
C30   H3    S    
C20   H25   S    
C2    C4    A    
C21   H23   S    
O3    S1    S    
C26   H18   S    
O9    Zn2   S    
C22   H9    S    
C7    C18   A    
C12   O11   A    
H8    O6    S    
C5    O14   A    
C9    C11   A    
C25   H14   S    
O6    S2    S    
C9    S1    S    
O12   Zn1   S    
C16   C18   A    
C23   H30   S    
C13   C15   A    
C22   C24   S    
O10   Zn2   S    
H7    O3    S    
O5    S2    D    
C15   C17   A    
C1    O10   A    
C10   C13   A    
N2    Zn2   S    
C27   H19   S    
N1    Zn1   S    
C28   H24   S    
C31   H4    S    
C24   H13   S    
C29   C31   A    
C19   H1    S    
C26   H17   S    
C30   C32   A    
C6    O13   A    
C10   S2    S    
C1    O1    A    
C14   C16   A    
C25   H15   S    
C34   O7    S    
C3    H5    S    
C15   C21   S    
C20   C21   D    
C8    C10   A    
O16   S1    D    
C12   O9    A    
C27   C28   S    
C22   O7    S    
C5    O12   A    
O13   Zn2   S    
O15   Zn1   S    
