data_mof_unit_21657.cif
_audit_creation_date              2012-12-11T17:07:58-0500
_audit_creation_method            fapswitch 2.2
_symmetry_space_group_name_H-M    P1
_symmetry_Int_Tables_number       1
_space_group_crystal_system       triclinic
_cell_length_a                    17.360423
_cell_length_b                    17.434591
_cell_length_c                    18.070825
_cell_angle_alpha                 90.233277
_cell_angle_beta                  90.284931
_cell_angle_gamma                 89.562148
_cell_volume                      5469.25864685

loop_
_atom_site_label
_atom_site_type_symbol
_atom_type_description
_atom_site_fract_x
_atom_site_fract_y
_atom_site_fract_z
_atom_type_partial_charge
C1    C     C_R   0.406642 0.314594 0.875155 0.565643
C2    C     C_R   0.197589 0.889514 0.407473 0.529278
C3    C     C_R   0.691411 0.778673 0.330881 0.451326
C4    C     C_R   0.220035 0.310072 0.667328 0.446431
C5    C     C_R   0.271985 0.820770 0.721829 0.423971
C6    C     C_R   0.777214 0.704939 0.686089 0.452857
C7    C     C_R   0.694197 0.229191 0.667573 0.490705
C8    C     C_R   0.657967 0.267610 0.726560 0.464589
C9    C     C_R   0.741135 0.668571 0.745646 0.426550
C10   C     C_R   0.314914 0.766154 0.761153 0.427747
C11   C     C_R   0.263799 0.348931 0.721006 0.455698
C12   C     C_R   0.652686 0.734485 0.277678 0.446103
C13   C     C_R   0.102102 0.193797 0.391260 0.547345
C14   C     C_R   0.733304 0.342569 0.273942 0.461456
C15   C     C_R   0.329871 0.263931 0.255111 0.433445
C16   C     C_R   0.262721 0.643945 0.281141 0.413646
C17   C     C_3   0.434357 0.214008 0.952682 -0.211216
C18   C     C_3   0.800772 0.373868 0.945620 -0.200103
C19   C     C_3   0.645075 0.780474 0.984764 -0.208916
C20   C     C_3   0.211002 0.557329 0.958448 -0.315427
C21   C     C_3   0.437456 0.786153 0.053463 -0.223603
C22   C     C_3   0.786974 0.564891 0.046855 -0.216821
C23   C     C_3   0.627619 0.200346 0.054737 -0.196786
C24   C     C_R   0.805036 0.102937 0.392348 0.623708
C25   C     C_3   0.218523 0.354978 0.014644 -0.207288
C26   C     C_3   0.940066 0.708578 0.467073 -0.350926
C27   C     C_3   0.292095 0.866580 0.495059 -0.051718
C28   C     C_3   0.127616 0.305418 0.453282 -0.097073
C29   C     C_3   0.708049 0.054819 0.461036 -0.377919
C30   C     C_3   0.944368 0.291073 0.537883 -0.376328
C31   C     C_3   0.295135 0.074548 0.529308 -0.273780
C32   C     C_3   0.111327 0.704749 0.603702 -0.251175
C33   C     C_3   0.691791 0.875997 0.546347 -0.100366
C34   C     C_3   0.776665 0.396227 0.554003 -0.163039
C35   C     C_R   0.897311 0.194672 0.607701 0.621530
C36   C     C_3   0.566420 0.920486 0.689276 -0.277292
C37   C     C_3   0.961868 0.738883 0.834127 -0.240298
C38   C     C_3   0.452030 0.194243 0.568275 -0.285631
C39   C     C_3   0.816821 0.553606 0.434918 -0.265661
C40   C     C_3   0.604516 0.224350 0.447488 -0.176429
C41   C     C_3   0.078433 0.429647 0.310352 -0.271042
C42   C     C_3   0.417108 0.960933 0.352660 -0.313752
C43   C     C_3   0.352536 0.928790 0.155757 -0.250509
C44   C     C_3   0.039312 0.377391 0.111678 -0.288162
C45   C     C_3   0.510040 0.100021 0.215142 -0.244032
C46   C     C_R   0.195148 0.105113 0.603682 0.577899
C47   C     C_3   0.910567 0.519490 0.216226 -0.279425
C48   C     C_3   0.479062 0.091386 0.784142 -0.283802
C49   C     C_3   0.091161 0.736234 0.003965 -0.258441
C50   C     C_3   0.621405 0.958526 0.886279 -0.293320
C51   C     C_3   0.906276 0.486834 0.786485 -0.214624
C52   C     C_3   0.097266 0.635829 0.312215 -0.224515
C53   C     C_3   0.392724 0.156510 0.364042 -0.259477
C54   C     C_3   0.871853 0.386882 0.354957 -0.376031
C55   C     C_3   0.613113 0.885864 0.335324 -0.178613
C56   C     C_3   0.113384 0.389863 0.660740 -0.197996
C57   C     C_R   0.085275 0.827144 0.638829 0.624861
C58   C     C_3   0.352873 0.920201 0.700707 -0.200284
C59   C     C_3   0.858980 0.610268 0.643044 -0.266895
C60   C     C_3   0.614253 0.127758 0.647392 -0.384575
C61   C     C_3   0.558007 0.343201 0.691456 -0.232289
C62   C     C_3   0.656654 0.580107 0.702452 -0.181013
C63   C     C_3   0.394696 0.695815 0.688086 -0.191784
C64   C     C_3   0.321608 0.455476 0.677654 -0.193695
C65   C     C_3   0.545497 0.674425 0.317678 -0.172272
C66   C     C_3   0.660086 0.442970 0.311628 -0.214237
C67   C     C_3   0.416428 0.352395 0.294595 -0.222952
C68   C     C_R   0.805264 0.897696 0.607520 0.547449
C69   C     C_3   0.288697 0.523906 0.322575 -0.225839
C70   C     C_3   0.824404 0.379093 0.673235 0.273089
C71   C     C_3   0.682304 0.884735 0.742780 0.412905
C72   C     C_3   0.088415 0.777664 0.836131 0.367497
C73   C     C_R   0.690400 0.402064 0.882757 0.556026
C74   C     C_3   0.369671 0.170070 0.668137 0.331441
C75   C     C_3   0.834324 0.631238 0.330391 0.336357
C76   C     C_3   0.620361 0.178100 0.327659 0.267655
C77   C     C_3   0.113325 0.315121 0.254627 0.402087
C78   C     C_3   0.338513 0.864484 0.310722 0.399551
C79   C     C_3   0.369740 0.830528 0.240032 0.444849
C80   C     C_3   0.144573 0.337674 0.180736 0.388167
C81   C     C_3   0.597097 0.193406 0.249004 0.450723
C82   C     C_3   0.811803 0.599880 0.256422 0.394915
C83   C     C_3   0.400021 0.191073 0.742885 0.394655
C84   C     C_R   0.605649 0.695014 0.895795 0.554551
C85   C     C_3   0.137050 0.722925 0.885117 0.367093
C86   C     C_3   0.660932 0.853649 0.817216 0.395134
C87   C     C_3   0.810041 0.402005 0.752073 0.444039
C88   C     C_R   0.399970 0.692246 0.886204 -0.208169
C89   C     C_R   0.320044 0.410342 0.867280 -0.207103
C90   C     C_R   0.597974 0.313179 0.876440 -0.190354
C91   C     C_R   0.693152 0.600503 0.888262 -0.176781
C92   C     C_R   0.399187 0.306956 0.111361 -0.171694
C93   C     C_R   0.318359 0.590456 0.130676 -0.242636
C94   C     C_R   0.592412 0.680990 0.130999 -0.204547
C95   C     C_R   0.307268 0.603881 0.887184 0.592748
C96   C     C_R   0.686987 0.402499 0.123890 -0.189002
C97   C     C_R   0.894376 0.193868 0.390922 -0.257153
C98   C     C_R   0.806330 0.896381 0.389603 -0.239840
C99   C     C_R   0.105260 0.803192 0.398004 -0.205251
C100  C     C_R   0.190616 0.100327 0.382681 -0.261133
C101  C     C_R   0.897346 0.808089 0.613414 -0.212471
C102  C     C_R   0.805941 0.105780 0.608993 -0.254365
C103  C     C_R   0.103394 0.194121 0.609300 -0.235707
C104  C     C_R   0.166306 0.925942 0.642600 -0.178024
C105  C     C_R   0.344787 0.342239 0.834439 -0.007375
C106  C     C_R   0.405996 0.684405 0.126595 0.601580
C107  C     C_R   0.668482 0.335140 0.847454 -0.029567
C108  C     C_R   0.677318 0.674654 0.867428 -0.023640
C109  C     C_R   0.326547 0.675618 0.862619 0.033007
C110  C     C_R   0.343205 0.657214 0.166388 0.043784
C111  C     C_R   0.660057 0.655247 0.164042 -0.010219
C112  C     C_R   0.665191 0.332316 0.152987 -0.029443
C113  C     C_R   0.324637 0.322708 0.131552 -0.016531
C114  C     C_R   0.821593 0.819989 0.374196 -0.059654
C115  C     C_R   0.182661 0.814111 0.386486 -0.040520
C116  C     C_R   0.173310 0.175436 0.363824 0.019442
C117  C     C_R   0.686294 0.592780 0.124382 0.568037
C118  C     C_R   0.817864 0.177977 0.373755 -0.032627
C119  C     C_R   0.822145 0.182049 0.626436 -0.030374
C120  C     C_R   0.180189 0.180116 0.623518 -0.049626
C121  C     C_R   0.142223 0.863172 0.680797 -0.031776
C122  C     C_R   0.822397 0.825546 0.632742 -0.007750
C123  C     C_R   0.780239 0.322443 0.764568 -0.034989
C124  C     C_R   0.722198 0.792764 0.806765 -0.055439
C125  C     C_R   0.202658 0.739187 0.834187 -0.017414
C126  C     C_R   0.323680 0.228304 0.758075 0.022109
C127  C     C_R   0.774297 0.675748 0.240548 0.018227
C128  C     C_R   0.598230 0.310031 0.117380 0.557261
C129  C     C_R   0.677336 0.221445 0.236080 -0.036348
C130  C     C_R   0.206011 0.276897 0.190706 -0.036929
C131  C     C_R   0.341131 0.754958 0.267440 -0.101081
C132  C     C_R   0.308556 0.786642 0.329086 -0.084681
C133  C     C_R   0.170834 0.250692 0.253566 -0.125211
C134  C     C_R   0.701717 0.191897 0.303045 0.012913
C135  C     C_R   0.807973 0.707661 0.301913 -0.044558
C136  C     C_R   0.292356 0.194674 0.696367 -0.045996
C137  C     C_R   0.160017 0.786787 0.792220 -0.051219
C138  C     C_R   0.746761 0.827215 0.743084 -0.131752
C139  C     C_R   0.304541 0.394108 0.103596 0.542713
C140  C     C_R   0.809403 0.298001 0.697487 0.011308
C141  C     C_R   0.703886 0.303929 0.781494 -0.231233
C142  C     C_R   0.716336 0.712702 0.807867 -0.198758
C143  C     C_R   0.280271 0.726408 0.819843 -0.153915
C144  C     C_R   0.309591 0.306031 0.771305 -0.234980
C145  C     C_R   0.696228 0.689512 0.227361 -0.236814
C146  C     C_R   0.696773 0.297099 0.218923 -0.231046
C147  C     C_R   0.286249 0.284926 0.191335 -0.205694
C148  C     C_R   0.314336 0.686550 0.236976 -0.116649
C149  C     C_R   0.238158 0.759278 0.355033 -0.166177
C150  C     C_R   0.897003 0.805627 0.394237 0.633755
C151  C     C_R   0.213456 0.222265 0.312676 -0.096970
C152  C     C_R   0.759128 0.228061 0.343117 -0.138802
C153  C     C_R   0.770636 0.764675 0.341720 -0.062201
C154  C     C_R   0.235058 0.231418 0.656290 -0.057628
C155  C     C_R   0.191204 0.826553 0.733876 -0.152171
C156  C     C_R   0.776409 0.784826 0.684401 -0.084340
C157  C     C_R   0.772516 0.240951 0.657405 -0.142808
C158  C     C_R   0.217804 0.683186 0.334659 0.469498
C159  C     C_R   0.293320 0.227749 0.314500 0.455779
C160  C     C_R   0.771160 0.306155 0.333353 0.490102
H1    H     H_    0.883763 0.392039 0.654301 0.108994
H2    H     H_    0.166637 0.397386 0.180185 0.120035
H3    H     H_    0.074239 0.459917 0.256543 0.115061
H4    H     H_    0.095845 0.471801 0.353250 0.197252
H5    H     H_    0.367272 0.997596 0.368148 0.176558
H6    H     H_    0.435854 0.972931 0.295305 0.102918
H7    H     H_    0.465274 0.974836 0.390816 0.163803
H8    H     H_    0.416335 0.931853 0.151319 0.118419
H9    H     H_    0.331265 0.973662 0.194558 0.110073
H10   H     H_    0.328130 0.941718 0.100320 0.181959
H11   H     H_    0.067941 0.432818 0.099556 0.158394
H12   H     H_    0.000596 0.383151 0.160165 0.109972
H13   H     H_    0.551587 0.238291 0.242200 0.121173
H14   H     H_    0.002965 0.362717 0.063070 0.177244
H15   H     H_    0.467575 0.144331 0.197273 0.169383
H16   H     H_    0.499813 0.082533 0.272974 0.094046
H17   H     H_    0.501850 0.048862 0.179405 0.155558
H18   H     H_    0.868865 0.472719 0.204933 0.174988
H19   H     H_    0.937965 0.513627 0.271487 0.090708
H20   H     H_    0.956994 0.514578 0.174596 0.159785
H21   H     H_    0.526173 0.132675 0.795701 0.174670
H22   H     H_    0.485447 0.063078 0.729450 0.091946
H23   H     H_    0.483018 0.045765 0.826537 0.161673
H24   H     H_    0.771477 0.551143 0.257544 0.136769
H25   H     H_    0.079981 0.673530 0.006532 0.120366
H26   H     H_    0.038116 0.767946 0.987348 0.131249
H27   H     H_    0.106822 0.755423 0.060638 0.192802
H28   H     H_    0.566080 0.929741 0.899142 0.160236
H29   H     H_    0.614713 0.996939 0.837749 0.110993
H30   H     H_    0.636587 0.994919 0.934600 0.177488
H31   H     H_    0.861070 0.530406 0.799180 0.159810
H32   H     H_    0.930860 0.495723 0.730648 0.102805
H33   H     H_    0.953600 0.495164 0.827118 0.169932
H34   H     H_    0.112944 0.590269 0.272091 0.180049
H35   H     H_    0.449212 0.230892 0.743100 0.137659
H36   H     H_    0.083343 0.689626 0.281733 0.144586
H37   H     H_    0.044032 0.617191 0.340391 0.165070
H38   H     H_    0.446984 0.187976 0.354978 0.228877
H39   H     H_    0.379877 0.117985 0.316339 0.094629
H40   H     H_    0.402318 0.120018 0.413236 0.125876
H41   H     H_    0.850550 0.441920 0.333022 0.205629
H42   H     H_    0.901463 0.353905 0.310241 0.133036
H43   H     H_    0.914506 0.399897 0.399018 0.166512
H44   H     H_    0.554945 0.866365 0.318706 0.216384
H45   H     H_    0.646241 0.904563 0.285941 0.121238
H46   H     H_    0.118485 0.662010 0.883256 0.109646
H47   H     H_    0.604846 0.937099 0.370916 0.146060
H48   H     H_    0.133047 0.448851 0.673473 0.199360
H49   H     H_    0.095582 0.359907 0.712247 0.136786
H50   H     H_    0.061258 0.395947 0.625603 0.144275
H51   H     H_    0.402034 0.895753 0.732398 0.168329
H52   H     H_    0.317771 0.957626 0.737770 0.145105
H53   H     H_    0.376973 0.956987 0.656718 0.160532
H54   H     H_    0.831924 0.554054 0.653674 0.212593
H55   H     H_    0.895583 0.628295 0.690765 0.133030
H56   H     H_    0.898122 0.602329 0.595301 0.136468
H57   H     H_    0.601141 0.831313 0.818625 0.116797
H58   H     H_    0.559575 0.148485 0.670758 0.201646
H59   H     H_    0.648677 0.098167 0.691189 0.136271
H60   H     H_    0.600249 0.085470 0.603462 0.169193
H61   H     H_    0.578566 0.393910 0.723197 0.136035
H62   H     H_    0.494305 0.347199 0.688482 0.157961
H63   H     H_    0.579988 0.344860 0.633677 0.154070
H64   H     H_    0.660637 0.600591 0.644377 0.167829
H65   H     H_    0.607658 0.608839 0.731186 0.117682
H66   H     H_    0.644338 0.517844 0.700362 0.157827
H67   H     H_    0.362580 0.712941 0.637206 0.140121
H68   H     H_    0.765891 0.448052 0.759329 0.125408
H69   H     H_    0.372637 0.640540 0.709545 0.110159
H70   H     H_    0.455820 0.686613 0.672531 0.159138
H71   H     H_    0.315784 0.434007 0.619769 0.152297
H72   H     H_    0.379228 0.440047 0.700623 0.119753
H73   H     H_    0.317483 0.518879 0.675780 0.145517
H74   H     H_    0.564922 0.678916 0.376346 0.153189
H75   H     H_    0.563238 0.618205 0.293622 0.111442
H76   H     H_    0.481652 0.676594 0.317312 0.153573
H77   H     H_    0.662202 0.423200 0.370134 0.156652
H78   H     H_    0.607519 0.420998 0.283473 0.131814
H79   H     H_    0.429394 0.746644 0.883334 0.179782
H80   H     H_    0.655674 0.506423 0.312645 0.153984
H81   H     H_    0.388321 0.354739 0.349818 0.156331
H82   H     H_    0.393999 0.399021 0.258463 0.125332
H83   H     H_    0.478765 0.362552 0.303380 0.167321
H84   H     H_    0.266887 0.537386 0.378984 0.165278
H85   H     H_    0.352045 0.532948 0.319941 0.104045
H86   H     H_    0.277622 0.462229 0.312083 0.182670
H87   H     H_    0.268016 0.441992 0.855644 0.234528
H88   H     H_    0.568937 0.259773 0.866419 0.205291
H89   H     H_    0.702879 0.945152 0.741313 0.071528
H90   H     H_    0.746683 0.569426 0.881353 0.189435
H91   H     H_    0.430419 0.253739 0.118613 0.185087
H92   H     H_    0.267626 0.556759 0.140603 0.210449
H93   H     H_    0.564684 0.735220 0.140814 0.226625
H94   H     H_    0.740591 0.431417 0.133871 0.207404
H95   H     H_    0.923291 0.247941 0.387112 0.203421
H96   H     H_    0.752084 0.925631 0.385064 0.226652
H97   H     H_    0.076073 0.749745 0.401489 0.231173
H98   H     H_    0.243023 0.068833 0.370962 0.155154
H99   H     H_    0.926396 0.753971 0.621082 0.212486
H100  H     H_    0.070108 0.832860 0.862336 0.046898
H101  H     H_    0.751628 0.077085 0.612504 0.205075
H102  H     H_    0.073829 0.248063 0.613440 0.228949
H103  H     H_    0.209544 0.965404 0.660093 0.214550
H104  H     H_    0.377400 0.222050 0.979763 0.126775
H105  H     H_    0.480766 0.242630 0.984421 0.162277
H106  H     H_    0.447565 0.151668 0.952568 0.176697
H107  H     H_    0.812014 0.318038 0.917638 0.162849
H108  H     H_    0.766512 0.364702 0.996576 0.105890
H109  H     H_    0.857177 0.397744 0.962790 0.166827
H110  H     H_    0.698736 0.803357 0.961048 0.201188
H111  H     H_    0.377611 0.108100 0.656361 0.116506
H112  H     H_    0.662617 0.729008 0.016375 0.115503
H113  H     H_    0.621114 0.823616 0.023801 0.162819
H114  H     H_    0.214096 0.609029 0.994651 0.177531
H115  H     H_    0.246453 0.510763 0.981846 0.209992
H116  H     H_    0.150386 0.537695 0.957322 0.171086
H117  H     H_    0.379704 0.785209 0.026420 0.167315
H118  H     H_    0.480065 0.753866 0.020183 0.176368
H119  H     H_    0.457152 0.846424 0.055066 0.157868
H120  H     H_    0.779482 0.622010 0.020346 0.124364
H121  H     H_    0.757761 0.519391 0.014606 0.164604
H122  H     H_    0.896996 0.624633 0.340619 0.120197
H123  H     H_    0.849450 0.551107 0.046909 0.176287
H124  H     H_    0.683483 0.189278 0.083196 0.161295
H125  H     H_    0.637134 0.234637 0.003921 0.104777
H126  H     H_    0.603990 0.144141 0.037261 0.166429
H127  H     H_    0.197837 0.300525 0.038275 0.201511
H128  H     H_    0.269696 0.339652 0.981484 0.117221
H129  H     H_    0.173362 0.378002 0.977022 0.168438
H130  H     H_    0.882173 0.705827 0.493086 0.210579
H131  H     H_    0.980452 0.743206 0.500614 0.172497
H132  H     H_    0.964024 0.649478 0.465480 0.166232
H133  H     H_    0.606866 0.119015 0.346384 0.109103
H134  H     H_    0.326434 0.818004 0.472785 0.155057
H135  H     H_    0.244701 0.843528 0.529354 0.123137
H136  H     H_    0.330917 0.900015 0.531489 0.191776
H137  H     H_    0.179766 0.323822 0.423300 0.191533
H138  H     H_    0.147665 0.269271 0.499455 0.144570
H139  H     H_    0.099188 0.357314 0.476441 0.162150
H140  H     H_    0.706141 0.109259 0.492709 0.187034
H141  H     H_    0.744339 0.012557 0.490123 0.216354
H142  H     H_    0.648582 0.032358 0.458188 0.164923
H143  H     H_    0.889290 0.292199 0.506782 0.188662
H144  H     H_    0.052544 0.294931 0.255883 0.071556
H145  H     H_    0.986995 0.255359 0.508610 0.216463
H146  H     H_    0.966266 0.350546 0.540117 0.165334
H147  H     H_    0.296116 0.134908 0.509445 0.207248
H148  H     H_    0.261459 0.037940 0.492213 0.213346
H149  H     H_    0.354932 0.051835 0.529121 0.153917
H150  H     H_    0.171155 0.705095 0.626062 0.140478
H151  H     H_    0.111311 0.721667 0.544395 0.128919
H152  H     H_    0.090115 0.644986 0.606606 0.172254
H153  H     H_    0.675290 0.822430 0.574765 0.194495
H154  H     H_    0.726051 0.858898 0.497917 0.147074
H155  H     H_    0.292936 0.908897 0.301880 0.059308
H156  H     H_    0.638377 0.904763 0.526601 0.161623
H157  H     H_    0.832956 0.419596 0.536103 0.127819
H158  H     H_    0.730614 0.425919 0.522264 0.161102
H159  H     H_    0.771475 0.334370 0.540696 0.174228
H160  H     H_    0.589255 0.976914 0.673389 0.142187
H161  H     H_    0.536980 0.924366 0.743573 0.112189
H162  H     H_    0.523033 0.903813 0.647059 0.184001
H163  H     H_    0.940930 0.798270 0.845325 0.142644
H164  H     H_    0.967910 0.706023 0.886439 0.108978
H165  H     H_    0.917345 0.710081 0.799986 0.158406
H166  H     H_    0.433703 0.833371 0.235826 0.118662
H167  H     H_    0.461960 0.131220 0.571036 0.096847
H168  H     H_    0.505295 0.225049 0.583179 0.206351
H169  H     H_    0.438736 0.208820 0.510014 0.204948
H170  H     H_    0.879192 0.541572 0.426498 0.088657
H171  H     H_    0.784475 0.499601 0.428947 0.193643
H172  H     H_    0.809007 0.573768 0.492575 0.209562
H173  H     H_    0.666744 0.228246 0.460841 0.178193
H174  H     H_    0.580116 0.168446 0.464705 0.127917
H175  H     H_    0.575505 0.270175 0.479877 0.162853
H176  H     H_    0.021908 0.406954 0.326347 0.142050
N1    N     N_R   0.425360 0.368540 0.922560 -0.109486
N2    N     N_R   0.131460 0.925360 0.422560 -0.087607
N3    N     N_R   0.074640 0.131460 0.422560 -0.097996
N4    N     N_R   0.868540 0.074640 0.422560 -0.100854
N5    N     N_R   0.925360 0.131460 0.577440 -0.101700
N6    N     N_R   0.131460 0.074640 0.577440 -0.099243
N7    N     N_R   0.074640 0.868540 0.577440 -0.126334
N8    N     N_R   0.868540 0.925360 0.577440 -0.099324
N9    N     N_R   0.425340 0.631500 0.922560 -0.089317
N10   N     N_R   0.368500 0.425340 0.922560 -0.087806
N11   N     N_R   0.574660 0.368500 0.922560 -0.085955
N12   N     N_R   0.631460 0.425360 0.922560 -0.098427
N13   N     N_R   0.631500 0.574660 0.922560 -0.084357
N14   N     N_R   0.425340 0.368500 0.077440 -0.083830
N15   N     N_R   0.368500 0.574660 0.077440 -0.091555
N16   N     N_R   0.574660 0.631500 0.077440 -0.086399
N17   N     N_R   0.631500 0.425340 0.077440 -0.086332
N18   N     N_R   0.925340 0.131500 0.422560 -0.081575
N19   N     N_R   0.868500 0.925340 0.422560 -0.079043
N20   N     N_R   0.074660 0.868500 0.422560 -0.079535
N21   N     N_R   0.131500 0.074660 0.422560 -0.077631
N22   N     N_R   0.925340 0.868500 0.577440 -0.090779
N23   N     N_R   0.574640 0.631460 0.922560 -0.091452
N24   N     N_R   0.868500 0.074660 0.577440 -0.081805
N25   N     N_R   0.074660 0.131500 0.577440 -0.078872
N26   N     N_R   0.131500 0.925340 0.577440 -0.080637
N27   N     N_R   0.368540 0.574640 0.922560 -0.109656
N28   N     N_R   0.425360 0.631460 0.077440 -0.113385
N29   N     N_R   0.631460 0.574640 0.077440 -0.110471
N30   N     N_R   0.574640 0.368540 0.077440 -0.098435
N31   N     N_R   0.368540 0.425360 0.077440 -0.092875
N32   N     N_R   0.925360 0.868540 0.422560 -0.100507
Ni1   Ni    Ni4+2 0.500000 0.369720 0.000000 0.192351
Ni2   Ni    Ni4+2 0.630280 0.500000 0.000000 0.192120
Ni3   Ni    Ni4+2 0.500000 0.630280 0.000000 0.198474
Ni4   Ni    Ni4+2 0.369720 0.500000 0.000000 0.198708
Ni5   Ni    Ni4+2 0.000000 0.869720 0.500000 0.193333
Ni6   Ni    Ni4+2 0.130280 0.000000 0.500000 0.221442
Ni7   Ni    Ni4+2 0.000000 0.130280 0.500000 0.205223
Ni8   Ni    Ni4+2 0.869720 0.000000 0.500000 0.203736
O1    O     O_3   0.432583 0.239746 0.878971 -0.622101
O2    O     O_3   0.265993 0.915383 0.437667 -0.670968
O3    O     O_3   0.074675 0.266757 0.406577 -0.669273
O4    O     O_3   0.735281 0.065719 0.388920 -0.658760
O5    O     O_3   0.934579 0.264213 0.610274 -0.659776
O6    O     O_3   0.265812 0.069208 0.601115 -0.678426
O7    O     O_3   0.062347 0.752038 0.646389 -0.598394
O8    O     O_3   0.732450 0.926965 0.593386 -0.672234
O9    O     O_3   0.763682 0.409900 0.629494 -0.667727
O10   O     O_3   0.625429 0.864807 0.690046 -0.610301
O11   O     O_3   0.031556 0.738950 0.794514 -0.567828
O12   O     O_3   0.764433 0.426381 0.897245 -0.641226
O13   O     O_3   0.391892 0.222641 0.612649 -0.625720
O14   O     O_3   0.783366 0.607995 0.386954 -0.626574
O15   O     O_3   0.590947 0.238670 0.372153 -0.669631
O16   O     O_3   0.133855 0.370582 0.308282 -0.618689
O17   O     O_3   0.398591 0.883251 0.360556 -0.591353
O18   O     O_3   0.327309 0.855416 0.177334 -0.581896
O19   O     O_3   0.093349 0.317760 0.122751 -0.611139
O20   O     O_3   0.586174 0.125319 0.207436 -0.584680
O21   O     O_3   0.876137 0.592175 0.208800 -0.570589
O22   O     O_3   0.406198 0.126221 0.789867 -0.571625
O23   O     O_3   0.589478 0.764910 0.928974 -0.668311
O24   O     O_3   0.152636 0.753131 0.956236 -0.611969
O25   O     O_3   0.681458 0.905037 0.874680 -0.614491
O26   O     O_3   0.879005 0.411377 0.793308 -0.592990
O27   O     O_3   0.155419 0.647037 0.366440 -0.630354
O28   O     O_3   0.332081 0.208255 0.379187 -0.613501
O29   O     O_3   0.811092 0.346205 0.387191 -0.636806
O30   O     O_3   0.651890 0.828846 0.377125 -0.638619
O31   O     O_3   0.170012 0.348975 0.620196 -0.645909
O32   O     O_3   0.308034 0.862205 0.667075 -0.633998
O33   O     O_3   0.801933 0.664873 0.623902 -0.617996
O34   O     O_3   0.233993 0.573694 0.885702 -0.645812
O35   O     O_3   0.653695 0.188795 0.614398 -0.636271
O36   O     O_3   0.578807 0.274188 0.727229 -0.644488
O37   O     O_3   0.726567 0.590825 0.741101 -0.638024
O38   O     O_3   0.391350 0.753517 0.742819 -0.606483
O39   O     O_3   0.262243 0.428144 0.723217 -0.615893
O40   O     O_3   0.573064 0.735868 0.275106 -0.624312
O41   O     O_3   0.727275 0.421438 0.272829 -0.644892
O42   O     O_3   0.407571 0.280225 0.260285 -0.633385
O43   O     O_3   0.249968 0.566975 0.267900 -0.627316
O44   O     O_3   0.434001 0.758057 0.126482 -0.641376
O45   O     O_3   0.761078 0.565918 0.120526 -0.621486
O46   O     O_3   0.574347 0.236191 0.102720 -0.638354
O47   O     O_3   0.234240 0.410144 0.070610 -0.671939
O48   O     O_3   0.935534 0.736524 0.394288 -0.669131

loop_
_geom_bond_atom_site_label_1
_geom_bond_atom_site_label_2
_ccdc_geom_bond_type
C37   H164  S    
C70   C140  S    
C29   O4    S    
C133  C151  A    
C9    O37   S    
C74   C83   S    
C45   O20   S    
C108  C142  S    
C40   H175  S    
N18   Ni7   S    
C43   H8    S    
C95   N27   A    
C17   O1    S    
C90   C107  A    
C33   H156  S    
C59   H55   S    
C98   C114  A    
C159  O28   S    
C61   O36   S    
C94   C111  A    
C3    O30   S    
N19   Ni8   S    
C49   H26   S    
C99   N20   A    
C73   N12   A    
C31   H147  S    
C74   C136  S    
C57   O7    S    
N16   Ni3   S    
N31   Ni4   S    
C121  C155  S    
C28   H139  S    
C93   C110  A    
C95   O34   S    
C126  C136  A    
C106  N28   A    
C37   H163  S    
C43   H10   S    
C16   C158  A    
C65   H74   S    
C95   C109  A    
C60   H59   S    
C63   H67   S    
C23   H124  S    
C88   H79   S    
N11   Ni1   S    
N23   Ni3   S    
C44   H12   S    
C21   H117  S    
C81   C129  S    
N4    Ni8   S    
C123  C141  A    
C41   H176  S    
C104  N26   A    
N6    Ni6   S    
C79   H166  S    
C25   O47   S    
C26   O48   S    
N5    N24   A    
C127  C145  A    
C63   H70   S    
C88   C109  A    
C69   H85   S    
C13   O3    S    
C114  C150  A    
C83   C126  S    
C24   O4    S    
C42   H7    S    
N28   Ni3   S    
C26   H132  S    
C66   H80   S    
C78   C79   S    
N2    N20   A    
C26   H130  S    
C116  C151  S    
C27   H135  S    
C64   H71   S    
C69   H84   S    
C7    C157  A    
C106  O44   S    
C44   O19   S    
C62   H65   S    
C101  C122  A    
C25   H128  S    
C30   H146  S    
C96   H94   S    
C76   H133  S    
C21   O44   S    
C128  O46   S    
N17   N30   A    
C48   H21   S    
N7    N26   A    
N19   N32   A    
C101  H99   S    
C32   H150  S    
C16   O43   S    
C83   H35   S    
C20   H115  S    
C2    N2    A    
C56   H49   S    
C87   H68   S    
C41   H4    S    
C14   C160  A    
C84   O23   S    
C71   H89   S    
C33   O8    S    
C102  C119  A    
C1    C105  A    
C91   H90   S    
C91   N13   A    
C65   H76   S    
C50   H28   S    
C6    C9    A    
C72   C85   S    
C7    C8    A    
C58   H51   S    
C12   O40   S    
C102  N24   A    
C17   H106  S    
C44   H14   S    
C52   O27   S    
C45   H15   S    
C68   N8    A    
C22   H120  S    
C54   H43   S    
C82   H24   S    
C137  C155  A    
C72   O11   S    
N3    Ni7   S    
C50   H29   S    
C78   C132  S    
C61   H62   S    
C19   O23   S    
C103  H102  S    
C69   O43   S    
C113  C139  A    
C8    C141  A    
N10   Ni4   S    
C107  C141  S    
C149  C158  A    
C13   N3    A    
C42   H5    S    
C29   H142  S    
C24   N4    A    
N26   Ni6   S    
C90   N11   A    
C110  C148  S    
C70   C87   S    
C28   H138  S    
C34   H159  S    
C67   H82   S    
C8    O36   S    
C46   C120  A    
C53   H39   S    
C79   O18   S    
C7    O35   S    
C51   H33   S    
C84   N23   A    
C89   N10   A    
C32   H152  S    
C89   H87   S    
C81   H13   S    
C12   C145  A    
C47   H20   S    
C60   H58   S    
C71   C86   S    
C15   O42   S    
C18   O12   S    
C119  C157  S    
C79   C131  S    
C115  C149  S    
C120  C154  S    
C59   O33   S    
C28   O3    S    
C11   O39   S    
C118  C152  S    
N30   Ni1   S    
C80   H2    S    
C5    O32   S    
C20   O34   S    
N1    N10   A    
C86   C124  S    
C36   H162  S    
N6    N25   A    
N2    Ni6   S    
C139  N31   A    
C74   O13   S    
C51   H31   S    
C38   O13   S    
C130  C147  A    
C22   O45   S    
N8    N22   A    
C9    C142  A    
C75   C82   S    
N20   Ni5   S    
C54   H41   S    
C55   H47   S    
N16   N29   A    
C68   O8    S    
C63   H69   S    
C111  C117  A    
N4    N18   A    
C17   H104  S    
C158  O27   S    
C42   O17   S    
C87   C123  S    
C77   C80   S    
C125  C143  A    
C85   O24   S    
C126  C144  A    
C58   O32   S    
C54   O29   S    
C150  N32   A    
C23   H126  S    
C30   H143  S    
C49   H25   S    
C89   C105  A    
N12   Ni2   S    
C34   H157  S    
C6    C156  A    
C160  O29   S    
C4    C154  A    
N9    Ni3   S    
C36   O10   S    
C23   O46   S    
C103  C120  A    
C100  C116  A    
C96   N17   A    
C105  C144  S    
C92   N14   A    
C43   H9    S    
C48   O22   S    
C39   H172  S    
C31   H149  S    
C139  O47   S    
C75   H122  S    
C73   O12   S    
C50   O25   S    
C124  C138  A    
C127  C135  A    
C47   H18   S    
C60   H60   S    
C99   C115  A    
C18   H107  S    
C75   C135  S    
C73   C107  A    
C99   H97   S    
C86   O25   S    
N14   N31   A    
C55   O30   S    
C4    O31   S    
C38   H167  S    
C85   C125  S    
C46   O6    S    
C90   H88   S    
C83   O22   S    
C71   C138  S    
C92   C113  A    
C93   H92   S    
C97   H95   S    
C60   O35   S    
C33   H153  S    
C132  C149  A    
C67   O42   S    
C98   H96   S    
C77   H144  S    
C55   H45   S    
C100  H98   S    
C62   O37   S    
C26   H131  S    
C94   H93   S    
C68   C122  A    
N11   N12   A    
C64   H72   S    
C76   C134  S    
C59   H56   S    
C31   O6    S    
C125  C137  A    
C36   H160  S    
C41   O16   S    
C46   N6    A    
C38   H169  S    
C25   H127  S    
C15   C159  A    
C37   H165  S    
C136  C154  A    
C2    C115  A    
C49   H27   S    
C31   H148  S    
C134  C152  A    
C102  H101  S    
C117  N29   A    
C109  C143  S    
C4    C11   A    
C129  C146  A    
C32   O7    S    
C41   H3    S    
C130  C133  A    
C53   H38   S    
C131  C132  A    
C70   H1    S    
C39   H170  S    
C35   O5    S    
C67   H83   S    
C78   H155  S    
N3    N21   A    
C122  C156  S    
C91   C108  A    
C65   H75   S    
C52   H36   S    
C86   H57   S    
C48   H23   S    
C74   H111  S    
C19   H112  S    
C58   H52   S    
C10   O38   S    
C63   O38   S    
C113  C147  S    
C21   H119  S    
C44   H11   S    
C93   N15   A    
C62   H66   S    
C21   H118  S    
C15   C147  A    
C94   N16   A    
C82   O21   S    
C55   H44   S    
C84   C108  A    
C76   O15   S    
C112  C146  S    
C40   H174  S    
N13   Ni2   S    
C50   H30   S    
C40   O15   S    
C61   H61   S    
N27   Ni4   S    
C112  C128  A    
C13   C116  A    
N15   N28   A    
C128  N30   A    
C129  C134  A    
C58   H53   S    
C69   H86   S    
C5    C10   A    
C52   H37   S    
N17   Ni2   S    
C53   O28   S    
C42   H6    S    
C66   O41   S    
C29   H141  S    
C48   H22   S    
C152  C160  A    
C5    C155  A    
C35   C119  A    
C27   H136  S    
C150  O48   S    
N13   N23   A    
C20   H116  S    
C67   H81   S    
C59   H54   S    
C103  N25   A    
C56   O31   S    
C56   H50   S    
C96   C112  A    
N21   Ni6   S    
C30   H145  S    
N7    Ni5   S    
C22   H123  S    
C111  C145  S    
C29   H140  S    
N32   Ni5   S    
C78   O17   S    
C3    C153  A    
C151  C159  A    
C97   C118  A    
N5    Ni7   S    
C17   H105  S    
C3    C12   A    
C56   H48   S    
C47   H19   S    
C104  H103  S    
N8    Ni8   S    
C80   O19   S    
C11   C144  A    
C47   O21   S    
C114  C153  S    
C45   H17   S    
C14   O41   S    
C2    O2    S    
C71   O10   S    
C35   N5    A    
C124  C142  A    
C77   C133  S    
C64   O39   S    
C100  N21   A    
N14   Ni1   S    
C85   H46   S    
C19   H110  S    
C38   H168  S    
C1    O1    S    
C75   O14   S    
C6    O33   S    
C80   C130  S    
C52   H34   S    
C88   N9    A    
C98   N19   A    
C45   H16   S    
C40   H173  S    
C104  C121  A    
C54   H42   S    
C123  C140  A    
C25   H129  S    
C39   O14   S    
C81   O20   S    
C61   H63   S    
C101  N22   A    
C87   O26   S    
C140  C157  A    
N15   Ni4   S    
N9    N27   A    
C97   N18   A    
C131  C148  A    
N22   Ni5   S    
N29   Ni2   S    
C23   H125  S    
C72   C137  S    
C72   H100  S    
C62   H64   S    
C66   H77   S    
C27   H134  S    
C1    N1    A    
C49   O24   S    
C28   H137  S    
C34   H158  S    
C43   O18   S    
C106  C110  A    
C92   H91   S    
C138  C156  A    
C36   H161  S    
C53   H40   S    
C34   O9    S    
C117  O45   S    
C22   H121  S    
C76   C81   S    
C77   O16   S    
C39   H171  S    
C14   C146  A    
C32   H151  S    
C24   C118  A    
C135  C153  A    
C16   C148  A    
C30   O5    S    
C64   H73   S    
C18   H108  S    
C19   H113  S    
C65   O40   S    
C27   O2    S    
C10   C143  A    
C70   O9    S    
C20   H114  S    
C82   C127  S    
C57   C121  A    
C37   O11   S    
N1    Ni1   S    
C33   H154  S    
N25   Ni7   S    
C51   O26   S    
C18   H109  S    
C66   H78   S    
C51   H32   S    
C57   N7    A    
N24   Ni8   S    
