data_mof_unit_41367.cif
_audit_creation_date              2013-03-05T15:40:45-0500
_audit_creation_method            fapswitch 2.2
_symmetry_space_group_name_H-M    P1
_symmetry_Int_Tables_number       1
_space_group_crystal_system       triclinic
_cell_length_a                    6.936895
_cell_length_b                    17.36429
_cell_length_c                    24.098716
_cell_angle_alpha                 104.441529
_cell_angle_beta                  90.395502
_cell_angle_gamma                 89.690854
_cell_volume                      2810.98515541

loop_
_atom_site_label
_atom_site_type_symbol
_atom_site_description
_atom_site_fract_x
_atom_site_fract_y
_atom_site_fract_z
_atom_type_partial_charge
O1    O     O_R   0.494290 0.391990 0.999150 -0.529910
O2    O     O_R   0.827170 0.534410 0.082350 -0.528376
O3    O     O_R   0.994360 0.608010 0.000850 -0.572214
C1    C     C_R   0.658552 0.549358 0.106205 0.876908
O4    O     O_R   0.824210 0.388010 0.004470 -0.495773
O5    O     O_R   0.991370 0.460560 0.922410 -0.558935
C2    C     C_R   0.654493 0.355107 0.001550 0.847937
O6    O     O_R   0.497270 0.539440 0.077590 -0.559994
O7    O     O_3   0.659770 0.523970 0.973170 -0.304028
V1    V     V_3+5 0.935840 0.495550 0.004980 1.267108
O8    O     O_R   0.320910 0.465590 0.917650 -0.563826
C3    C     C_R   0.151729 0.449890 0.894079 0.898429
O9    O     O_R   0.323870 0.611990 0.995530 -0.575915
C4    C     C_R   0.154096 0.645034 0.998532 0.843406
V2    V     V_3+5 0.435470 0.504450 0.995020 1.211050
O10   O     O_3   0.161670 0.476030 0.026830 -0.207338
C5    C     C_2   0.142441 0.730045 0.998119 -0.238459
H1    H     H_    0.276691 0.760459 0.994744 0.098597
C6    C     C_2   0.973120 0.770007 0.002047 -0.236738
H2    H     H_    0.838872 0.739594 0.005426 0.100453
C7    C     C_R   0.072198 0.245820 0.627051 0.676899
N1    N     N_R   0.090907 0.326551 0.648803 -0.431990
C8    C     C_R   0.093062 0.376784 0.612868 0.685064
C9    C     C_R   0.068584 0.346872 0.553312 -0.052873
C10   C     C_R   0.057907 0.264082 0.530401 -0.040676
C11   C     C_R   0.063453 0.212828 0.567350 -0.025392
C12   C     C_R   0.055445 0.397598 0.516168 0.038886
C13   C     C_R   0.029749 0.366444 0.457234 0.071256
C14   C     C_R   0.023949 0.283848 0.433752 -0.060127
C15   C     C_R   0.042492 0.232493 0.470347 -0.042204
C16   C     C_R   0.046189 0.149686 0.447017 -0.027507
C17   C     C_R   0.056767 0.098919 0.484238 -0.060688
C18   C     C_R   0.061609 0.130097 0.543710 -0.036727
C19   C     C_R   0.000658 0.251198 0.374447 0.662573
N2    N     N_R   0.013966 0.170500 0.351764 -0.436876
C20   C     C_R   0.040143 0.119920 0.386943 0.646998
O11   O     O_2   0.064657 0.197514 0.662989 -0.461411
O12   O     O_2   0.119266 0.455485 0.634644 -0.460865
H3    H     H_    0.062001 0.461565 0.532564 0.160207
H4    H     H_    0.017056 0.407294 0.430004 0.184827
O13   O     O_2   0.965568 0.299850 0.339723 -0.453238
O14   O     O_2   0.060752 0.041131 0.363982 -0.482701
H5    H     H_    0.058717 0.034932 0.467582 0.132521
H6    H     H_    0.067280 0.089158 0.571032 0.155223
C21   C     C_R   0.845062 0.090986 0.264777 0.332228
C22   C     C_R   0.831724 0.063119 0.204972 -0.117565
H7    H     H_    0.709462 0.026978 0.186443 0.131931
C23   C     C_R   0.976146 0.080213 0.169301 -0.180965
C24   C     C_R   0.133761 0.126647 0.194541 -0.095957
H8    H     H_    0.246272 0.141007 0.167861 0.136671
C25   C     C_R   0.146478 0.156631 0.254048 0.314901
C26   C     C_R   0.002303 0.138870 0.290115 0.197326
C27   C     C_R   0.964580 0.407783 0.741241 0.320416
C28   C     C_R   0.978471 0.436354 0.800742 -0.130327
H9    H     H_    0.863078 0.473061 0.823495 0.124840
C29   C     C_R   0.140011 0.419340 0.830832 -0.185096
C30   C     C_R   0.288335 0.372254 0.800305 -0.116405
H10   H     H_    0.413650 0.359042 0.823419 0.147906
C31   C     C_R   0.276101 0.341106 0.740410 0.370426
C32   C     C_R   0.111521 0.358982 0.710193 0.160285
C33   C     C_R   0.491463 0.878718 0.612149 0.635382
N3    N     N_R   0.501275 0.829498 0.648476 -0.442000
C34   C     C_R   0.518350 0.748687 0.627594 0.621523
C35   C     C_R   0.523251 0.713593 0.567505 -0.121353
C36   C     C_R   0.526906 0.764839 0.530140 -0.077620
C37   C     C_R   0.511869 0.847938 0.552763 -0.018005
C38   C     C_R   0.523684 0.629940 0.543312 0.248334
C39   C     C_R   0.534632 0.599113 0.483359 0.314472
C40   C     C_R   0.551899 0.650628 0.446291 -0.152102
C41   C     C_R   0.545146 0.733550 0.470006 -0.077911
C42   C     C_R   0.556255 0.785743 0.433556 -0.009522
C43   C     C_R   0.542357 0.868135 0.456985 -0.046677
C44   C     C_R   0.518105 0.898751 0.515691 -0.064037
C45   C     C_R   0.574865 0.622139 0.385989 0.647585
N4    N     N_R   0.585827 0.673923 0.351463 -0.436479
C46   C     C_R   0.579522 0.754444 0.374243 0.655971
O15   O     O_2   0.463199 0.957490 0.633521 -0.473729
O16   O     O_2   0.534538 0.703312 0.665268 -0.473876
O17   O     O_2   0.587011 0.543431 0.361753 -0.442049
O18   O     O_2   0.595601 0.804187 0.339527 -0.485139
H11   H     H_    0.548826 0.909407 0.429954 0.155728
H12   H     H_    0.507018 0.962652 0.532016 0.135439
C47   C     C_R   0.453007 0.652856 0.252152 0.408728
C48   C     C_R   0.478469 0.623247 0.192753 -0.164840
H13   H     H_    0.363868 0.631980 0.164162 0.157257
C49   C     C_R   0.645995 0.581185 0.169776 -0.186331
C50   C     C_R   0.792464 0.569853 0.208241 0.261548
C51   C     C_R   0.770028 0.601276 0.267363 0.007336
H14   H     H_    0.883166 0.592344 0.296324 0.171860
C52   C     C_R   0.602498 0.642781 0.289990 0.138102
C53   C     C_R   0.333422 0.845824 0.740540 0.001956
H15   H     H_    0.218816 0.808182 0.718228 0.134320
C54   C     C_R   0.322500 0.875649 0.799892 -0.102667
H16   H     H_    0.200982 0.859049 0.822341 0.131389
C55   C     C_R   0.467968 0.924869 0.830226 -0.201475
C56   C     C_R   0.626312 0.944690 0.799521 0.272907
C57   C     C_R   0.640606 0.911797 0.739722 0.272921
C58   C     C_R   0.491891 0.862949 0.709882 0.186297
C59   C     C_2   0.643370 0.270328 0.002459 0.089133
C60   C     C_2   0.472183 0.229635 0.997442 0.088336
O19   O     O_R   0.618210 0.960470 0.922400 -0.543273
O20   O     O_R   0.291310 0.111960 0.995450 -0.502427
O21   O     O_R   0.124210 0.039530 0.077580 -0.565947
C61   C     C_R   0.461032 0.144862 0.998352 0.858955
O22   O     O_R   0.288310 0.965490 0.917650 -0.538557
O23   O     O_R   0.121180 0.892010 0.999220 -0.575108
C62   C     C_R   0.457243 0.952154 0.893880 0.876274
O24   O     O_R   0.621230 0.107990 0.000760 -0.521179
O25   O     O_3   0.455770 0.976060 0.026840 -0.307116
V3    V     V_3+5 0.179680 0.004440 0.995020 1.272444
O26   O     O_R   0.791670 0.888040 0.004570 -0.577900
C63   C     C_R   0.961452 0.855004 0.001591 0.837126
O27   O     O_R   0.794680 0.034510 0.082370 -0.562103
C64   C     C_R   0.963989 0.049839 0.105990 0.892867
V4    V     V_3+5 0.680070 0.995560 0.005010 1.228399
O28   O     O_3   0.953840 0.023940 0.973160 -0.195909
Br1   Br    Br    0.364112 0.222113 0.283907 -0.405425
Br2   Br    Br    0.739996 0.437508 0.704488 -0.400331
N5    N     N_R   0.431212 0.291738 0.711392 0.129253
O29   O     O_R   0.546769 0.256054 0.739813 -0.277801
O30   O     O_R   0.468158 0.286848 0.657755 -0.326812
Br3   Br    Br    0.492334 0.553218 0.588767 -0.321161
N6    N     N_R   0.518498 0.514928 0.460482 0.145836
O31   O     O_R   0.657612 0.467839 0.467680 -0.325493
O32   O     O_R   0.359304 0.484964 0.435595 -0.309635
N7    N     N_R   0.273653 0.691104 0.273151 0.116232
O33   O     O_R   0.205901 0.686688 0.322471 -0.365510
O34   O     O_R   0.167506 0.723963 0.240593 -0.331668
Br4   Br    Br    0.021440 0.508060 0.184287 -0.430585
N8    N     N_R   0.766509 0.001476 0.828323 0.131943
O35   O     O_R   0.947863 0.982156 0.828167 -0.311008
O36   O     O_R   0.711921 0.072219 0.856344 -0.288669
Br5   Br    Br    0.863566 0.933422 0.698798 -0.425649
N9    N     N_R   0.822273 0.231755 0.008553 0.109008
O37   O     O_R   0.879835 0.226868 0.059068 -0.322072
O38   O     O_R   0.910867 0.191344 0.963108 -0.235344
N10   N     N_R   0.293244 0.268287 0.991530 0.107201
O39   O     O_R   0.235474 0.273422 0.941089 -0.309597
O40   O     O_R   0.205370 0.308809 0.037084 -0.267636
Br6   Br    Br    0.643945 0.062381 0.310126 -0.446509

loop_
_geom_bond_atom_site_label_1
_geom_bond_atom_site_label_2
_geom_bond_distance
_ccdc_geom_bond_type
O19   C62   1.296808 A    
C50   C51   1.402222 A    
N7    O33   1.301162 A    
C55   C56   1.419446 A    
C20   O14   1.348982 S    
N2    C20   1.374988 A    
C9    C12   1.405961 A    
C57   Br5   1.928165 S    
C1    O6    1.299650 A    
C57   C58   1.412721 A    
N6    O31   1.299943 A    
O23   C63   1.292577 A    
C21   C22   1.403792 A    
N10   O40   1.300446 A    
N3    C34   1.372259 A    
C2    C59   1.480168 S    
O21   V3    1.970067 S    
O24   V4    2.019652 S    
C23   C64   1.486747 S    
C13   C14   1.405102 A    
O22   V3    1.971448 S    
C48   C49   1.410162 A    
N1    C32   1.452119 S    
C15   C16   1.407421 A    
N6    O32   1.300512 A    
C1    C49   1.496313 S    
C13   H4    1.082690 S    
V4    O28   2.158123 S    
C60   C61   1.480091 S    
C29   C30   1.403458 A    
C19   N2    1.374083 A    
C22   H7    1.083184 S    
N4    C52   1.450004 S    
C25   Br1   1.919715 S    
N3    C58   1.450384 S    
O8    V2    1.980169 S    
C33   C37   1.405095 A    
C47   C48   1.407131 A    
C33   O15   1.349717 S    
C39   C40   1.419038 A    
C24   C25   1.400582 A    
N7    O34   1.301576 A    
C8    C9    1.408613 A    
C41   C42   1.413388 A    
O1    V2    2.019297 S    
O7    V1    2.157986 S    
C43   H11   1.083309 S    
C31   C32   1.423889 A    
C54   C55   1.403778 A    
O1    C2    1.287802 A    
O9    C4    1.301775 A    
C4    C5    1.480440 S    
C33   N3    1.368655 A    
C19   O13   1.349362 S    
C39   N6    1.432574 S    
N1    C8    1.374088 A    
C27   C32   1.414874 A    
C22   C23   1.404664 A    
N5    O30   1.301264 A    
C28   C29   1.400317 A    
C45   N4    1.371657 A    
C38   C39   1.412480 A    
C35   C38   1.423900 A    
O21   C64   1.297425 A    
C9    C10   1.407711 A    
C12   H3    1.083202 S    
C53   H15   1.082951 S    
O4    C2    1.305183 A    
C27   Br2   1.917891 S    
N9    O38   1.300308 A    
C21   C26   1.414676 A    
C10   C11   1.407446 A    
C6    C63   1.480462 S    
C37   C44   1.404514 A    
C14   C19   1.408438 A    
C21   Br6   1.920089 S    
C25   C26   1.414167 A    
C59   N9    1.431063 S    
O2    C1    1.302925 A    
N4    C46   1.369314 A    
C14   C15   1.406754 A    
C53   C54   1.396917 A    
O22   C62   1.302006 A    
C11   C18   1.407244 A    
C59   C60   1.374249 D    
N5    O29   1.301674 A    
C56   C57   1.415478 A    
C5    H1    1.086545 S    
C40   C45   1.423260 A    
C54   H16   1.083064 S    
C48   H13   1.083037 S    
O20   C61   1.305233 A    
C3    C29   1.485450 S    
O3    C4    1.292561 A    
C55   C62   1.490560 S    
C23   C24   1.404008 A    
C51   C52   1.403922 A    
C36   C37   1.413145 A    
O6    V2    1.974939 S    
C45   O17   1.348108 S    
O9    V2    2.014836 S    
O19   V4    1.976022 S    
O20   V3    2.022697 S    
C47   N7    1.441266 S    
O2    V1    1.971392 S    
C38   Br3   1.938107 S    
V3    O28   1.708317 S    
C44   H12   1.083355 S    
C61   O24   1.287707 A    
C56   N8    1.435105 S    
O27   C64   1.301086 A    
O23   V3    2.023350 S    
C10   C15   1.417498 A    
C47   C52   1.414912 A    
C28   H9    1.083462 S    
C31   N5    1.443279 S    
O26   C63   1.301799 A    
C49   C50   1.416388 A    
C18   H6    1.083152 S    
C16   C17   1.407069 A    
C46   O18   1.349509 S    
C43   C44   1.392688 A    
O5    V1    1.970279 S    
O8    C3    1.300503 A    
C27   C28   1.398305 A    
N9    O37   1.301174 A    
C8    O12   1.348954 S    
N10   O39   1.301201 A    
N8    O36   1.301196 A    
C35   C36   1.415443 A    
C50   Br4   1.921675 S    
C6    H2    1.086548 S    
N8    O35   1.300031 A    
O7    V2    1.708549 S    
O4    V1    2.022581 S    
O3    V1    2.023399 S    
V1    O10   1.708261 S    
O25   V3    2.157988 S    
C17   C18   1.400304 A    
O5    C3    1.297321 A    
C30   H10   1.083273 S    
C42   C46   1.406875 A    
C7    C11   1.410608 A    
C5    C6    1.352792 D    
C17   H5    1.083165 S    
C53   C58   1.402509 A    
C40   C41   1.411114 A    
C30   C31   1.411576 A    
C60   N10   1.431010 S    
O25   V4    1.708276 S    
C34   C35   1.424685 A    
C42   C43   1.404019 A    
C7    O11   1.349014 S    
C51   H14   1.082703 S    
C24   H8    1.083381 S    
N2    C26   1.451641 S    
C16   C20   1.410997 A    
O26   V4    2.014893 S    
O27   V4    1.980272 S    
C36   C41   1.421379 A    
C7    N1    1.375231 A    
V2    O10   2.158128 S    
C12   C13   1.398488 A    
C34   O16   1.346158 S    
