data_mof_unit_47258.cif
_audit_creation_date              2012-12-10T17:31:13-0500
_audit_creation_method            fapswitch 2.2
_symmetry_space_group_name_H-M    P1
_symmetry_Int_Tables_number       1
_space_group_crystal_system       triclinic
_cell_length_a                    11.990568
_cell_length_b                    12.891092
_cell_length_c                    15.519611
_cell_angle_alpha                 87.224592
_cell_angle_beta                  116.17431
_cell_angle_gamma                 93.337118
_cell_volume                      2148.55532552

loop_
_atom_site_label
_atom_site_type_symbol
_atom_type_description
_atom_site_fract_x
_atom_site_fract_y
_atom_site_fract_z
_atom_type_partial_charge
C1    C     C_R   0.477182 0.299442 0.498253 0.892487
C2    C     C_R   0.641502 0.970677 0.486182 -0.201400
C3    C     C_R   0.365017 0.136875 0.509355 -0.190726
C4    C     C_R   0.634875 0.863157 0.490459 -0.186884
C5    C     C_R   0.554737 0.132807 0.488787 -0.264082
C6    C     C_R   0.445124 0.867228 0.510982 -0.265157
C7    C     C_R   0.549316 0.026044 0.493514 0.179170
C8    C     C_R   0.450525 0.973991 0.506224 0.179701
C9    C     C_R   0.003561 0.602474 0.411661 -0.109119
C10   C     C_R   0.995188 0.395316 0.586507 -0.117288
C11   C     C_R   0.123916 0.589974 0.419702 -0.056613
C12   C     C_R   0.522795 0.700565 0.501703 0.896987
C13   C     C_R   0.875199 0.408674 0.579058 -0.037817
C14   C     C_R   0.162047 0.457403 0.538872 -0.017502
C15   C     C_R   0.837999 0.542488 0.461136 -0.024011
C16   C     C_R   0.577045 0.493152 0.680887 0.896208
C17   C     C_R   0.422306 0.503419 0.318975 0.875161
C18   C     C_R   0.039743 0.461896 0.531484 -0.007968
C19   C     C_R   0.959813 0.537067 0.467822 -0.010517
C20   C     C_R   0.623828 0.476292 0.785064 -0.065475
C21   C     C_R   0.371726 0.491721 0.214549 -0.112960
C22   C     C_R   0.785073 0.445975 0.946531 -0.237089
C23   C     C_R   0.642345 0.429651 0.114436 -0.215973
C24   C     C_R   0.206966 0.459165 0.055009 -0.170227
C25   C     C_R   0.750464 0.464250 0.848446 0.101661
C26   C     C_R   0.243223 0.479610 0.151501 0.096357
C27   C     C_R   0.534940 0.467167 0.820414 -0.302042
C28   C     C_R   0.459115 0.483532 0.178813 -0.273423
C29   C     C_R   0.567214 0.444681 0.916881 0.093881
C30   C     C_R   0.424392 0.455327 0.084734 0.094919
C31   C     C_R   0.694776 0.438281 0.981178 0.152115
C32   C     C_R   0.296188 0.447325 0.021241 0.108313
C33   C     C_R   0.475733 0.436133 0.951492 0.065258
C34   C     C_R   0.346863 0.424487 0.889682 -0.198218
C35   C     C_R   0.514693 0.440458 0.051403 0.076438
C36   C     C_2   0.929007 0.685915 0.345792 0.872863
C37   C     C_2   0.067211 0.308536 0.649042 0.857032
C38   C     C_R   0.730551 0.426687 0.079390 -0.191984
C39   C     C_R   0.258752 0.428704 0.924625 -0.189735
C40   C     C_R   0.536022 0.811854 0.502031 -0.067045
C41   C     C_R   0.463891 0.188173 0.497815 -0.064804
C42   C     C_R   0.358347 0.029358 0.513571 -0.202230
H1    H     H_    0.827569 0.419351 0.129625 0.158950
H2    H     H_    0.311629 0.409208 0.814223 0.155769
H3    H     H_    0.369153 0.827479 0.520887 0.166284
H4    H     H_    0.630707 0.172563 0.478883 0.165043
H5    H     H_    0.705408 0.820436 0.483310 0.191684
H6    H     H_    0.294511 0.179596 0.516540 0.192686
H7    H     H_    0.282182 0.989708 0.523129 0.154133
H8    H     H_    0.717664 0.010330 0.476621 0.154044
H9    H     H_    0.772323 0.595346 0.410783 0.171171
H10   H     H_    0.228221 0.405369 0.589893 0.169099
H11   H     H_    0.818572 0.806353 0.324143 0.347338
H12   H     H_    0.160893 0.420548 0.875338 0.179156
H13   H     H_    0.179303 0.190019 0.667962 0.347790
H14   H     H_    0.157472 0.429269 0.233918 0.208843
H15   H     H_    0.156945 0.560525 0.211930 0.214880
H16   H     H_    0.891133 0.402686 0.832512 0.192865
H17   H     H_    0.907954 0.531978 0.850810 0.184461
H18   H     H_    0.840303 0.359174 0.620905 0.164901
H19   H     H_    0.158083 0.638805 0.376994 0.154712
H20   H     H_    0.555565 0.501484 0.225414 0.167640
H21   H     H_    0.439806 0.482089 0.771876 0.167823
H22   H     H_    0.882645 0.439392 0.995668 0.148635
H23   H     H_    0.108702 0.451789 0.006460 0.134295
H24   H     H_    0.676221 0.420628 0.191268 0.149255
N1    N     N_R   0.799120 0.480200 0.517090 -0.112170
N2    N     N_R   0.200880 0.519800 0.482910 -0.112176
N3    N     N_3   0.147631 0.487627 0.182211 -0.464012
N4    N     N_3   0.844039 0.472117 0.814421 -0.433618
O1    O     O_R   0.580150 0.341050 0.504560 -0.627035
O2    O     O_R   0.864642 0.752053 0.375182 -0.827724
O3    O     O_2   0.061637 0.287336 0.724752 -0.650564
O4    O     O_R   0.135718 0.247203 0.619413 -0.828790
O5    O     O_R   0.419850 0.658950 0.495440 -0.624161
O6    O     O_R   0.388090 0.353760 0.493600 -0.618740
O7    O     O_R   0.611910 0.646240 0.506400 -0.614634
O8    O     O_R   0.650890 0.490020 0.640860 -0.584043
O9    O     O_R   0.349110 0.509980 0.359140 -0.627155
O10   O     O_R   0.458830 0.502730 0.629890 -0.630875
O11   O     O_R   0.541170 0.497270 0.370110 -0.620701
O12   O     O_2   0.928108 0.699585 0.266949 -0.626797
Zn1   Zn    Zn3+2 0.628240 0.491510 0.507320 0.961198
Zn2   Zn    Zn3+2 0.371760 0.508490 0.492680 0.942276

loop_
_geom_bond_atom_site_label_1
_geom_bond_atom_site_label_2
_ccdc_geom_bond_type
C21   C26   A    
C3    C42   A    
N1    Zn1   S    
C6    H3    S    
C27   C29   A    
C14   C18   A    
C2    C7    A    
O10   Zn2   S    
O6    Zn2   S    
C37   O4    S    
C7    C8    A    
C13   H18   S    
C15   C19   A    
C1    O1    A    
C30   C35   A    
C10   C37   S    
C23   H24   S    
C8    C42   A    
O9    Zn2   S    
O5    Zn2   S    
C39   H12   S    
C20   C25   A    
O7    Zn1   S    
C29   C33   A    
C3    H6    S    
C17   O9    A    
C18   C19   A    
C32   C39   A    
C37   O3    D    
C2    H8    S    
H13   O4    S    
O8    Zn1   S    
C9    C19   A    
C14   H10   S    
C4    C40   A    
C36   O12   D    
C22   C25   A    
C9    C36   S    
C15   H9    S    
C16   O8    A    
O11   Zn1   S    
O1    Zn1   S    
C22   C31   A    
C34   C39   A    
N2    Zn2   S    
C34   H2    S    
C5    C7    A    
H16   N4    S    
C6    C8    A    
C42   H7    S    
C17   C21   S    
C16   O10   A    
C12   C40   S    
C2    C4    A    
C24   C32   A    
C16   C20   S    
C15   N1    A    
C12   O7    A    
C33   C34   A    
C9    C11   A    
C27   H21   S    
C24   H23   S    
C1    C41   S    
C21   C28   A    
C23   C35   A    
C6    C40   A    
C11   N2    A    
C13   N1    A    
C5    C41   A    
C3    C41   A    
C1    O6    A    
C24   C26   A    
C11   H19   S    
C10   C13   A    
C20   C27   A    
C23   C38   A    
C5    H4    S    
C31   C38   A    
C28   C30   A    
C38   H1    S    
C29   C31   A    
C30   C32   A    
C10   C18   A    
C33   C35   A    
C17   O11   A    
H17   N4    S    
C22   H22   S    
H14   N3    S    
C12   O5    A    
C26   N3    S    
C14   N2    A    
C25   N4    S    
H15   N3    S    
H11   O2    S    
C36   O2    S    
C4    H5    S    
C28   H20   S    
