data_mof_unit_56083.cif
_audit_creation_date              2012-12-11T16:08:53-0500
_audit_creation_method            fapswitch 2.2
_symmetry_space_group_name_H-M    P1
_symmetry_Int_Tables_number       1
_space_group_crystal_system       triclinic
_cell_length_a                    12.980869
_cell_length_b                    13.271442
_cell_length_c                    27.732639
_cell_angle_alpha                 95.07916
_cell_angle_beta                  89.999458
_cell_angle_gamma                 119.317008
_cell_volume                      4144.20852585

loop_
_atom_site_label
_atom_site_type_symbol
_atom_type_description
_atom_site_fract_x
_atom_site_fract_y
_atom_site_fract_z
_atom_type_partial_charge
C1    C     C_R   0.627961 0.895379 0.427388 0.551172
C2    C     C_R   0.205093 0.760245 0.296179 0.024620
C3    C     C_R   0.192324 0.757995 0.195747 0.026116
C4    C     C_R   0.601005 0.221745 0.440505 0.544345
C5    C     C_R   0.215642 0.678167 0.216406 -0.071745
C6    C     C_R   0.219584 0.677854 0.266352 -0.133175
C7    C     C_R   0.175370 0.750257 0.145809 0.315542
C8    C     C_R   0.132051 0.816826 0.125939 0.022012
C9    C     C_R   0.195197 0.936587 0.356762 -0.102689
C10   C     C_R   0.177583 0.930668 0.306502 0.032760
C11   C     C_R   0.186749 0.844280 0.276128 0.019738
C12   C     C_R   0.675081 0.430791 0.238789 -0.122294
C13   C     C_R   0.155834 0.011646 0.285776 0.347817
C14   C     C_R   0.141787 0.005698 0.235489 -0.050636
C15   C     C_R   0.151890 0.920605 0.205191 -0.045725
C16   C     C_R   0.270150 0.876213 0.425279 0.546228
C17   C     C_R   0.177725 0.841546 0.225660 -0.065997
C18   C     C_R   0.129318 0.908144 0.155108 0.307369
C19   C     C_R   0.217612 0.854880 0.376283 -0.022938
C20   C     C_R   0.751783 0.939996 0.357118 -0.100991
C21   C     C_R   0.756826 0.930320 0.307193 0.035003
C22   C     C_R   0.758019 0.918240 0.206468 0.011908
C23   C     C_R   0.666689 0.413971 0.288015 -0.164717
C24   C     C_R   0.847364 0.014928 0.234433 -0.091967
C25   C     C_R   0.847798 0.020091 0.284645 -0.050993
C26   C     C_R   0.762019 0.909481 0.156529 -0.111802
C27   C     C_R   0.684099 0.805430 0.128722 -0.005598
C28   C     C_R   0.627491 0.898324 0.564674 0.548683
C29   C     C_R   0.565169 0.758408 0.352243 -0.134400
C30   C     C_R   0.572181 0.744277 0.302040 0.013293
C31   C     C_R   0.665767 0.833133 0.279353 0.069257
C32   C     C_R   0.484388 0.646389 0.273848 -0.136938
C33   C     C_R   0.489037 0.636983 0.223395 -0.132236
C34   C     C_R   0.670676 0.318680 0.303951 0.047211
C35   C     C_R   0.580088 0.726586 0.200581 0.012670
C36   C     C_R   0.667557 0.826082 0.228779 0.064551
C37   C     C_R   0.589458 0.716276 0.150373 -0.122416
C38   C     C_R   0.651914 0.859346 0.379388 -0.004050
C39   C     C_R   0.741665 0.301297 0.651284 -0.136397
C40   C     C_R   0.603170 0.227608 0.578348 0.549155
C41   C     C_R   0.755577 0.324587 0.701745 0.009068
C42   C     C_R   0.771088 0.352747 0.803610 0.006302
C43   C     C_R   0.861668 0.347873 0.777717 -0.137641
C44   C     C_R   0.853205 0.332334 0.727056 -0.137526
C45   C     C_R   0.687182 0.352316 0.205137 -0.018369
C46   C     C_R   0.779606 0.371578 0.854242 -0.136905
C47   C     C_R   0.688944 0.378848 0.879219 -0.005325
C48   C     C_R   0.559881 0.311970 0.652609 -0.113155
C49   C     C_R   0.569216 0.329169 0.702739 0.030139
C50   C     C_R   0.666238 0.333449 0.727583 0.067749
C51   C     C_R   0.478724 0.334287 0.728358 -0.088842
C52   C     C_R   0.271747 0.879516 0.563437 0.547017
C53   C     C_R   0.482612 0.340552 0.778617 -0.109235
C54   C     C_R   0.578792 0.345304 0.803648 0.009788
C55   C     C_R   0.672093 0.343689 0.778294 0.062787
C56   C     C_1   0.695497 0.371442 0.154604 -0.040077
C57   C     C_R   0.585585 0.357499 0.853796 -0.129341
C58   C     C_R   0.640333 0.288652 0.627045 -0.003070
C59   C     C_1   0.222487 0.863364 0.610241 0.010514
C60   C     C_R   0.075570 0.749867 0.718174 -0.170812
C61   C     C_R   0.060221 0.739508 0.767738 -0.126370
C62   C     C_R   0.236816 0.926548 0.786357 -0.068572
C63   C     C_R   0.252298 0.937094 0.736753 0.396673
C64   C     C_1   0.633569 0.268998 0.394807 0.015090
C65   C     C_R   0.171878 0.848373 0.702519 0.044794
C66   C     C_R   0.141346 0.827291 0.801924 -0.020907
C67   C     C_1   0.653566 0.296345 0.354077 0.009816
C68   C     C_1   0.124210 0.814586 0.852765 -0.050264
C69   C     C_1   0.194162 0.854861 0.651711 0.002919
C70   C     C_1   0.100622 0.797227 0.894318 -0.003537
C71   C     C_1   0.647165 0.861028 0.609074 -0.008504
C72   C     C_R   0.691085 0.904713 0.735170 -0.096358
C73   C     C_R   0.701593 0.887964 0.783505 -0.098225
C74   C     C_R   0.679775 0.698508 0.758174 -0.107813
C75   C     C_R   0.669050 0.715268 0.709610 -0.107005
C76   C     C_R   0.683519 0.240368 0.270308 0.397748
C77   C     C_R   0.674828 0.818657 0.698081 0.037172
C78   C     C_1   0.703831 0.396542 0.113480 0.005133
C79   C     C_R   0.695766 0.784914 0.795193 0.036893
C80   C     C_1   0.709654 0.770488 0.845172 -0.056248
C81   C     C_1   0.660817 0.837522 0.648746 -0.052639
C82   C     C_1   0.724724 0.762066 0.887194 -0.009391
C83   C     C_R   0.066364 0.773963 0.078849 0.593668
C84   C     C_R   0.716978 0.441545 0.067330 0.546922
C85   C     C_R   0.720364 0.782839 0.080992 0.557455
C86   C     C_R   0.056587 0.766222 0.941242 0.535950
C87   C     C_R   0.710323 0.434162 0.928926 0.535111
C88   C     C_R   0.692076 0.257425 0.221028 -0.064446
C89   C     C_R   0.214325 0.762775 0.345915 -0.118848
C90   C     C_R   0.748384 0.754477 0.936867 0.555823
Cr1   Cr    Cr6+3 0.416430 0.829200 0.492370 1.030994
Cr2   Cr    Cr6+3 0.674630 0.087020 0.504170 1.036358
Cr3   Cr    Cr6+3 0.408920 0.083740 0.503490 1.044021
Cr4   Cr    Cr6+3 0.914010 0.832750 0.013970 1.082386
Cr5   Cr    Cr6+3 0.922310 0.578600 0.003000 1.064578
Cr6   Cr    Cr6+3 0.656280 0.574630 0.003870 1.037725
F1    F     F_    0.685753 0.146578 0.285066 -0.641228
F2    F     F_    0.146619 0.095498 0.314063 -0.662393
F3    F     F_    0.346830 0.032622 0.722156 -0.637909
F4    F     F_    0.189985 0.669910 0.117143 -0.621771
F5    F     F_    0.095568 0.978662 0.135644 -0.631344
H1    H     H_    0.122078 0.067269 0.220404 0.187387
H2    H     H_    0.701640 0.196415 0.195359 0.137072
H3    H     H_    0.488682 0.695184 0.369550 0.124104
H4    H     H_    0.859244 0.387302 0.873807 0.132013
H5    H     H_    0.804975 0.285117 0.631468 0.127740
H6    H     H_    0.938408 0.355115 0.796627 0.116830
H7    H     H_    0.922591 0.325886 0.707704 0.114839
H8    H     H_    0.514300 0.361283 0.872766 0.140503
H9    H     H_    0.411251 0.343197 0.797930 0.112177
H10   H     H_    0.403496 0.330302 0.709493 0.116577
H11   H     H_    0.482742 0.304887 0.634024 0.137725
H12   H     H_    0.197266 0.007248 0.380346 0.184267
H13   H     H_    0.013569 0.680395 0.692152 0.120449
H14   H     H_    0.671352 0.504643 0.226909 0.134754
H15   H     H_    0.985661 0.662554 0.779417 0.131274
H16   H     H_    0.299592 0.995084 0.812491 0.135955
H17   H     H_    0.695237 0.984780 0.726707 0.129688
H18   H     H_    0.714496 0.955507 0.811765 0.121799
H19   H     H_    0.675745 0.618633 0.766823 0.113833
H20   H     H_    0.656000 0.647897 0.681253 0.109355
H21   H     H_    0.655577 0.474316 0.313487 0.124973
H22   H     H_    0.230412 0.698290 0.360526 0.138836
H23   H     H_    0.833964 0.979742 0.139929 0.164180
H24   H     H_    0.226891 0.613318 0.194089 0.177593
H25   H     H_    0.235146 0.613897 0.281691 0.106675
H26   H     H_    0.820244 0.017107 0.377986 0.148546
H27   H     H_    0.917959 0.085454 0.217482 0.127170
H28   H     H_    0.917586 0.095465 0.305817 0.164414
H29   H     H_    0.528392 0.636298 0.128838 0.142588
H30   H     H_    0.421429 0.559984 0.202252 0.124682
H31   H     H_    0.412283 0.577306 0.290804 0.114867
O1    O     O_R   0.296680 0.802170 0.437540 -0.521957
O2    O     O_R   0.637200 0.461990 0.052510 -0.504411
O3    O     O_R   0.664790 0.681920 0.057970 -0.497063
O4    O     O_R   0.525380 0.838530 0.443500 -0.502963
O5    O     O_R   0.815840 0.852920 0.961840 -0.500215
O6    O     O_R   0.012100 0.822630 0.963670 -0.514144
O7    O     O_R   0.037010 0.668460 0.953040 -0.504836
O8    O     O_R   0.813390 0.478970 0.949660 -0.505672
O9    O     O_R   0.632250 0.456930 0.945520 -0.524970
O10   O     O_R   0.660200 0.677230 0.958780 -0.488017
O11   O     O_3   0.830870 0.661990 0.006950 -0.290969
O12   O     O_R   0.662610 0.183990 0.557860 -0.503395
O13   O     O_R   0.702130 0.995190 0.446810 -0.513649
O14   O     O_R   0.661770 0.181390 0.458760 -0.489804
O15   O     O_R   0.499820 0.198480 0.455280 -0.505855
O16   O     O_R   0.311660 0.976250 0.449080 -0.497914
O17   O     O_R   0.297580 0.804960 0.544440 -0.509994
O18   O     O_R   0.526220 0.841130 0.542590 -0.493928
O19   O     O_R   0.703030 0.997990 0.553710 -0.509455
O20   O     O_R   0.500730 0.201280 0.562180 -0.514693
O21   O     O_R   0.312500 0.978850 0.548170 -0.486785
O22   O     O_3   0.499990 0.999990 0.500010 -0.245584
O23   O     O_R   0.820790 0.857990 0.068830 -0.484886
O24   O     O_R   0.016700 0.827330 0.062850 -0.440801
O25   O     O_R   0.041970 0.673520 0.060040 -0.442958
O26   O     O_R   0.817980 0.483660 0.048840 -0.486213

loop_
_geom_bond_atom_site_label_1
_geom_bond_atom_site_label_2
_ccdc_geom_bond_type
C53   H9    S    
C39   H5    S    
C66   C68   S    
C63   C65   A    
C28   O18   A    
C73   H18   S    
C15   C18   A    
Cr5   O26   S    
C60   H13   S    
C35   C36   A    
C87   O8    A    
C25   H28   S    
C88   H2    S    
C7    C8    A    
C39   C41   A    
C53   C54   A    
Cr5   O11   S    
C21   C31   A    
C12   C23   A    
C84   O2    A    
Cr5   O8    S    
C62   C63   A    
Cr4   O11   S    
Cr3   O22   S    
C35   C37   A    
C3    C7    A    
C42   C46   A    
C30   C31   A    
C14   H1    S    
C2    C11   A    
C8    C83   S    
C46   H4    S    
C56   C78   T    
C37   H29   S    
C40   O20   A    
Cr3   O16   S    
C85   O23   A    
C13   F2    S    
C27   C85   S    
C62   H16   S    
C63   F3    S    
Cr6   O9    S    
C46   C47   A    
C1    O13   A    
C61   C66   A    
C9    C19   A    
C57   H8    S    
Cr1   O4    S    
C45   C56   S    
Cr4   O23   S    
C49   C51   A    
Cr1   O1    S    
C29   C38   A    
Cr3   O15   S    
C23   H21   S    
C1    O4    A    
C9    C10   A    
C76   C88   A    
C12   H14   S    
C33   H30   S    
Cr5   O25   S    
C13   C14   A    
C2    C6    A    
C26   H23   S    
Cr2   O19   S    
C16   O1    A    
Cr6   O3    S    
C44   H7    S    
C40   C58   S    
C7    F4    S    
C62   C66   A    
Cr2   O14   S    
C64   C67   T    
C45   C88   A    
C24   C25   A    
C6    H25   S    
Cr1   O22   S    
C80   C82   T    
C74   C75   A    
Cr1   O17   S    
C84   O26   A    
C52   O17   A    
Cr6   O2    S    
C83   O24   A    
C89   H22   S    
C52   O21   A    
C4    O15   A    
Cr6   O10   S    
C8    C18   A    
C29   H3    S    
C60   C61   A    
C51   C53   A    
C18   F5    S    
C47   C87   S    
C2    C89   A    
C43   C44   A    
C72   C77   A    
C19   C89   A    
C52   C59   S    
C42   C55   A    
C47   C57   A    
C20   C38   A    
C83   O25   A    
C77   C81   S    
C23   C34   A    
C4    O14   A    
C61   H15   S    
C14   C15   A    
C73   C79   A    
C43   H6    S    
C87   O9    A    
C75   C77   A    
C90   O10   A    
C1    C38   S    
C59   C69   T    
C86   O7    A    
Cr4   O24   S    
C48   C49   A    
C48   H11   S    
C85   O3    A    
C60   C65   A    
C74   C79   A    
C40   O12   A    
C26   C27   A    
Cr4   O6    S    
C41   C44   A    
C22   C24   A    
C28   C71   S    
C42   C43   A    
C5    H24   S    
C70   C86   S    
C41   C50   A    
C32   H31   S    
C90   O5    A    
C74   H19   S    
C20   H26   S    
C15   C17   A    
C21   C25   A    
C54   C55   A    
C11   C17   A    
C51   H10   S    
Cr2   O13   S    
C75   H20   S    
C72   C73   A    
C3    C5    A    
C10   C13   A    
C34   C67   S    
Cr1   O18   S    
C48   C58   A    
C12   C45   A    
C22   C36   A    
C4    C64   S    
Cr5   O7    S    
C50   C55   A    
C82   C90   S    
C16   O16   A    
C9    H12   S    
C32   C33   A    
Cr3   O21   S    
C76   F1    S    
Cr6   O11   S    
C30   C32   A    
C39   C58   A    
C5    C6    A    
C27   C37   A    
C16   C19   S    
C65   C69   S    
C33   C35   A    
C3    C17   A    
Cr2   O12   S    
C10   C11   A    
C86   O6    A    
C29   C30   A    
C79   C80   S    
C78   C84   S    
C20   C21   A    
C28   O19   A    
C68   C70   T    
C49   C50   A    
C22   C26   A    
C72   H17   S    
C24   H27   S    
Cr4   O5    S    
C31   C36   A    
Cr3   O20   S    
Cr2   O22   S    
C34   C76   A    
C71   C81   T    
C54   C57   A    
