data_mof_unit_65952.cif
_audit_creation_date              2013-03-05T16:03:26-0500
_audit_creation_method            fapswitch 2.2
_symmetry_space_group_name_H-M    P1
_symmetry_Int_Tables_number       1
_space_group_crystal_system       triclinic
_cell_length_a                    18.521376
_cell_length_b                    18.582902
_cell_length_c                    18.543326
_cell_angle_alpha                 109.245654
_cell_angle_beta                  109.550792
_cell_angle_gamma                 109.208721
_cell_volume                      4937.6386212

loop_
_atom_site_label
_atom_site_type_symbol
_atom_site_description
_atom_site_fract_x
_atom_site_fract_y
_atom_site_fract_z
_atom_type_partial_charge
O1    O     O_R   0.592740 0.540340 0.447840 -0.634785
O2    O     O_R   0.592480 0.644870 0.552180 -0.628883
C1    C     C_R   0.620579 0.621057 0.498911 0.826635
O3    O     O_R   0.407320 0.447740 0.355030 -0.630924
O4    O     O_R   0.407060 0.552270 0.459360 -0.625676
C2    C     C_R   0.378441 0.499850 0.378657 0.852531
Zn1   Zn    Zn3+2 0.500170 0.430200 0.430330 0.933724
Zn2   Zn    Zn3+2 0.499830 0.569800 0.569670 0.923730
O5    O     O_R   0.407520 0.355130 0.447820 -0.622309
O6    O     O_R   0.407260 0.459660 0.552160 -0.633359
O7    O     O_R   0.592940 0.447730 0.540640 -0.617683
O8    O     O_R   0.592680 0.552260 0.644970 -0.634610
C3    C     C_R   0.376480 0.378799 0.497865 0.850196
C4    C     C_R   0.621053 0.499273 0.621524 0.865084
C5    C     C_3   0.327826 0.570895 0.284978 -0.151617
C6    C     C_3   0.245220 0.572222 0.286128 -0.152523
H1    H     H_    0.239165 0.631495 0.313303 0.118628
H2    H     H_    0.393085 0.629105 0.315057 0.116664
C7    C     C_3   0.189639 0.499417 0.189776 0.027491
C8    C     C_3   0.270950 0.498039 0.187297 -0.165917
C9    C     C_3   0.255074 0.426747 0.214611 -0.174279
C10   C     C_3   0.172600 0.428073 0.215988 -0.176122
C11   C     C_3   0.229375 0.500839 0.313525 -0.168589
C12   C     C_3   0.310742 0.499572 0.311094 0.029671
H3    H     H_    0.286041 0.496797 0.133918 0.129542
H4    H     H_    0.260496 0.367180 0.186831 0.142822
H5    H     H_    0.107653 0.369590 0.186209 0.142096
H6    H     H_    0.214210 0.501931 0.366829 0.129840
C13   C     C_3   0.707537 0.649067 0.423477 -0.367907
H7    H     H_    0.646168 0.611834 0.358467 0.167198
H8    H     H_    0.730554 0.602546 0.431828 0.174233
C14   C     C_3   0.778489 0.721977 0.424380 -0.422332
H9    H     H_    0.834757 0.709692 0.431466 0.154959
H10   H     H_    0.750887 0.721167 0.360572 0.168582
H11   H     H_    0.596568 0.719533 0.421551 0.148741
H12   H     H_    0.702653 0.828698 0.425810 0.184730
C15   C     C_3   0.658412 0.754404 0.485773 -0.403916
C16   C     C_3   0.774578 0.738596 0.588061 -0.423523
C17   C     C_3   0.688723 0.689010 0.498657 0.185651
H13   H     H_    0.763525 0.769267 0.643025 0.184739
H14   H     H_    0.796306 0.692136 0.599165 0.148615
C18   C     C_3   0.810315 0.811712 0.501335 0.181654
C19   C     C_3   0.730695 0.827573 0.488455 -0.393090
C20   C     C_3   0.847002 0.809922 0.589029 -0.375272
H15   H     H_    0.902784 0.796385 0.598753 0.182080
H16   H     H_    0.872471 0.874689 0.645407 0.175653
H17   H     H_    0.644164 0.784166 0.538355 0.181158
H18   H     H_    0.752005 0.892069 0.542805 0.143306
C21   C     C_3   0.709348 0.425387 0.650467 -0.356221
H19   H     H_    0.732917 0.434422 0.604514 0.165875
H20   H     H_    0.648525 0.360426 0.612267 0.225741
C22   C     C_3   0.779988 0.426118 0.723889 -0.427700
H21   H     H_    0.752272 0.362597 0.723024 0.179361
H22   H     H_    0.836334 0.432881 0.711953 0.154189
H23   H     H_    0.796700 0.600132 0.693572 0.148722
H24   H     H_    0.903809 0.600456 0.799137 0.182853
C23   C     C_3   0.775052 0.589047 0.740057 -0.429659
C24   C     C_3   0.659719 0.487343 0.755991 -0.393865
C25   C     C_3   0.689663 0.499773 0.690196 0.175348
H25   H     H_    0.645246 0.539774 0.785503 0.174248
H26   H     H_    0.598181 0.423579 0.721455 0.205657
C26   C     C_3   0.811587 0.502838 0.813752 0.186974
C27   C     C_3   0.847856 0.590432 0.812258 -0.374820
C28   C     C_3   0.732417 0.490516 0.829906 -0.400231
H27   H     H_    0.704760 0.428513 0.831689 0.193852
H28   H     H_    0.754355 0.545475 0.894585 0.148095
H29   H     H_    0.763409 0.643569 0.770485 0.179347
H30   H     H_    0.872790 0.646676 0.877327 0.155309
C29   C     C_3   0.241543 0.232202 0.402676 -0.407609
H31   H     H_    0.274559 0.206360 0.369422 0.171779
H32   H     H_    0.205647 0.254953 0.362376 0.165239
C30   C     C_3   0.175427 0.157762 0.404608 -0.423009
H33   H     H_    0.107340 0.137980 0.357145 0.183823
H34   H     H_    0.184484 0.099496 0.382930 0.145240
H35   H     H_    0.286449 0.147184 0.542982 0.164546
C31   C     C_3   0.353973 0.277772 0.557953 -0.153367
C32   C     C_3   0.256996 0.346687 0.534986 -0.420770
C33   C     C_3   0.308987 0.310064 0.498118 0.103577
H36   H     H_    0.301784 0.400149 0.604723 0.183039
H37   H     H_    0.228155 0.374815 0.496591 0.170703
C34   C     C_3   0.189475 0.188796 0.499096 0.159340
C35   C     C_3   0.283023 0.208975 0.561447 -0.441230
C36   C     C_3   0.183047 0.273408 0.530344 -0.403492
H38   H     H_    0.118017 0.261432 0.484285 0.183650
H39   H     H_    0.188675 0.294573 0.596161 0.212769
H40   H     H_    0.400242 0.334732 0.625948 0.145108
H41   H     H_    0.295530 0.234535 0.630295 0.177578
O9    O     O_R   0.948700 0.540360 0.093520 -0.632104
O10   O     O_R   0.053270 0.644880 0.093500 -0.631295
C37   C     C_R   0.999158 0.621144 0.120697 0.824341
O11   O     O_R   0.041720 0.447740 0.093910 -0.627256
O12   O     O_R   0.146290 0.552270 0.093890 -0.624079
C38   C     C_R   0.122460 0.499770 0.122338 0.862905
Zn3   Zn    Zn3+2 0.931370 0.430220 0.001110 0.919767
Zn4   Zn    Zn3+2 0.071010 0.569800 0.001080 0.918628
O13   O     O_R   0.949110 0.355140 0.908700 -0.631112
O14   O     O_R   0.053680 0.459670 0.908680 -0.632304
O15   O     O_R   0.856090 0.447760 0.908300 -0.630427
O16   O     O_R   0.960660 0.552280 0.908280 -0.633879
C39   C     C_R   0.000896 0.379067 0.879219 0.891471
C40   C     C_R   0.879748 0.502798 0.882197 0.826380
O17   O     O_R   0.052690 0.907450 0.460090 -0.634272
O18   O     O_R   0.947900 0.907390 0.355230 -0.631459
C41   C     C_R   0.002143 0.880251 0.379027 0.826960
O19   O     O_R   0.959780 0.907430 0.552420 -0.623368
O20   O     O_R   0.854990 0.907370 0.447560 -0.634644
C42   C     C_R   0.878620 0.880417 0.501909 0.831391
Zn5   Zn    Zn3+2 0.069970 0.000040 0.570020 0.939301
Zn6   Zn    Zn3+2 0.930030 0.999960 0.429990 0.916354
O21   O     O_R   0.052100 0.092610 0.644770 -0.606498
O22   O     O_R   0.947310 0.092550 0.539920 -0.642047
O23   O     O_R   0.145010 0.092640 0.552440 -0.631639
O24   O     O_R   0.040220 0.092570 0.447580 -0.632114
C43   C     C_R   0.996937 0.118496 0.621033 0.931577
C44   C     C_R   0.121443 0.120848 0.499449 0.870510
C45   C     C_3   0.918055 0.650530 0.200500 -0.374153
H42   H     H_    0.919403 0.600545 0.220600 0.179244
H43   H     H_    0.855853 0.617562 0.137073 0.160956
C46   C     C_3   0.918848 0.723552 0.271130 -0.417304
H44   H     H_    0.858373 0.727791 0.241172 0.172189
H45   H     H_    0.917751 0.707346 0.323603 0.151637
H46   H     H_    0.088521 0.681505 0.295180 0.152444
H47   H     H_    0.087008 0.784864 0.401671 0.179838
C47   C     C_3   0.084317 0.732011 0.276973 -0.416332
C48   C     C_3   0.996190 0.760485 0.163594 -0.401151
C49   C     C_3   0.998998 0.689299 0.188807 0.186227
H48   H     H_    0.052610 0.789089 0.153562 0.182639
H49   H     H_    0.934543 0.730816 0.100634 0.146443
C50   C     C_3   0.002053 0.811881 0.310902 0.185857
C51   C     C_3   0.085196 0.802938 0.349755 -0.376537
C52   C     C_3   0.000506 0.834210 0.236980 -0.399226
H50   H     H_    0.942365 0.842184 0.208200 0.182504
H51   H     H_    0.060593 0.897290 0.264521 0.147121
H52   H     H_    0.143235 0.761997 0.270805 0.174573
H53   H     H_    0.145974 0.866597 0.380725 0.159899
C53   C     C_3   0.032014 0.257755 0.849807 -0.496459
H54   H     H_    0.991171 0.231292 0.876694 0.193365
H55   H     H_    0.100220 0.302062 0.907006 0.124581
C54   C     C_3   0.030894 0.184523 0.778495 0.366937
H56   H     H_    0.100460 0.202119 0.802617 0.109973
H57   H     H_    0.859266 0.219827 0.751041 0.189161
H58   H     H_    0.852661 0.111868 0.637464 0.168109
C55   C     C_3   0.906054 0.250067 0.731047 -0.428120
C56   C     C_3   0.063911 0.352607 0.779781 -0.465588
C57   C     C_3   0.001028 0.311295 0.811123 0.069945
H59   H     H_    0.042983 0.393279 0.754681 0.160027
H60   H     H_    0.131905 0.398747 0.835826 0.186108
C58   C     C_3   0.997708 0.186892 0.689465 -0.049444
C59   C     C_3   0.904006 0.177543 0.658332 -0.501444
C60   C     C_3   0.058324 0.278788 0.704467 0.267764
H61   H     H_    0.021528 0.280753 0.644383 0.137757
H62   H     H_    0.882960 0.288904 0.704596 0.162131
H63   H     H_    0.882062 0.184152 0.598296 0.190649
C61   C     C_2   0.406138 0.240055 0.527584 0.405017
H64   H     H_    0.373425 0.182288 0.463671 0.071186
O25   O     O_2   0.485214 0.273200 0.575251 -0.629052
O26   O     O_3   0.994793 0.100867 0.772819 -0.641236
C62   C     C_3   0.905285 0.061616 0.750251 0.099401
H65   H     H_    0.865517 0.012599 0.679135 0.127296
H66   H     H_    0.880213 0.108048 0.763795 0.141558
C63   C     C_3   0.892924 0.014581 0.802605 -0.335533
H67   H     H_    0.920988 0.969982 0.794077 0.226088
H68   H     H_    0.928868 0.063840 0.873719 0.217020
C64   C     C_3   0.795675 0.961490 0.772904 -1.001634
H69   H     H_    0.767069 0.005373 0.783814 0.265973
H70   H     H_    0.788819 0.927382 0.811380 0.267188
H71   H     H_    0.758526 0.911610 0.701983 0.264317
O27   O     O_3   0.139393 0.293337 0.705537 -0.672897
C65   C     C_3   0.207536 0.306954 0.781363 0.091958
H72   H     H_    0.209505 0.244823 0.766342 0.166291
H73   H     H_    0.200981 0.328512 0.840896 0.114705
C66   C     C_3   0.295444 0.377156 0.802869 -0.337831
H74   H     H_    0.305410 0.357050 0.745166 0.214877
H75   H     H_    0.294388 0.439733 0.817777 0.221863
C67   C     C_3   0.372469 0.391931 0.881677 -0.989318
H76   H     H_    0.365231 0.414160 0.940996 0.262506
H77   H     H_    0.435120 0.443098 0.895350 0.265402
H78   H     H_    0.375556 0.330421 0.867570 0.264818

loop_
_geom_bond_atom_site_label_1
_geom_bond_atom_site_label_2
_geom_bond_distance
_ccdc_geom_bond_type
C5    H2    1.110339 S    
C9    H4    1.110231 S    
C15   C19   1.535136 S    
O26   C62   1.412166 S    
C30   H34   1.113465 S    
C65   H72   1.111060 S    
C51   H53   1.113378 S    
C63   C64   1.526265 S    
C34   C35   1.557343 S    
C67   H77   1.110405 S    
C32   C33   1.556572 S    
C22   H21   1.113727 S    
Zn1   O7    2.020556 S    
C4    C25   1.462148 S    
O19   C42   1.280652 A    
C13   H7    1.113321 S    
C48   C49   1.551751 S    
C31   C33   1.560331 S    
H58   C59   1.105540 S    
C64   H69   1.110818 S    
H11   C15   1.113571 S    
C58   C60   1.571724 S    
C13   C14   1.536765 S    
Zn6   O22   2.026579 S    
O4    C2    1.279721 A    
Zn2   O6    2.028374 S    
O7    C4    1.280702 A    
Zn4   O16   2.020732 S    
C23   C25   1.546596 S    
O20   C42   1.280591 A    
Zn3   O15   2.018660 S    
C24   H25   1.113196 S    
C35   H41   1.113125 S    
O5    C3    1.280436 A    
C45   H42   1.113379 S    
Zn1   O5    2.022740 S    
C31   C61   1.513738 S    
C29   H32   1.113510 S    
C59   H63   1.113465 S    
C26   C28   1.552609 S    
C62   C63   1.528179 S    
C63   H68   1.111646 S    
C3    C33   1.466753 S    
C7    C8    1.530258 S    
C22   H22   1.113785 S    
C6    H1    1.110368 S    
C21   H20   1.111496 S    
C48   H49   1.113520 S    
C56   C60   1.545894 S    
C11   C12   1.530303 S    
O17   Zn5   2.026577 S    
C15   H17   1.113094 S    
C18   C42   1.466229 S    
O21   C43   1.277106 A    
C61   O25   1.219335 D    
C53   C57   1.550645 S    
C7    C38   1.442707 S    
C66   C67   1.525981 S    
Zn6   O24   2.026455 S    
C26   C40   1.460637 S    
C24   H26   1.111664 S    
C46   H45   1.113667 S    
O18   Zn6   2.024883 S    
C1    C17   1.465178 S    
C45   C49   1.556730 S    
C9    C10   1.544353 S    
C62   H66   1.105456 S    
C65   H73   1.106379 S    
C13   C17   1.558531 S    
C29   C33   1.558543 S    
C18   C20   1.555049 S    
C23   H29   1.113433 S    
C56   H60   1.107816 S    
C34   C36   1.546255 S    
C66   H75   1.111620 S    
C23   C27   1.535452 S    
C67   H78   1.110911 S    
C32   H36   1.113642 S    
C24   C28   1.534394 S    
C5    C8    1.546418 S    
O19   Zn5   2.026372 S    
O9    Zn3   2.028783 S    
C54   C58   1.578542 S    
C7    C10   1.531577 S    
C58   C59   1.562151 S    
C16   H14   1.113602 S    
C53   H55   1.114383 S    
C31   C35   1.539997 S    
C30   H33   1.113040 S    
C20   H16   1.109451 S    
O3    Zn1   2.018683 S    
C24   C25   1.550412 S    
C53   C54   1.542002 S    
O12   Zn4   2.018535 S    
Zn5   O23   2.024431 S    
O1    C1    1.280789 A    
C28   H28   1.113496 S    
O10   Zn4   2.023316 S    
C29   C30   1.536802 S    
Zn3   O13   2.023195 S    
C16   C20   1.534522 S    
C26   C27   1.556999 S    
O11   C38   1.278263 A    
C48   C52   1.536646 S    
C36   H38   1.113331 S    
C39   C57   1.461586 S    
Zn2   O8    2.018683 S    
C21   C22   1.532828 S    
C2    C12   1.442899 S    
C34   C44   1.464987 S    
C37   C49   1.466174 S    
H24   C27   1.113315 S    
C47   C51   1.535395 S    
C11   H6    1.110236 S    
O17   C41   1.279605 A    
C61   H64   1.084796 S    
C56   H59   1.114475 S    
O27   C65   1.414766 S    
O16   C40   1.280713 A    
O9    C37   1.282129 A    
C6    C11   1.546526 S    
C41   C50   1.466001 S    
H23   C23   1.113654 S    
H47   C51   1.113402 S    
C62   H65   1.108078 S    
C65   C66   1.528607 S    
O3    C2    1.278184 A    
C18   C19   1.554114 S    
H46   C47   1.113685 S    
C52   H50   1.113039 S    
C31   H40   1.115645 S    
O14   C39   1.279564 A    
C20   H15   1.113297 S    
C54   H56   1.098969 S    
C47   C49   1.545984 S    
C50   C51   1.556551 S    
C19   H18   1.110923 S    
C32   H37   1.113547 S    
C55   C57   1.553957 S    
C27   H30   1.113394 S    
C5    C12   1.530030 S    
C14   C18   1.544659 S    
C36   H39   1.107480 S    
O1    Zn1   2.028373 S    
C64   H71   1.110508 S    
O2    Zn2   2.022740 S    
C30   C34   1.549251 S    
O8    C4    1.282932 A    
C56   C57   1.562848 S    
C52   H51   1.113530 S    
O6    C3    1.285069 A    
O4    Zn2   2.020558 S    
C46   H44   1.113487 S    
Zn4   O14   2.028575 S    
H35   C35   1.114935 S    
O15   C40   1.282863 A    
C21   C25   1.557718 S    
C45   C46   1.535998 S    
C47   H52   1.113476 S    
C10   H5    1.110219 S    
C14   H9    1.113617 S    
H57   C55   1.111827 S    
O2    C1    1.284452 A    
C43   C58   1.462375 S    
C13   H8    1.113391 S    
C67   H76   1.110916 S    
C22   C26   1.543993 S    
C28   H27   1.113158 S    
O11   Zn3   2.020731 S    
C16   H13   1.113106 S    
C16   C17   1.546115 S    
Zn5   O21   2.024799 S    
C63   H67   1.110907 S    
C6    C7    1.530162 S    
C60   O27   1.427382 S    
O13   C39   1.283383 A    
C64   H70   1.110281 S    
O12   C38   1.279317 A    
C46   C50   1.545917 S    
C45   H43   1.113365 S    
O22   C43   1.282448 A    
C29   H31   1.111396 S    
C66   H74   1.110224 S    
C55   C59   1.539498 S    
C8    C9    1.543955 S    
C54   O26   1.426860 S    
C15   C17   1.549032 S    
C21   H19   1.113505 S    
C8    H3    1.110284 S    
C9    C12   1.531827 S    
O18   C41   1.281322 A    
C48   H48   1.113050 S    
C32   C36   1.534346 S    
C10   C11   1.544225 S    
C53   H54   1.109909 S    
H12   C19   1.113087 S    
O24   C44   1.281623 A    
O10   C37   1.283512 A    
O23   C44   1.278236 A    
C55   H62   1.113758 S    
C5    C6    1.545398 S    
C14   H10   1.113522 S    
C60   H61   1.114496 S    
C50   C52   1.551921 S    
O20   Zn6   2.024181 S    
