data_mof_unit_41004.cif
_audit_creation_date              2013-03-05T16:43:17-0500
_audit_creation_method            fapswitch 2.2
_symmetry_space_group_name_H-M    P1
_symmetry_Int_Tables_number       1
_space_group_crystal_system       triclinic
_cell_length_a                    15.718872
_cell_length_b                    10.652059
_cell_length_c                    9.897091
_cell_angle_alpha                 89.926884
_cell_angle_beta                  89.327407
_cell_angle_gamma                 90.164868
_cell_volume                      1657.03014515

loop_
_atom_site_label
_atom_site_type_symbol
_atom_site_description
_atom_site_fract_x
_atom_site_fract_y
_atom_site_fract_z
_atom_type_partial_charge
O1    O     O_R   0.500010 0.316790 0.614690 -0.628208
O2    O     O_R   0.500000 0.316760 0.385350 -0.582511
C1    C     C_R   0.503687 0.260022 0.500169 0.906004
O3    O     O_R   0.377150 0.500020 0.614720 -0.592610
O4    O     O_R   0.377140 0.499990 0.385380 -0.606160
C2    C     C_R   0.338419 0.500609 0.500598 0.902666
Zn1   Zn    Zn3+2 0.500010 0.500020 0.653130 1.006888
Zn2   Zn    Zn3+2 0.499990 0.499980 0.346870 1.076367
O5    O     O_R   0.500000 0.683240 0.614650 -0.608936
O6    O     O_R   0.499990 0.683210 0.385310 -0.579208
O7    O     O_R   0.622860 0.500010 0.614620 -0.638644
O8    O     O_R   0.622850 0.499980 0.385280 -0.563891
C3    C     C_R   0.503426 0.739956 0.499934 0.881407
C4    C     C_R   0.661521 0.498994 0.499217 0.892052
C5    C     C_3   0.048736 0.430987 0.615733 -0.354131
C6    C     C_3   0.052225 0.432949 0.353572 0.388451
C7    C     C_3   0.951569 0.438065 0.352501 0.062270
H1    H     H_    0.934738 0.315794 0.600458 0.263445
H2    H     H_    0.079178 0.337953 0.629448 0.257184
H3    H     H_    0.931288 0.504776 0.273277 0.124707
C8    C     C_1   0.750166 0.495384 0.497116 -0.090007
C9    C     C_3   0.082954 0.500459 0.487760 0.034950
C10   C     C_3   0.951505 0.416625 0.609251 -0.394860
C11   C     C_3   0.917000 0.494229 0.489036 0.075772
C12   C     C_3   0.949456 0.633014 0.506878 -0.212264
C13   C     C_3   0.047929 0.636849 0.493933 -0.454465
C14   C     C_1   0.825387 0.493223 0.493955 0.037127
C15   C     C_1   0.174400 0.502364 0.495845 0.090615
C16   C     C_1   0.249623 0.502002 0.500483 -0.031360
H4    H     H_    0.074217 0.686337 0.583449 0.208968
H5    H     H_    0.069843 0.692611 0.405732 0.232700
H6    H     H_    0.935202 0.658513 0.614106 0.177777
H7    H     H_    0.065075 0.485861 0.707700 0.234758
H8    H     H_    0.922705 0.449654 0.706194 0.199491
C17   C     C_R   0.517186 0.063612 0.623451 0.073621
C18   C     C_R   0.519738 0.128821 0.501505 -0.097762
C19   C     C_R   0.540516 0.065309 0.381644 -0.143091
H9    H     H_    0.551245 0.114831 0.287547 0.234480
C20   C     C_R   0.539433 0.935379 0.381009 -0.151060
H10   H     H_    0.548278 0.886651 0.285980 0.236479
C21   C     C_R   0.519095 0.871192 0.500976 -0.163324
C22   C     C_R   0.517411 0.935436 0.623306 0.068693
C23   C     C_3   0.454896 0.928538 0.738614 0.159346
C24   C     C_3   0.455227 0.071066 0.738972 -0.492510
H11   H     H_    0.392565 0.886205 0.711421 0.127285
H12   H     H_    0.393219 0.112118 0.709186 0.201285
H13   H     H_    0.484414 0.113635 0.829817 0.262847
C25   C     C_R   0.426369 0.481144 0.072239 0.065477
N1    N     N_R   0.499430 0.499140 0.142800 -0.149941
C26   C     C_R   0.570670 0.535046 0.069152 0.383374
C27   C     C_R   0.570750 0.531758 0.925697 -0.095128
H14   H     H_    0.627689 0.557490 0.869751 0.180849
N2    N     N_R   0.499430 0.499180 0.857150 -0.141436
C28   C     C_R   0.425911 0.483797 0.930125 0.160524
C29   C     C_3   0.365514 0.375332 0.923539 0.007434
C30   C     C_3   0.366910 0.371110 0.077904 0.041868
H15   H     H_    0.392797 0.292094 0.871745 0.146576
H16   H     H_    0.305193 0.393249 0.128660 0.207349
C31   C     C_R   0.904012 0.731287 0.420416 0.127337
C32   C     C_R   0.837040 0.801304 0.478881 -0.146163
C33   C     C_R   0.792058 0.888789 0.402536 -0.073594
C34   C     C_R   0.813443 0.908447 0.266949 0.006713
C35   C     C_R   0.879902 0.840721 0.207536 -0.044366
C36   C     C_R   0.924995 0.752798 0.283300 -0.116049
H17   H     H_    0.818583 0.786882 0.583540 0.135056
H18   H     H_    0.740368 0.941084 0.448531 0.150154
H19   H     H_    0.778517 0.976169 0.207928 0.163022
H20   H     H_    0.896519 0.856254 0.102378 0.159056
H21   H     H_    0.976167 0.702631 0.233878 0.163958
N3    N     N_R   0.491813 0.874490 0.860641 0.252497
O9    O     O_R   0.446818 0.797677 0.934807 -0.363289
O10   O     O_R   0.568691 0.903448 0.897391 -0.363248
N4    N     N_R   0.644872 0.581346 0.134558 0.220647
O11   O     O_R   0.640667 0.686557 0.200725 -0.386438
O12   O     O_R   0.719219 0.537078 0.100961 -0.391897
N5    N     N_R   0.282390 0.411390 0.871168 0.238014
O13   O     O_R   0.243874 0.337959 0.786510 -0.381904
O14   O     O_R   0.245388 0.514604 0.910232 -0.321068
N6    N     N_R   0.406678 0.256918 0.129400 0.224933
O15   O     O_R   0.479954 0.219302 0.082254 -0.430013
O16   O     O_R   0.366375 0.188427 0.218362 -0.322965
N7    N     N_R   0.084157 0.497214 0.229652 0.178568
O17   O     O_R   0.056940 0.460610 0.112306 -0.298544
O18   O     O_R   0.147713 0.575770 0.231911 -0.385821
N8    N     N_R   0.084117 0.302020 0.350796 0.231822
O19   O     O_R   0.052151 0.215610 0.429634 -0.358857
O20   O     O_R   0.148224 0.272256 0.272789 -0.286165
N9    N     N_R   0.913108 0.316976 0.313178 0.258841
O21   O     O_R   0.925162 0.275688 0.190782 -0.291530
O22   O     O_R   0.863795 0.252841 0.394368 -0.388286

loop_
_geom_bond_atom_site_label_1
_geom_bond_atom_site_label_2
_geom_bond_distance
_ccdc_geom_bond_type
C29   C30   1.528780 S    
C7    N9    1.477495 S    
N4    O11   1.300192 A    
C17   C18   1.391873 A    
C11   C14   1.440311 S    
C3    C21   1.418841 S    
C20   C21   1.402567 A    
N2    C28   1.364911 A    
C5    H2    1.110594 S    
C31   C36   1.411083 A    
C19   H9    1.080994 S    
C30   N6    1.463002 S    
C34   H19   1.082471 S    
C4    C8    1.393940 S    
C18   C19   1.402085 A    
N5    O14   1.302315 A    
O4    C2    1.286307 A    
O7    C4    1.287523 A    
C7    H3    1.107772 S    
Zn1   O5    1.988006 S    
C21   C22   1.391504 A    
N1    C26   1.381744 A    
C17   C22   1.365350 A    
O5    C3    1.285905 A    
C35   H20   1.082450 S    
C33   H18   1.082714 S    
C5    C9    1.555778 S    
C6    C7    1.583450 S    
C10   C11   1.551873 S    
N3    O9    1.300559 A    
C24   H13   1.110862 S    
C12   H6    1.116122 S    
C5    C10   1.537650 S    
C8    C14   1.182728 T    
C13   H5    1.106307 S    
C9    C15   1.440677 S    
N4    O12   1.301200 A    
O3    Zn1   1.972653 S    
C24   H12   1.112219 S    
Zn1   O7    1.963923 S    
N8    O20   1.302380 A    
C7    C11   1.570317 S    
H1    C10   1.108954 S    
N5    O13   1.300472 A    
O3    C2    1.289398 A    
C26   N4    1.427561 S    
C20   H10   1.082541 S    
N6    O16   1.300558 A    
C12   C13   1.552086 S    
N8    O19   1.301847 A    
C27   H14   1.081366 S    
C32   C33   1.397798 A    
O1    C1    1.286100 A    
C25   C28   1.406864 A    
C23   C24   1.518224 S    
C34   C35   1.395894 A    
Zn2   O8    1.972653 S    
C10   H8    1.113934 S    
C6    N7    1.485307 S    
C26   C27   1.420248 A    
C36   H21   1.079683 S    
C11   C12   1.573351 S    
C17   C24   1.495509 S    
C23   H11   1.113404 S    
C29   N5    1.463462 S    
C25   N1    1.364270 A    
N9    O22   1.301605 A    
C32   H17   1.083042 S    
C13   H4    1.114482 S    
C23   N3    1.464025 S    
N7    O18   1.301738 A    
C29   H15   1.109520 S    
C6    N8    1.483562 S    
C22   C23   1.498818 S    
Zn1   N2    2.019126 S    
C25   C30   1.497587 S    
C28   C29   1.495254 S    
C15   C16   1.183857 T    
C6    C9    1.590509 S    
O1    Zn1   1.988986 S    
O2    Zn2   1.988006 S    
O8    C4    1.287365 A    
C35   C36   1.398691 A    
O6    C3    1.287732 A    
O4    Zn2   1.963921 S    
O2    C1    1.288400 A    
C19   C20   1.384101 A    
C1    C18   1.420938 S    
C30   H16   1.113222 S    
C33   C34   1.394948 A    
N6    O15   1.302094 A    
C31   C32   1.410889 A    
C2    C16   1.395915 S    
N9    O21   1.301226 A    
Zn2   O6    1.988986 S    
N7    O17   1.302202 A    
C9    C13   1.556157 S    
N3    O10   1.302393 A    
C12   C31   1.534504 S    
C27   N2    1.361504 A    
Zn2   N1    2.019853 S    
C5    H7    1.114485 S    
