data_mof_unit_19633.cif
_audit_creation_date              2012-12-10T17:24:14-0500
_audit_creation_method            fapswitch 2.2
_symmetry_space_group_name_H-M    P1
_symmetry_Int_Tables_number       1
_space_group_crystal_system       triclinic
_cell_length_a                    10.152755
_cell_length_b                    10.408782
_cell_length_c                    16.65546
_cell_angle_alpha                 91.413482
_cell_angle_beta                  76.437266
_cell_angle_gamma                 95.127481
_cell_volume                      1704.1701232

loop_
_atom_site_label
_atom_site_type_symbol
_atom_type_description
_atom_site_fract_x
_atom_site_fract_y
_atom_site_fract_z
_atom_type_partial_charge
C1    C     C_R   0.556499 0.735389 0.492789 0.872207
C2    C     C_R   0.518276 0.496146 0.344809 0.849333
C3    C     C_R   0.481211 0.550662 0.738645 -0.048232
C4    C     C_R   0.535880 0.503894 0.255948 -0.058534
C5    C     C_R   0.588246 0.639870 0.749042 -0.235166
C6    C     C_R   0.654085 0.574104 0.211567 -0.233511
C7    C     C_R   0.592892 0.687299 0.826746 -0.223515
C8    C     C_R   0.675306 0.590175 0.127146 -0.199907
C9    C     C_R   0.492503 0.642607 0.894758 0.161104
C10   C     C_R   0.577759 0.537102 0.086895 0.136239
C11   C     C_R   0.378945 0.563224 0.884509 -0.213250
C12   C     C_R   0.443723 0.264112 0.504064 0.892205
C13   C     C_R   0.461024 0.464514 0.129737 -0.221081
C14   C     C_R   0.371635 0.516025 0.806354 0.085651
C15   C     C_R   0.439362 0.444797 0.214510 0.098190
C16   C     C_2   0.519709 0.652504 0.976814 0.024717
C17   C     C_2   0.592679 0.561902 0.999669 0.021084
C18   C     C_3   0.317750 0.356257 0.257127 -0.439221
C19   C     C_3   0.362606 0.227607 0.279584 -0.321315
C20   C     C_3   0.243114 0.143251 0.330341 -0.896075
C21   C     C_3   0.251567 0.423459 0.798659 -0.421183
C22   C     C_3   0.129644 0.496987 0.793114 -0.303570
C23   C     C_2   0.587848 0.873346 0.479317 -0.069404
C24   C     C_3   0.015458 0.406143 0.772689 -0.897713
C25   C     C_3   0.672551 0.467328 0.940194 -0.402306
C26   C     C_3   0.590479 0.336136 0.939844 -0.332199
C27   C     C_3   0.666548 0.244275 0.876417 -0.898449
C28   C     C_3   0.443106 0.748344 0.036641 -0.422552
C29   C     C_3   0.486701 0.887358 0.006937 -0.336257
C30   C     C_3   0.413169 0.983790 0.068124 -0.901680
C31   C     C_3   0.301410 0.045313 0.554108 -0.422616
C32   C     C_3   0.213865 0.123564 0.622389 -0.338813
C33   C     C_3   0.117656 0.035335 0.686307 -0.921192
C34   C     C_2   0.415697 0.124747 0.495173 -0.064164
C35   C     C_3   0.679555 0.948530 0.527099 -0.395198
C36   C     C_3   0.811821 0.006021 0.470051 -0.303936
C37   C     C_3   0.894028 0.094182 0.518359 -0.905856
C38   C     C_2   0.515729 0.929485 0.433514 -0.205231
C39   C     C_2   0.506057 0.067998 0.435491 -0.201998
C40   C     C_2   0.925794 0.510404 0.507996 -0.131988
C41   C     C_2   0.072675 0.485835 0.494668 -0.146671
C42   C     C_R   0.482766 0.507698 0.654909 0.839258
H1    H     H_    0.669697 0.671550 0.696898 0.145795
H2    H     H_    0.258719 0.404077 0.312381 0.219941
H3    H     H_    0.246589 0.335396 0.215905 0.189147
H4    H     H_    0.050209 0.361235 0.711005 0.272425
H5    H     H_    0.982951 0.329300 0.820006 0.259658
H6    H     H_    0.927100 0.461122 0.771584 0.245591
H7    H     H_    0.090737 0.545735 0.853063 0.204136
H8    H     H_    0.160950 0.572052 0.744407 0.236575
H9    H     H_    0.279240 0.360056 0.744015 0.197640
H10   H     H_    0.222545 0.358165 0.853008 0.184467
H11   H     H_    0.688696 0.286361 0.813517 0.270533
H12   H     H_    0.728850 0.619162 0.242737 0.157222
H13   H     H_    0.763161 0.224329 0.892071 0.257759
H14   H     H_    0.603031 0.151623 0.876730 0.247921
H15   H     H_    0.570772 0.291370 0.001818 0.218760
H16   H     H_    0.491196 0.348925 0.925351 0.224154
H17   H     H_    0.705607 0.505545 0.876604 0.214615
H18   H     H_    0.767843 0.453425 0.959687 0.195832
H19   H     H_    0.301389 0.966022 0.075853 0.262289
H20   H     H_    0.438514 0.975544 0.129044 0.260460
H21   H     H_    0.445233 0.083293 0.044758 0.246088
H22   H     H_    0.598221 0.907643 0.999924 0.220766
H23   H     H_    0.765314 0.646711 0.093628 0.135013
H24   H     H_    0.463001 0.900698 0.945965 0.223868
H25   H     H_    0.332259 0.727154 0.041407 0.194027
H26   H     H_    0.459862 0.740895 0.099775 0.220404
H27   H     H_    0.301564 0.529978 0.938307 0.118656
H28   H     H_    0.387555 0.422978 0.096409 0.123408
H29   H     H_    0.585342 0.125308 0.392485 0.151799
H30   H     H_    0.448478 0.871530 0.402058 0.158269
H31   H     H_    0.053500 0.967199 0.656188 0.257867
H32   H     H_    0.176657 0.979305 0.719324 0.261919
H33   H     H_    0.050512 0.094390 0.732155 0.256470
H34   H     H_    0.680448 0.749267 0.834862 0.135437
H35   H     H_    0.280511 0.185243 0.654487 0.211604
H36   H     H_    0.152542 0.185643 0.594891 0.242850
H37   H     H_    0.234538 0.993199 0.517588 0.215051
H38   H     H_    0.347353 0.972268 0.584096 0.225539
H39   H     H_    0.835553 0.176231 0.545765 0.274614
H40   H     H_    0.919075 0.039524 0.568332 0.265729
H41   H     H_    0.989950 0.133386 0.476446 0.242200
H42   H     H_    0.873585 0.926797 0.441154 0.218122
H43   H     H_    0.789903 0.063107 0.420040 0.223283
H44   H     H_    0.623944 0.026061 0.563599 0.219076
H45   H     H_    0.203864 0.190679 0.390526 0.259595
H46   H     H_    0.705742 0.883935 0.572223 0.175152
H47   H     H_    0.112673 0.411059 0.451697 0.156090
H48   H     H_    0.884552 0.582332 0.552966 0.158363
H49   H     H_    0.112000 0.621907 0.573205 0.160033
H50   H     H_    0.888998 0.380538 0.425152 0.163145
H51   H     H_    0.160509 0.126704 0.296820 0.257909
H52   H     H_    0.277216 0.048557 0.342176 0.253646
H53   H     H_    0.407485 0.175433 0.222037 0.219816
H54   H     H_    0.441278 0.244468 0.315888 0.206685
N1    N     N_2   0.846390 0.448330 0.467170 -0.191076
N2    N     N_2   0.153610 0.551670 0.532830 -0.188428
O1    O     O_R   0.430310 0.692580 0.506610 -0.604990
O2    O     O_R   0.569690 0.307420 0.493390 -0.604159
O3    O     O_R   0.652740 0.659410 0.485540 -0.600066
O4    O     O_R   0.347260 0.340590 0.514460 -0.606194
O5    O     O_R   0.375640 0.518570 0.627580 -0.601983
O6    O     O_R   0.624360 0.481430 0.372420 -0.610786
O7    O     O_R   0.598070 0.485390 0.606510 -0.604871
O8    O     O_R   0.401930 0.514610 0.393490 -0.605603
Zn1   Zn    Zn3+2 0.351480 0.522150 0.514070 0.914631
Zn2   Zn    Zn3+2 0.648520 0.477850 0.485930 0.918908

loop_
_geom_bond_atom_site_label_1
_geom_bond_atom_site_label_2
_ccdc_geom_bond_type
C16   C28   S    
C15   C18   S    
C41   H47   S    
C20   H51   S    
C3    C42   S    
C35   C36   S    
O6    Zn2   S    
C42   O5    A    
C1    O1    A    
C31   H38   S    
C26   C27   S    
C14   C21   S    
C36   C37   S    
C28   H26   S    
C9    C16   S    
C38   C39   S    
C35   H44   S    
C27   H13   S    
C13   H28   S    
C10   C17   S    
C20   H45   S    
C18   C19   S    
C32   H35   S    
N1    Zn2   S    
C33   H33   S    
C19   C20   S    
C16   C17   D    
C25   H18   S    
C22   H8    S    
O3    Zn2   S    
C5    H1    S    
C29   H22   S    
C8    H23   S    
C21   C22   S    
C37   H39   S    
C6    H12   S    
C26   H15   S    
H50   N1    S    
O7    Zn2   S    
C38   H30   S    
O2    Zn2   S    
C34   C39   D    
C24   H6    S    
C28   H25   S    
C4    C6    A    
C40   N1    D    
C5    C7    A    
C27   H14   S    
C6    C8    A    
C25   C26   S    
C2    O8    A    
N2    Zn1   S    
C2    C4    S    
C12   O4    A    
C29   C30   S    
C18   H2    S    
C26   H16   S    
C35   H46   S    
C31   C32   S    
C2    O6    A    
C27   H11   S    
C31   C34   S    
O4    Zn1   S    
C9    C11   A    
C3    C14   A    
C22   H7    S    
C33   H31   S    
C40   C41   S    
C1    C23   S    
C23   C35   S    
C13   C15   A    
C22   C24   S    
C37   H40   S    
C12   C34   S    
C18   H3    S    
C1    O3    A    
C21   H9    S    
C19   H53   S    
C7    C9    A    
C20   H52   S    
C28   C29   S    
C24   H5    S    
C3    C5    A    
C10   C13   A    
C11   H27   S    
C31   H37   S    
C7    H34   S    
C36   H43   S    
C23   C38   D    
O1    Zn1   S    
C17   C25   S    
C32   C33   S    
C4    C15   A    
C30   H20   S    
C24   H4    S    
C36   H42   S    
C11   C14   A    
H49   N2    S    
C42   O7    A    
C12   O2    A    
C32   H36   S    
C29   H24   S    
C33   H32   S    
C8    C10   A    
O8    Zn1   S    
C30   H19   S    
C39   H29   S    
C41   N2    D    
C37   H41   S    
O5    Zn1   S    
C25   H17   S    
C40   H48   S    
C30   H21   S    
C21   H10   S    
C19   H54   S    
