data_mof_unit_53446.cif
_audit_creation_date              2012-12-10T16:50:57-0500
_audit_creation_method            fapswitch 2.2
_symmetry_space_group_name_H-M    P1
_symmetry_Int_Tables_number       1
_space_group_crystal_system       triclinic
_cell_length_a                    7.835499
_cell_length_b                    8.54392
_cell_length_c                    10.577071
_cell_angle_alpha                 90.85897
_cell_angle_beta                  85.516481
_cell_angle_gamma                 93.451764
_cell_volume                      704.606139321

loop_
_atom_site_label
_atom_site_type_symbol
_atom_type_description
_atom_site_fract_x
_atom_site_fract_y
_atom_site_fract_z
_atom_type_partial_charge
C1    C     C_R   0.545435 0.794454 0.498643 0.936037
C2    C     C_R   0.983374 0.541970 0.024660 -0.163982
C3    C     C_R   0.068747 0.680556 0.071146 -0.125344
C4    C     C_R   0.983870 0.615574 0.906206 -0.116720
C5    C     C_R   0.221195 0.673565 0.136507 0.167050
C6    C     C_R   0.828563 0.658583 0.861989 0.148847
C7    C     C_R   0.365706 0.609820 0.067624 0.064309
C8    C     C_R   0.674199 0.593990 0.920927 0.089203
C9    C     C_R   0.379503 0.639201 0.936749 0.065051
C10   C     C_R   0.667917 0.539530 0.044943 0.043033
C11   C     C_R   0.507602 0.542780 0.121393 -0.225787
C12   C     C_R   0.454704 0.205703 0.506359 0.980796
C13   C     C_R   0.522032 0.595819 0.863760 -0.224330
C14   C     C_3   0.252879 0.809274 0.229893 -0.387442
C15   C     C_3   0.421681 0.906611 0.199099 -0.850760
C16   C     C_3   0.827621 0.797230 0.772725 -0.444377
C17   C     C_3   0.746287 0.939397 0.837290 -0.879437
C18   C     C_2   0.569552 0.958106 0.502043 -0.371891
C19   C     C_2   0.431113 0.042238 0.514357 -0.401075
C20   C     C_R   0.507473 0.533705 0.735472 0.878928
C21   C     C_R   0.500255 0.506942 0.257613 0.887233
C22   C     C_R   0.261058 0.730981 0.884712 -0.228082
C23   C     C_R   0.824186 0.490984 0.085574 -0.203268
C24   C     C_R   0.096722 0.736234 0.945692 -0.149551
H1    H     H_    0.037158 0.541451 0.829892 0.167834
H2    H     H_    0.987465 0.619024 0.593589 0.175930
H3    H     H_    0.533305 0.841589 0.222149 0.252979
H4    H     H_    0.435655 0.938361 0.097196 0.258240
H5    H     H_    0.421867 0.017256 0.255198 0.241933
H6    H     H_    0.151141 0.894513 0.229730 0.174448
H7    H     H_    0.241952 0.766307 0.327454 0.256078
H8    H     H_    0.606191 0.915766 0.857560 0.259694
H9    H     H_    0.803796 0.970444 0.927562 0.252510
H10   H     H_    0.766291 0.041692 0.773141 0.259845
H11   H     H_    0.959640 0.833909 0.733963 0.192133
H12   H     H_    0.976876 0.749955 0.127052 0.151623
H13   H     H_    0.755666 0.763932 0.691391 0.232149
H14   H     H_    0.287457 0.782936 0.791688 0.157419
H15   H     H_    0.826204 0.398306 0.153697 0.172902
H16   H     H_    0.056482 0.854232 0.935571 0.170184
H17   H     H_    0.064771 0.442760 0.024212 0.149128
H18   H     H_    0.700514 0.008773 0.490951 0.179511
H19   H     H_    0.300204 0.991455 0.525948 0.176469
H20   H     H_    0.012851 0.381488 0.405253 0.187159
N1    N     N_2   0.950330 0.457950 0.466250 -0.179173
N2    N     N_2   0.049670 0.542050 0.533750 -0.193391
O1    O     O_R   0.389250 0.738570 0.508280 -0.637303
O2    O     O_R   0.610750 0.261430 0.491720 -0.607819
O3    O     O_R   0.678390 0.711630 0.486650 -0.649432
O4    O     O_R   0.321610 0.288370 0.513350 -0.621149
O5    O     O_R   0.355430 0.513480 0.694040 -0.616116
O6    O     O_R   0.644570 0.486520 0.305960 -0.620723
O7    O     O_R   0.644570 0.486540 0.672410 -0.624795
O8    O     O_R   0.355430 0.513460 0.327590 -0.626949
Zn1   Zn    Zn3+2 0.306940 0.517990 0.514440 0.905605
Zn2   Zn    Zn3+2 0.693060 0.482010 0.485560 0.914632

loop_
_geom_bond_atom_site_label_1
_geom_bond_atom_site_label_2
_ccdc_geom_bond_type
N2    Zn1   S    
C2    C4    A    
C8    C10   A    
C15   H5    S    
C8    C13   A    
C10   C23   A    
O3    Zn2   S    
C5    C7    A    
C11   C21   S    
C16   H13   S    
C15   H3    S    
O4    Zn1   S    
C14   H7    S    
C12   O2    A    
C4    H1    S    
C5    C14   S    
N1    N2    D    
C7    C11   A    
C1    C18   S    
C17   H9    S    
C3    H12   S    
C14   H6    S    
C23   H15   S    
C20   O7    A    
C12   C19   S    
C4    C6    A    
C24   H16   S    
C19   H19   S    
C2    C3    A    
C20   O5    A    
O5    Zn1   S    
C18   H18   S    
C16   H11   S    
C21   O8    A    
C4    C24   A    
C22   C24   A    
C9    C22   A    
C10   C11   A    
H2    N2    S    
C2    H17   S    
C15   H4    S    
C22   H14   S    
C7    C9    A    
H20   N1    S    
O1    Zn1   S    
C18   C19   D    
C17   H10   S    
O7    Zn2   S    
C2    C23   A    
O2    Zn2   S    
C17   H8    S    
C9    C13   A    
C14   C15   S    
C1    O1    A    
C6    C8    A    
C13   C20   S    
O8    Zn1   S    
C6    C16   S    
C12   O4    A    
C21   O6    A    
O6    Zn2   S    
N1    Zn2   S    
C3    C24   A    
C16   C17   S    
C3    C5    A    
C1    O3    A    
