data_mof_unit_13726.cif
_audit_creation_date              2012-12-11T14:33:46-0500
_audit_creation_method            fapswitch 2.2
_symmetry_space_group_name_H-M    P1
_symmetry_Int_Tables_number       1
_space_group_crystal_system       triclinic
_cell_length_a                    13.908238
_cell_length_b                    14.009278
_cell_length_c                    27.347435
_cell_angle_alpha                 89.814493
_cell_angle_beta                  90.077349
_cell_angle_gamma                 119.936871
_cell_volume                      4617.5192782

loop_
_atom_site_label
_atom_site_type_symbol
_atom_type_description
_atom_site_fract_x
_atom_site_fract_y
_atom_site_fract_z
_atom_type_partial_charge
C1    C     C_R   0.233931 0.787040 0.568802 0.543378
C2    C     C_1   0.709301 0.862714 0.859882 -0.072042
C3    C     C_3   0.790047 0.697954 0.227948 -0.422968
C4    C     C_3   0.326885 0.169120 0.225729 -0.276390
C5    C     C_3   0.396805 0.146131 0.262032 -0.442765
C6    C     C_3   0.571029 0.672799 0.109464 -0.263313
C7    C     C_3   0.609823 0.588710 0.115731 -0.427773
C8    C     C_3   0.342517 0.930220 0.111189 -0.258512
C9    C     C_3   0.412454 0.054784 0.119021 -0.425351
C10   C     C_3   0.083223 0.417105 0.111044 -0.260357
C11   C     C_3   0.958498 0.370835 0.118031 -0.426226
C12   C     C_2   0.567864 0.639367 0.818086 0.189244
C13   C     C_1   0.114205 0.881445 0.852623 -0.076906
C14   C     C_2   0.342338 0.968947 0.814007 0.194577
C15   C     C_2   0.056650 0.399346 0.817441 0.195749
C16   C     C_1   0.113281 0.231466 0.852410 -0.080852
C17   C     C_1   0.629891 0.814745 0.658709 -0.077630
C18   C     C_1   0.177474 0.818596 0.656401 -0.078386
C19   C     C_1   0.177495 0.358213 0.656297 -0.078673
C20   C     C_1   0.601657 0.796468 0.616528 -0.014880
C21   C     C_1   0.199228 0.805678 0.615247 -0.014895
C22   C     C_1   0.192390 0.393026 0.615138 -0.014600
C23   C     C_R   0.108124 0.223730 0.087332 0.562478
C24   C     C_R   0.212436 0.446550 0.568742 0.544017
C25   C     C_R   0.776496 0.884525 0.087463 0.550857
C26   C     C_R   0.116477 0.892270 0.087247 0.562856
C27   C     C_R   0.069379 0.160682 0.943383 0.539578
C28   C     C_R   0.780069 0.887154 0.950695 0.536853
C29   C     C_R   0.090920 0.929792 0.943319 0.536718
C30   C     C_R   0.651128 0.893259 0.362350 -0.148840
C31   C     C_R   0.107485 0.743794 0.360040 -0.148163
C32   C     C_R   0.243539 0.349280 0.362682 -0.148864
C33   C     C_R   0.670093 0.913014 0.312165 -0.015131
C34   C     C_R   0.090797 0.743441 0.309640 -0.013421
C35   C     C_R   0.552728 0.765302 0.568975 0.541669
C36   C     C_R   0.241808 0.328961 0.312537 -0.013556
C37   C     C_R   0.719087 0.948750 0.212196 -0.004209
C38   C     C_R   0.058134 0.754785 0.209009 0.007721
C39   C     C_R   0.229079 0.281472 0.212404 -0.003295
C40   C     C_R   0.236702 0.785330 0.429777 0.540693
C41   C     C_R   0.213806 0.449695 0.430310 0.539838
C42   C     C_R   0.549444 0.763745 0.430111 0.538860
C43   C     C_R   0.765766 0.039830 0.244929 0.016538
C44   C     C_R   0.965792 0.693661 0.240395 0.019349
C45   C     C_R   0.278693 0.238798 0.244948 0.018848
C46   C     C_3   0.660879 0.732457 0.789684 -0.042114
C47   C     C_R   0.741654 0.019314 0.295050 -0.111969
C48   C     C_R   0.983616 0.690997 0.290617 -0.126957
C49   C     C_R   0.281909 0.261992 0.295120 -0.108446
C50   C     C_R   0.754966 0.959889 0.163937 -0.161168
C51   C     C_R   0.044830 0.779276 0.160915 -0.159101
C52   C     C_R   0.208010 0.248395 0.163694 -0.162227
C53   C     C_R   0.714819 0.868863 0.132757 -0.007405
C54   C     C_R   0.136811 0.845913 0.131486 -0.014050
C55   C     C_R   0.152334 0.284563 0.132740 -0.009262
C56   C     C_R   0.524452 0.699814 0.345944 -0.127467
C57   C     C_3   0.246764 0.956073 0.782673 -0.040490
C58   C     C_R   0.306641 0.842098 0.346737 -0.131094
C59   C     C_R   0.164949 0.466831 0.346693 -0.131922
C60   C     C_R   0.540162 0.718853 0.296016 0.006315
C61   C     C_R   0.291047 0.839937 0.296600 0.005644
C62   C     C_R   0.165573 0.449736 0.296907 0.001134
C63   C     C_R   0.615830 0.825143 0.278856 0.044857
C64   C     C_R   0.182900 0.793741 0.277795 0.048036
C65   C     C_R   0.201090 0.378061 0.279534 0.042627
C66   C     C_R   0.481139 0.633106 0.263168 -0.136064
C67   C     C_R   0.382033 0.882294 0.265113 -0.141181
C68   C     C_3   0.049575 0.308638 0.784995 -0.044898
C69   C     C_R   0.132205 0.504360 0.264407 -0.143463
C70   C     C_R   0.502262 0.650040 0.213383 -0.135880
C71   C     C_R   0.367099 0.887296 0.215178 -0.132537
C72   C     C_R   0.126743 0.483022 0.214759 -0.136063
C73   C     C_R   0.586537 0.752551 0.195576 0.021656
C74   C     C_R   0.260713 0.853310 0.195887 0.028157
C75   C     C_R   0.151374 0.403482 0.196677 0.027171
C76   C     C_3   0.567275 0.853267 0.737225 -0.197746
C77   C     C_3   0.141966 0.733514 0.739086 -0.196786
C78   C     C_3   0.268868 0.394720 0.737332 -0.197552
C79   C     C_3   0.638760 0.720190 0.733551 -0.185184
C80   C     C_R   0.639448 0.842569 0.228711 0.025548
C81   C     C_R   0.167138 0.799625 0.227396 0.025589
C82   C     C_R   0.194645 0.354869 0.229409 0.025228
C83   C     C_R   0.624447 0.765921 0.146629 -0.009380
C84   C     C_R   0.245422 0.875632 0.146865 -0.005475
C85   C     C_R   0.129919 0.367994 0.147510 -0.007179
C86   C     C_R   0.581063 0.786280 0.379117 0.005704
C87   C     C_R   0.215307 0.795561 0.378601 0.001580
C88   C     C_R   0.202571 0.415922 0.379645 0.002929
C89   C     C_3   0.770653 0.923333 0.722670 -0.227806
C90   C     C_3   0.263076 0.938215 0.727848 -0.183368
C91   C     C_3   0.057075 0.848744 0.714240 -0.225425
C92   C     C_3   0.125366 0.201751 0.713358 -0.224780
C93   C     C_3   0.790648 0.935661 0.778736 -0.243344
C94   C     C_3   0.039883 0.864751 0.768978 -0.243402
C95   C     C_3   0.107186 0.168111 0.768009 -0.243403
C96   C     C_1   0.735971 0.873497 0.902291 -0.021751
C97   C     C_1   0.102964 0.901757 0.894282 -0.019788
C98   C     C_1   0.095628 0.200071 0.894169 -0.024215
C99   C     C_3   0.651945 0.828260 0.711611 0.041818
C100  C     C_3   0.159610 0.834160 0.708022 0.040846
C101  C     C_3   0.068234 0.343067 0.730002 -0.182780
C102  C     C_3   0.160419 0.324762 0.707877 0.041563
C103  C     C_3   0.589452 0.868592 0.793068 -0.168379
C104  C     C_3   0.121808 0.748867 0.793649 -0.171643
C105  C     C_3   0.252256 0.358432 0.791766 -0.174855
C106  C     C_3   0.686355 0.849129 0.806979 0.055965
C107  C     C_3   0.131106 0.862924 0.801115 0.058079
C108  C     C_3   0.130505 0.267155 0.800931 0.056592
C109  C     C_3   0.841410 0.156838 0.226031 -0.275499
C110  C     C_3   0.865684 0.249557 0.262075 -0.442386
C111  C     C_3   0.847295 0.630105 0.222463 -0.290592
Cr1   Cr    Cr6+3 0.164410 0.584450 0.499910 1.017736
Cr2   Cr    Cr6+3 0.415550 0.579960 0.499910 1.018583
Cr3   Cr    Cr6+3 0.420040 0.835590 0.499910 1.017520
Cr4   Cr    Cr6+3 0.155170 0.075460 0.019960 1.004866
Cr5   Cr    Cr6+3 0.924540 0.079710 0.019960 0.998214
Cr6   Cr    Cr6+3 0.920290 0.844830 0.019960 1.005265
H1    H     H_    0.610599 0.953641 0.803462 0.128469
H2    H     H_    0.736276 0.725773 0.796643 0.062718
H3    H     H_    0.247818 0.035629 0.785384 0.055782
H4    H     H_    0.963210 0.238405 0.788760 0.060985
H5    H     H_    0.821960 0.038188 0.151218 0.131561
H6    H     H_    0.962944 0.755915 0.147377 0.135660
H7    H     H_    0.226191 0.186501 0.150342 0.127587
H8    H     H_    0.690635 0.960302 0.388311 0.110527
H9    H     H_    0.037311 0.703406 0.384717 0.115491
H10   H     H_    0.276675 0.313972 0.388400 0.111753
H11   H     H_    0.779723 0.085229 0.321442 0.116997
H12   H     H_    0.037707 0.682381 0.804712 0.114381
H13   H     H_    0.913193 0.648026 0.315001 0.110304
H14   H     H_    0.314535 0.227491 0.321328 0.116348
H15   H     H_    0.455495 0.580088 0.189829 0.122733
H16   H     H_    0.440753 0.922641 0.192736 0.120037
H17   H     H_    0.098663 0.526677 0.191543 0.121679
H18   H     H_    0.420657 0.551898 0.276130 0.127550
H19   H     H_    0.465341 0.914649 0.279249 0.123429
H20   H     H_    0.107446 0.561622 0.277533 0.127265
H21   H     H_    0.572910 0.929238 0.721446 0.118896
H22   H     H_    0.069699 0.656873 0.724867 0.116872
H23   H     H_    0.309456 0.327118 0.801225 0.104114
H24   H     H_    0.337456 0.385492 0.721495 0.111478
H25   H     H_    0.465094 0.617924 0.359040 0.135336
H26   H     H_    0.390399 0.876500 0.360855 0.138849
H27   H     H_    0.138842 0.523477 0.359747 0.137479
H28   H     H_    0.833065 0.906775 0.705166 0.113926
H29   H     H_    0.068379 0.921392 0.692849 0.114714
H30   H     H_    0.047435 0.149724 0.692645 0.114460
H31   H     H_    0.782223 0.001921 0.707145 0.117570
H32   H     H_    0.981706 0.775135 0.699898 0.118728
H33   H     H_    0.190527 0.186576 0.697897 0.117433
H34   H     H_    0.481235 0.784662 0.730754 0.148865
H35   H     H_    0.812414 0.020402 0.790008 0.111551
H36   H     H_    0.956294 0.798655 0.780875 0.111796
H37   H     H_    0.163088 0.136418 0.778569 0.110033
H38   H     H_    0.862409 0.924865 0.788045 0.102544
H39   H     H_    0.041638 0.944002 0.773619 0.101083
H40   H     H_    0.020519 0.100789 0.773445 0.103063
H41   H     H_    0.554287 0.650677 0.725108 0.149751
H42   H     H_    0.338050 0.930169 0.722339 0.151728
H43   H     H_    0.090860 0.430749 0.724984 0.153850
H44   H     H_    0.698605 0.700359 0.715735 0.089700
H45   H     H_    0.216048 0.723112 0.736150 0.154469
H46   H     H_    0.276919 0.011698 0.706366 0.089648
H47   H     H_    0.989324 0.292973 0.709615 0.090901
H48   H     H_    0.787355 0.239333 0.277652 0.142823
H49   H     H_    0.921275 0.251743 0.291784 0.162070
H50   H     H_    0.907921 0.329724 0.242617 0.148407
H51   H     H_    0.921590 0.165258 0.213959 0.159458
H52   H     H_    0.800904 0.170483 0.193802 0.133726
H53   H     H_    0.795269 0.726115 0.266287 0.163701
H54   H     H_    0.828168 0.770630 0.203215 0.166416
H55   H     H_    0.701442 0.645555 0.218431 0.153060
H56   H     H_    0.294108 0.483542 0.734913 0.163865
H57   H     H_    0.842205 0.602834 0.184032 0.128917
H58   H     H_    0.800815 0.553012 0.244183 0.135147
H59   H     H_    0.462684 0.224111 0.278292 0.143969
H60   H     H_    0.343537 0.088840 0.291209 0.161545
H61   H     H_    0.438130 0.107073 0.242631 0.145190
H62   H     H_    0.258268 0.088932 0.212465 0.158724
H63   H     H_    0.381988 0.213316 0.194271 0.132984
H64   H     H_    0.701739 0.629967 0.115045 0.173508
H65   H     H_    0.579708 0.542781 0.150614 0.134193
H66   H     H_    0.576565 0.528322 0.085364 0.135315
H67   H     H_    0.513024 0.811660 0.813567 0.217832
H68   H     H_    0.479199 0.631369 0.111813 0.130667
H69   H     H_    0.590277 0.705498 0.071535 0.152600
H70   H     H_    0.477259 0.091279 0.090244 0.132004
H71   H     H_    0.360399 0.094125 0.116885 0.171103
H72   H     H_    0.454356 0.074452 0.155039 0.132908
H73   H     H_    0.395453 0.891821 0.114100 0.127778
H74   H     H_    0.312898 0.914912 0.072760 0.162503
H75   H     H_    0.927563 0.405585 0.089596 0.133531
H76   H     H_    0.912760 0.279822 0.114599 0.170746
H77   H     H_    0.939866 0.392505 0.154357 0.134054
H78   H     H_    0.181826 0.739784 0.817252 0.206718
H79   H     H_    0.128218 0.508301 0.113810 0.128623
H80   H     H_    0.097971 0.401289 0.072809 0.161329
H81   H     H_    0.587271 0.594448 0.845025 0.105522
H82   H     H_    0.380135 0.036089 0.840041 0.108332
H83   H     H_    0.995234 0.379080 0.845978 0.109297
H84   H     H_    0.274791 0.430316 0.815779 0.219834
O1    O     O_R   0.137150 0.468200 0.553200 -0.508953
O2    O     O_R   0.140110 0.470540 0.446010 -0.520004
O3    O     O_R   0.529460 0.669570 0.446010 -0.517248
O4    O     O_R   0.330430 0.859890 0.446010 -0.519559
O5    O     O_R   0.176710 0.690910 0.450560 -0.506232
O6    O     O_R   0.309090 0.485800 0.450560 -0.505065
O7    O     O_R   0.514200 0.823290 0.450560 -0.505059
O8    O     O_3   0.333333 0.666667 0.499990 -0.272394
O9    O     O_R   0.176750 0.985260 0.074180 -0.516731
O10   O     O_R   0.014740 0.191490 0.074180 -0.514968
O11   O     O_R   0.808510 0.823250 0.074180 -0.514869
O12   O     O_R   0.531800 0.668950 0.553200 -0.508161
O13   O     O_R   0.146100 0.172630 0.068980 -0.494209
O14   O     O_R   0.827370 0.973470 0.068980 -0.499460
O15   O     O_R   0.026530 0.853900 0.068980 -0.491849
O16   O     O_3   1.000000 1.000000 0.020040 -0.252684
O17   O     O_R   0.148270 0.170520 0.969620 -0.502581
O18   O     O_R   0.829480 0.977750 0.969620 -0.519827
O19   O     O_R   0.022250 0.851730 0.969620 -0.485247
O20   O     O_2   0.471352 0.615176 0.812021 -0.537188
O21   O     O_2   0.376055 0.903650 0.811496 -0.547859
O22   O     O_2   0.131857 0.494466 0.813105 -0.523738
O23   O     O_R   0.331050 0.862850 0.553200 -0.507761
O24   O     O_R   0.179100 0.982980 0.967000 -0.508444
O25   O     O_R   0.017020 0.196120 0.967000 -0.499306
O26   O     O_R   0.803880 0.820900 0.967000 -0.519377
O27   O     O_R   0.173970 0.688730 0.549930 -0.498250
O28   O     O_R   0.311270 0.485240 0.549930 -0.498371
O29   O     O_R   0.514760 0.826030 0.549930 -0.497668

loop_
_geom_bond_atom_site_label_1
_geom_bond_atom_site_label_2
_ccdc_geom_bond_type
C89   H31   S    
C27   C98   S    
C1    C21   S    
C101  C102  S    
Cr1   O27   S    
C78   C102  S    
C18   C21   T    
C51   H6    S    
C42   O3    A    
C50   H5    S    
C11   H77   S    
Cr1   O1    S    
C13   C107  S    
C9    H71   S    
C3    H54   S    
C58   C87   A    
C74   C81   A    
C79   H41   S    
C54   C84   A    
C47   H11   S    
C10   C85   S    
C76   C99   S    
C89   H28   S    
C49   H14   S    
C6    H68   S    
C24   O1    A    
Cr2   O28   S    
Cr6   O19   S    
C1    O23   A    
C111  H58   S    
Cr2   O6    S    
C40   C87   S    
C79   C99   S    
C79   H44   S    
C34   C64   A    
Cr4   O24   S    
Cr5   O10   S    
C72   C75   A    
C46   C79   S    
C27   O25   A    
C110  H48   S    
C3    H55   S    
C104  H78   S    
C15   C68   S    
C8    H74   S    
C111  H57   S    
C17   C20   T    
C77   C100  S    
C26   O15   A    
C11   H75   S    
Cr2   O3    S    
C90   H42   S    
C14   C57   S    
C59   C88   A    
Cr3   O29   S    
C20   C35   S    
C105  H84   S    
C58   H26   S    
C75   C85   A    
C29   O19   A    
C101  H43   S    
C3    C111  S    
C8    C9    S    
C78   H56   S    
Cr4   O17   S    
C42   O7    A    
C42   C86   S    
Cr2   O12   S    
C91   C100  S    
C41   O2    A    
C19   C102  S    
Cr4   O9    S    
C52   C55   A    
C92   C102  S    
C39   C45   A    
C56   H25   S    
C76   C103  S    
C39   C52   A    
C30   H8    S    
C60   C66   A    
C95   H40   S    
C29   O24   A    
C25   C53   S    
C92   H30   S    
C15   O22   D    
C48   H13   S    
C18   C100  S    
C4    H63   S    
Cr5   O14   S    
C9    H72   S    
C26   C54   S    
C28   O26   A    
C90   C100  S    
C105  C108  S    
C109  H52   S    
C63   C80   A    
C101  H47   S    
C105  H23   S    
C69   H20   S    
C5    H61   S    
C37   C80   A    
C40   O5    A    
C94   C107  S    
C50   C53   A    
C31   C87   A    
C57   C90   S    
C7    H64   S    
C103  H67   S    
C11   H76   S    
C93   H38   S    
C19   C22   T    
C68   C101  S    
C12   C46   S    
C24   O28   A    
C95   C108  S    
C78   H24   S    
C8    H73   S    
C91   H32   S    
C3    H53   S    
C36   C65   A    
C38   C51   A    
C76   H34   S    
C2    C106  S    
C92   C95   S    
C56   C60   A    
C62   C69   A    
Cr5   O25   S    
C55   C85   A    
C61   C64   A    
C64   C81   A    
C38   C44   A    
C56   C86   A    
C109  H51   S    
C10   H79   S    
C93   C106  S    
C17   C99   S    
C110  H50   S    
C61   C67   A    
C72   H17   S    
C25   O14   A    
C33   C63   A    
C70   C73   A    
C70   H15   S    
C45   C49   A    
C31   C34   A    
C26   O9    A    
Cr5   O18   S    
Cr6   O16   S    
C35   O12   A    
C35   O29   A    
C5    H60   S    
C57   H3    S    
C1    O27   A    
C57   C107  S    
C89   C99   S    
C59   H27   S    
C28   O18   A    
C104  H12   S    
C78   C105  S    
C38   C81   A    
C92   H33   S    
C33   C47   A    
C5    H59   S    
C22   C24   S    
C37   C43   A    
C103  H1    S    
C30   C86   A    
C4    H62   S    
C10   H80   S    
C32   C36   A    
C69   C72   A    
C32   H10   S    
C77   C104  S    
C77   H45   S    
C7    H65   S    
C41   C88   S    
C40   O4    A    
Cr6   O26   S    
C59   C62   A    
C89   C93   S    
C6    C83   S    
C30   C33   A    
Cr3   O8    S    
C8    C84   S    
C14   O21   D    
Cr6   O11   S    
C77   H22   S    
C39   C82   A    
C74   C84   A    
C4    C5    S    
C9    H70   S    
C68   H4    S    
C71   H16   S    
C71   C74   A    
C4    C45   S    
Cr6   O15   S    
C75   C82   A    
C23   C55   S    
C6    C7    S    
C76   H21   S    
C43   C109  S    
C14   H82   S    
C6    H69   S    
C31   H9    S    
Cr3   O4    S    
C29   C97   S    
C90   H46   S    
C28   C96   S    
C95   H37   S    
Cr1   O8    S    
C51   C54   A    
C2    C96   T    
C67   H19   S    
Cr1   O5    S    
C109  C110  S    
C25   O11   A    
C15   H83   S    
C52   H7    S    
C16   C98   T    
C65   C82   A    
C66   C70   A    
C23   O10   A    
C58   C61   A    
C94   H36   S    
C53   C83   A    
C46   C106  S    
C37   C50   A    
C62   C65   A    
C73   C80   A    
Cr3   O7    S    
C46   H2    S    
C103  C106  S    
C67   C71   A    
C7    H66   S    
C91   H29   S    
C13   C97   T    
C110  H49   S    
C12   O20   D    
C60   C63   A    
C10   C11   S    
C16   C108  S    
Cr2   O8    S    
C66   H18   S    
C44   C111  S    
C34   C48   A    
Cr4   O13   S    
C27   O17   A    
C94   H39   S    
C12   H81   S    
Cr4   O16   S    
C93   H35   S    
C41   O6    A    
C68   C108  S    
Cr1   O2    S    
Cr3   O23   S    
Cr5   O16   S    
C43   C47   A    
C73   C83   A    
C104  C107  S    
C36   C49   A    
C44   C48   A    
C91   C94   S    
C23   O13   A    
C32   C88   A    
