data_mof_unit_27501.cif
_audit_creation_date              2012-12-10T18:46:19-0500
_audit_creation_method            fapswitch 2.2
_symmetry_space_group_name_H-M    P1
_symmetry_Int_Tables_number       1
_space_group_crystal_system       triclinic
_cell_length_a                    9.844268
_cell_length_b                    10.713141
_cell_length_c                    13.220139
_cell_angle_alpha                 90.076564
_cell_angle_beta                  70.095151
_cell_angle_gamma                 89.957281
_cell_volume                      1310.94108498

loop_
_atom_site_label
_atom_site_type_symbol
_atom_type_description
_atom_site_fract_x
_atom_site_fract_y
_atom_site_fract_z
_atom_type_partial_charge
C1    C     C_R   0.499914 0.740110 0.500207 0.859653
C2    C     C_R   0.370924 0.496049 0.821109 -0.123143
C3    C     C_R   0.608387 0.936013 0.525183 -0.196765
C4    C     C_R   0.420101 0.504395 0.704067 0.876279
C5    C     C_R   0.608518 0.063918 0.524999 -0.188773
C6    C     C_R   0.499891 0.127444 0.500244 -0.016769
C7    C     C_R   0.391055 0.063958 0.475782 -0.189522
C8    C     C_R   0.390947 0.936076 0.475937 -0.190216
C9    C     C_R   0.499711 0.872544 0.500499 -0.013441
C10   C     C_R   0.956099 0.416274 0.438809 -0.075111
C11   C     C_R   0.099990 0.416352 0.438773 -0.057947
C12   C     C_R   0.455603 0.465913 0.972172 -0.049640
C13   C     C_R   0.043898 0.583724 0.561190 -0.082833
C14   C     C_R   0.900171 0.583881 0.560953 -0.055788
C15   C     C_R   0.499970 0.259888 0.500042 0.873796
C16   C     C_R   0.579979 0.499332 0.296154 0.880209
C17   C     C_R   0.787454 0.592933 0.014022 -0.203977
C18   C     C_R   0.629696 0.504918 0.179805 -0.065965
C19   C     C_R   0.246185 0.427309 0.873668 -0.303513
C20   C     C_R   0.231334 0.369023 0.970446 -0.129994
C21   C     C_R   0.341436 0.376887 0.014285 0.424546
C22   C     C_R   0.467611 0.527146 0.874977 0.061012
C23   C     C_R   0.558213 0.496548 0.022000 0.076101
C24   C     C_R   0.682074 0.569101 0.966890 0.191836
C25   C     C_R   0.691749 0.627074 0.870821 -0.251831
C26   C     C_R   0.580496 0.613654 0.829938 -0.166950
C27   C     C_R   0.531820 0.470669 0.129846 -0.272446
C28   C     C_R   0.761937 0.559323 0.120569 -0.190772
H1    H     H_    0.838964 0.585807 0.158871 0.161669
H2    H     H_    0.884390 0.644866 0.971137 0.140787
H3    H     H_    0.427950 0.435045 0.179142 0.207266
H4    H     H_    0.169052 0.405861 0.834074 0.182249
H5    H     H_    0.142027 0.305406 0.004743 0.168655
H6    H     H_    0.584948 0.670116 0.761035 0.145124
H7    H     H_    0.692295 0.887196 0.545216 0.149299
H8    H     H_    0.442434 0.261991 0.075395 0.331644
H9    H     H_    0.692543 0.112693 0.544864 0.157609
H10   H     H_    0.307099 0.112738 0.455787 0.156067
H11   H     H_    0.306914 0.887329 0.456058 0.159115
H12   H     H_    0.924071 0.349405 0.389815 0.134339
H13   H     H_    0.176947 0.349525 0.389713 0.140238
H14   H     H_    0.075918 0.650658 0.610141 0.122691
H15   H     H_    0.823659 0.651334 0.609330 0.116039
H16   H     H_    0.780737 0.689147 0.830864 0.133951
N1    N     N_R   0.142790 0.500030 0.500030 -0.080858
N2    N     N_R   0.857180 0.499940 0.500010 -0.079745
O1    O     O_R   0.385370 0.683250 0.500010 -0.624955
O2    O     O_R   0.614700 0.683220 0.500010 -0.631628
O3    O     O_R   0.328400 0.499990 0.653620 -0.613374
O4    O     O_R   0.557730 0.499960 0.653620 -0.609305
O5    O     O_R   0.385300 0.316780 0.499990 -0.626366
O6    O     O_R   0.614630 0.316750 0.499990 -0.623793
O7    O     O_R   0.442270 0.500040 0.346380 -0.614659
O8    O     O_R   0.671600 0.500010 0.346380 -0.614996
O9    O     O_3   0.340788 0.287147 0.088981 -0.799788
Zn1   Zn    Zn3+2 0.346870 0.500020 0.500000 0.947580
Zn2   Zn    Zn3+2 0.653130 0.499980 0.500000 0.947108

loop_
_geom_bond_atom_site_label_1
_geom_bond_atom_site_label_2
_ccdc_geom_bond_type
C10   N2    A    
C2    C4    S    
C23   C24   A    
C1    O2    A    
C2    C22   A    
C6    C7    A    
C3    C9    A    
C8    H11   S    
C5    H9    S    
O3    Zn1   S    
C19   C20   A    
C3    H7    S    
C4    O3    A    
C10   C11   A    
C14   H15   S    
C25   C26   A    
C1    C9    S    
O2    Zn2   S    
C14   N2    A    
H8    O9    S    
C15   O6    A    
C24   C25   A    
C13   N1    A    
C17   H2    S    
C17   C28   A    
C12   C23   A    
O1    Zn1   S    
C19   H4    S    
C25   H16   S    
C10   H12   S    
C28   H1    S    
C7    H10   S    
C11   H13   S    
C15   O5    A    
C23   C27   A    
N2    Zn2   S    
C5    C6    A    
C16   O8    A    
C11   N1    A    
C17   C24   A    
O6    Zn2   S    
C20   H5    S    
C27   H3    S    
C12   C22   A    
C7    C8    A    
C18   C28   A    
C20   C21   A    
C16   C18   S    
O5    Zn1   S    
C22   C26   A    
O7    Zn1   S    
C21   O9    S    
C16   O7    A    
C13   H14   S    
C13   C14   A    
C6    C15   S    
C2    C19   A    
O4    Zn2   S    
C12   C21   A    
C26   H6    S    
C1    O1    A    
C18   C27   A    
N1    Zn1   S    
C4    O4    A    
C8    C9    A    
C3    C5    A    
O8    Zn2   S    
