data_mof_unit_55993.cif
_audit_creation_date              2012-12-11T15:57:04-0500
_audit_creation_method            fapswitch 2.2
_symmetry_space_group_name_H-M    P1
_symmetry_Int_Tables_number       1
_space_group_crystal_system       triclinic
_cell_length_a                    17.825603
_cell_length_b                    24.787121
_cell_length_c                    15.066305
_cell_angle_alpha                 89.972305
_cell_angle_beta                  126.463076
_cell_angle_gamma                 89.894107
_cell_volume                      5353.78803563

loop_
_atom_site_label
_atom_site_type_symbol
_atom_type_description
_atom_site_fract_x
_atom_site_fract_y
_atom_site_fract_z
_atom_type_partial_charge
C1    C     C_R   0.324147 0.138191 0.909498 -0.178210
C2    C     C_R   0.570357 0.147012 0.910246 -0.049928
C3    C     C_R   0.841790 0.339683 0.003868 0.162507
C4    C     C_R   0.567947 0.999680 0.368502 0.026749
C5    C     C_R   0.064291 0.499748 0.366948 0.035608
C6    C     C_R   0.176574 0.000815 0.710201 0.047005
C7    C     C_R   0.676494 0.500570 0.711036 0.065662
C8    C     C_R   0.511146 0.045700 0.743861 0.054962
C9    C     C_R   0.511865 0.954717 0.744167 0.058986
C10   C     C_R   0.013549 0.545402 0.746305 0.058458
C11   C     C_R   0.015400 0.454518 0.748404 0.053887
C12   C     C_R   0.760576 0.953661 0.298474 -0.133843
C13   C     C_R   0.067469 0.351674 0.910333 -0.063195
C14   C     C_R   0.760181 0.044523 0.302451 -0.140139
C15   C     C_R   0.260058 0.453435 0.298811 -0.080803
C16   C     C_R   0.260108 0.544313 0.303151 -0.167607
C17   C     C_3   0.006860 0.851418 0.527424 -0.838569
C18   C     C_3   0.044456 0.086326 0.388999 -0.548405
C19   C     C_3   0.510683 0.352503 0.520584 -0.780343
C20   C     C_3   0.469476 0.618311 0.388500 -0.797881
C21   C     C_3   0.301139 0.735269 0.312066 -0.757935
C22   C     C_3   0.259338 0.250021 0.294943 -0.720030
C23   C     C_3   0.776744 0.244246 0.301525 -0.708477
C24   C     C_R   0.074699 0.645113 0.910779 -0.040088
C25   C     C_3   0.802107 0.763109 0.313406 -0.737651
C26   C     C_3   0.724384 0.123837 0.604595 -0.867513
C27   C     C_3   0.755598 0.934497 0.535003 -0.978697
C28   C     C_3   0.235901 0.618711 0.610518 -0.854987
C29   C     C_3   0.250905 0.431295 0.530978 -0.976763
C30   C     C_R   0.531482 0.000299 0.708233 0.026032
C31   C     C_R   0.036997 0.499957 0.714186 0.030852
C32   C     C_R   0.810078 0.998463 0.357174 0.084806
C33   C     C_R   0.309198 0.498101 0.358555 0.074112
C34   C     C_R   0.645520 0.170722 0.005080 0.139371
C35   C     C_R   0.650961 0.832009 0.006354 0.177095
C36   C     C_R   0.152794 0.666767 0.006161 0.178544
C37   C     C_R   0.331330 0.857115 0.909176 -0.158744
C38   C     C_R   0.140089 0.326203 0.004994 0.172174
C39   C     C_3   0.004135 0.970224 0.626148 -0.213793
C40   C     C_3   0.016248 0.051092 0.573932 -0.238664
C41   C     C_3   0.504376 0.467810 0.627076 -0.236827
C42   C     C_3   0.514963 0.550217 0.579378 -0.197599
C43   C     C_3   0.939039 0.020442 0.571324 -0.115683
C44   C     C_3   0.438249 0.517837 0.575307 -0.117098
C45   C     C_3   0.903135 0.997632 0.457591 -0.021941
C46   C     C_3   0.401869 0.496960 0.459832 -0.048945
C47   C     C_3   0.967181 0.948192 0.511292 0.044023
C48   C     C_R   0.830014 0.642252 0.908955 -0.143124
C49   C     C_3   0.979791 0.027703 0.460897 0.048654
C50   C     C_3   0.466928 0.447869 0.510572 0.064249
C51   C     C_3   0.477703 0.528655 0.464671 0.097348
C52   C     C_3   0.042334 0.977824 0.511172 0.402462
C53   C     C_3   0.541086 0.479301 0.511851 0.468594
C54   C     C_R   0.425853 0.858998 0.095719 0.109511
C55   C     C_R   0.413449 0.131894 0.095516 0.117779
C56   C     C_R   0.919757 0.362950 0.095653 0.116460
C57   C     C_R   0.924235 0.639894 0.095716 0.109840
C58   C     C_3   0.078723 0.000599 0.625136 -0.000595
C59   C     C_R   0.828418 0.358940 0.909155 -0.167114
C60   C     C_3   0.578190 0.500102 0.627226 -0.050533
C61   C     C_3   0.321508 0.785603 0.125866 0.339240
C62   C     C_3   0.292139 0.198567 0.118462 0.353836
C63   C     C_3   0.808029 0.292585 0.121946 0.338773
C64   C     C_3   0.818936 0.712520 0.125345 0.345444
C65   C     C_3   0.766054 0.239678 0.127871 -0.150556
C66   C     C_3   0.777714 0.765620 0.131506 -0.134184
C67   C     C_3   0.279508 0.732627 0.131101 -0.130310
C68   C     C_3   0.253012 0.252995 0.125700 -0.188187
C69   C     C_3   0.823958 0.241069 0.982914 0.240627
C70   C     C_R   0.668078 0.141867 0.095725 0.007447
C71   C     C_3   0.824142 0.761251 0.975287 0.240579
C72   C     C_3   0.324648 0.737794 0.973392 0.249992
C73   C     C_3   0.327329 0.254420 0.999790 0.232660
C74   C     C_3   0.192408 0.801330 0.923986 -0.437271
C75   C     C_3   0.180917 0.196193 0.909412 -0.437209
C76   C     C_3   0.685662 0.303445 0.916566 -0.424820
C77   C     C_3   0.690708 0.698268 0.922714 -0.430687
C78   C     C_3   0.298827 0.790783 0.008195 -0.110294
C79   C     C_3   0.285824 0.199945 0.009765 -0.091042
C80   C     C_3   0.791899 0.294995 0.007660 -0.103774
C81   C     C_R   0.671705 0.860344 0.096258 -0.069934
C82   C     C_3   0.797131 0.708114 0.008101 -0.113849
C83   C     C_3   0.699085 0.215240 0.008162 -0.048626
C84   C     C_3   0.705425 0.787869 0.010504 -0.066470
C85   C     C_3   0.207122 0.710920 0.010011 -0.064393
C86   C     C_3   0.193194 0.280926 0.008498 -0.039602
C87   C     C_3   0.756420 0.195086 0.965275 0.289399
C88   C     C_3   0.757829 0.807444 0.960973 0.261414
C89   C     C_3   0.258714 0.691635 0.959353 0.266064
C90   C     C_3   0.258455 0.301078 0.976530 0.262434
C91   C     C_3   0.630874 0.260479 0.928411 -0.438833
C92   C     C_R   0.173178 0.638500 0.096295 -0.068056
C93   C     C_3   0.637455 0.741352 0.936705 -0.405937
C94   C     C_3   0.139157 0.757884 0.937008 -0.412321
C95   C     C_3   0.124870 0.238461 0.920989 -0.411551
C96   C     C_3   0.592753 0.052689 0.624373 -0.420738
C97   C     C_3   0.609472 0.953533 0.639306 -0.480545
C98   C     C_3   0.106682 0.548813 0.635850 -0.374363
C99   C     C_3   0.103915 0.449437 0.634566 -0.519264
C100  C     C_R   0.551118 0.044808 0.305353 -0.115335
C101  C     C_R   0.549246 0.954752 0.304490 -0.075193
C102  C     C_R   0.048211 0.544951 0.304191 -0.113261
C103  C     C_R   0.164005 0.355626 0.095448 0.051220
C104  C     C_R   0.046691 0.454768 0.303337 -0.087948
C105  C     C_3   0.601369 0.054902 0.528859 0.033896
C106  C     C_3   0.625242 0.952021 0.548653 0.059222
C107  C     C_3   0.107840 0.553187 0.534660 0.024074
C108  C     C_3   0.120598 0.449722 0.544559 0.080260
C109  C     C_3   0.442428 0.994426 0.500894 0.738062
C110  C     C_3   0.945082 0.500028 0.507029 0.783877
C111  C     C_3   0.541573 0.000133 0.618460 0.011228
C112  C     C_3   0.045935 0.499713 0.623495 -0.017433
C113  C     C_3   0.568157 0.999699 0.466171 0.129261
C114  C     C_R   0.573717 0.854355 0.910855 -0.031771
C115  C     C_3   0.067300 0.499677 0.466697 0.087062
C116  C     C_3   0.462842 0.991915 0.414881 -0.624540
C117  C     C_3   0.962033 0.496031 0.418126 -0.566312
C118  C     C_R   0.230570 0.954884 0.743498 -0.000596
C119  C     C_R   0.230477 0.046060 0.738102 -0.063754
C120  C     C_R   0.730505 0.454785 0.742908 0.000600
C121  C     C_R   0.730445 0.545994 0.739659 -0.035086
C122  C     C_R   0.334527 0.154773 0.004302 0.095378
C123  C     C_R   0.348109 0.835633 0.004244 0.170313
C124  C     C_R   0.846296 0.663247 0.004048 0.167688
H1    H     H_    0.277208 0.154059 0.826946 0.100836
H2    H     H_    0.365698 0.197994 0.192067 0.095627
H3    H     H_    0.415074 0.632467 0.397063 0.206524
H4    H     H_    0.458598 0.637997 0.315661 0.291095
H5    H     H_    0.539364 0.630317 0.462367 0.246148
H6    H     H_    0.985911 0.923154 0.317291 0.349916
H7    H     H_    0.566885 0.429625 0.302952 0.425149
H8    H     H_    0.427064 0.854179 0.322255 0.317435
H9    H     H_    0.241735 0.070513 0.039380 0.361413
H10   H     H_    0.899082 0.361495 0.314763 0.320115
H11   H     H_    0.921408 0.637958 0.316892 0.322733
H12   H     H_    0.170039 0.742730 0.153335 0.257205
H13   H     H_    0.883235 0.289215 0.189793 0.066130
H14   H     H_    0.284449 0.768039 0.347971 0.289835
H15   H     H_    0.375830 0.738510 0.345649 0.244997
H16   H     H_    0.289054 0.696139 0.337251 0.190179
H17   H     H_    0.146716 0.222536 0.137032 0.303779
H18   H     H_    0.216837 0.237092 0.322831 0.246585
H19   H     H_    0.283475 0.291804 0.324100 0.199713
H20   H     H_    0.322010 0.223862 0.333928 0.275266
H21   H     H_    0.649913 0.247718 0.137812 0.263533
H22   H     H_    0.750292 0.273583 0.332617 0.279872
H23   H     H_    0.851263 0.253324 0.340423 0.235011
H24   H     H_    0.894747 0.716845 0.189592 0.069315
H25   H     H_    0.771234 0.203155 0.326207 0.187684
H26   H     H_    0.669420 0.758981 0.156106 0.251246
H27   H     H_    0.779787 0.734785 0.350644 0.275409
H28   H     H_    0.799379 0.804709 0.338284 0.195194
H29   H     H_    0.875168 0.753310 0.346062 0.257922
H30   H     H_    0.050855 0.209482 0.252834 0.373350
H31   H     H_    0.060591 0.790488 0.233391 0.394271
H32   H     H_    0.562308 0.707058 0.228303 0.382854
H33   H     H_    0.540201 0.280379 0.287261 0.383838
H34   H     H_    0.756869 0.045458 0.993832 0.384267
H35   H     H_    0.823662 0.209966 0.177745 0.179703
H36   H     H_    0.757721 0.946443 0.033837 0.365322
H37   H     H_    0.259539 0.552122 0.031047 0.363009
H38   H     H_    0.259381 0.450062 0.009456 0.380621
H39   H     H_    0.715762 0.055792 0.520562 0.183200
H40   H     H_    0.799476 0.128547 0.641124 0.257437
H41   H     H_    0.714333 0.135161 0.668177 0.269948
H42   H     H_    0.683165 0.151488 0.532667 0.232534
H43   H     H_    0.767478 0.938663 0.678216 0.227552
H44   H     H_    0.832675 0.930330 0.589006 0.260050
H45   H     H_    0.737451 0.963637 0.469547 0.262230
H46   H     H_    0.834667 0.796012 0.175749 0.183756
H47   H     H_    0.724963 0.894313 0.499172 0.246120
H48   H     H_    0.215511 0.553327 0.514192 0.182169
H49   H     H_    0.309846 0.621795 0.641184 0.254898
H50   H     H_    0.232452 0.628109 0.680053 0.278780
H51   H     H_    0.193973 0.648754 0.543380 0.228961
H52   H     H_    0.262132 0.433309 0.673950 0.217351
H53   H     H_    0.327947 0.426708 0.584613 0.258203
H54   H     H_    0.233143 0.461095 0.466685 0.261899
H55   H     H_    0.219585 0.391444 0.493562 0.244242
H56   H     H_    0.273413 0.032781 0.288845 0.390770
H57   H     H_    0.336116 0.701891 0.175136 0.169917
H58   H     H_    0.398687 0.848763 0.519242 0.381489
H59   H     H_    0.741925 0.590215 0.340113 0.415537
H60   H     H_    0.874482 0.357612 0.505254 0.383781
H61   H     H_    0.312957 0.280435 0.179517 0.205391
H62   H     H_    0.171427 0.799991 0.838118 0.152445
H63   H     H_    0.172642 0.204488 0.831419 0.148053
H64   H     H_    0.669568 0.299739 0.833238 0.147744
H65   H     H_    0.284737 0.842158 0.825807 0.103905
H66   H     H_    0.670404 0.700674 0.837221 0.148256
H67   H     H_    0.465675 0.848760 0.182065 0.053441
H68   H     H_    0.447444 0.139151 0.182060 0.103913
H69   H     H_    0.956589 0.353966 0.182133 0.058677
H70   H     H_    0.963592 0.649672 0.182128 0.054084
H71   H     H_    0.172069 0.841867 0.934784 0.256131
H72   H     H_    0.151579 0.155324 0.899864 0.236443
H73   H     H_    0.661858 0.344291 0.920426 0.251507
H74   H     H_    0.669688 0.657563 0.931510 0.259825
H75   H     H_    0.106316 0.775274 0.974245 0.263495
H76   H     H_    0.782889 0.657168 0.825523 0.091428
H77   H     H_    0.082406 0.219828 0.944395 0.258388
H78   H     H_    0.593491 0.278678 0.959313 0.248387
H79   H     H_    0.604932 0.723639 0.974010 0.269562
H80   H     H_    0.576276 0.245139 0.844420 0.163962
H81   H     H_    0.579187 0.755162 0.852831 0.162289
H82   H     H_    0.081086 0.744468 0.852854 0.166316
H83   H     H_    0.074463 0.256233 0.837913 0.156242
H84   H     H_    0.812412 0.246246 0.902155 0.052938
H85   H     H_    0.806911 0.754753 0.891870 0.052618
H86   H     H_    0.306370 0.744857 0.889592 0.052141
H87   H     H_    0.782230 0.343409 0.826245 0.099885
H88   H     H_    0.325130 0.251432 0.924492 0.061329
H89   H     H_    0.704417 0.191130 0.874065 0.032731
H90   H     H_    0.702842 0.811166 0.870297 0.040639
H91   H     H_    0.203179 0.688460 0.868750 0.037571
H92   H     H_    0.211818 0.306221 0.885090 0.044780
H93   H     H_    0.557444 0.090051 0.621386 0.187782
H94   H     H_    0.586169 0.913415 0.645038 0.214892
H95   H     H_    0.084626 0.587999 0.648053 0.187264
H96   H     H_    0.071438 0.410874 0.630131 0.218518
H97   H     H_    0.663030 0.053941 0.705367 0.226535
H98   H     H_    0.017691 0.946454 0.696826 0.156460
H99   H     H_    0.676205 0.959499 0.722742 0.216336
H100  H     H_    0.179025 0.543306 0.712357 0.231972
H101  H     H_    0.170663 0.449191 0.719281 0.208820
H102  H     H_    0.553380 0.087200 0.471282 0.160259
H103  H     H_    0.596990 0.912803 0.504986 0.135960
H104  H     H_    0.061011 0.587115 0.482439 0.149117
H105  H     H_    0.090139 0.411573 0.497384 0.124406
H106  H     H_    0.564994 0.086402 0.331643 0.093203
H107  H     H_    0.558767 0.912942 0.329325 0.078614
H108  H     H_    0.060385 0.586592 0.330252 0.076135
H109  H     H_    0.037647 0.093522 0.600444 0.133104
H110  H     H_    0.056568 0.412992 0.328209 0.082041
H111  H     H_    0.421407 0.022819 0.349354 0.223468
H112  H     H_    0.439291 0.952706 0.370494 0.240864
H113  H     H_    0.922016 0.527933 0.354344 0.251233
H114  H     H_    0.934142 0.457403 0.372092 0.230816
H115  H     H_    0.206496 0.913837 0.724688 0.103939
H116  H     H_    0.206952 0.086963 0.712036 0.085905
H117  H     H_    0.706175 0.413809 0.722426 0.101504
H118  H     H_    0.706950 0.587123 0.716248 0.086371
H119  H     H_    0.513212 0.087437 0.725926 0.104786
H120  H     H_    0.518508 0.442593 0.696450 0.162092
H121  H     H_    0.515344 0.913180 0.726234 0.120985
H122  H     H_    0.015056 0.586898 0.726684 0.119829
H123  H     H_    0.019657 0.412857 0.731647 0.116052
H124  H     H_    0.773697 0.912173 0.323991 0.100754
H125  H     H_    0.775470 0.085372 0.333646 0.086300
H126  H     H_    0.272933 0.411779 0.323533 0.098477
H127  H     H_    0.275779 0.585076 0.334491 0.106791
H128  H     H_    0.722461 0.147814 0.182023 0.087275
H129  H     H_    0.727090 0.855410 0.182263 0.105363
H130  H     H_    0.229155 0.642664 0.182543 0.108299
H131  H     H_    0.536064 0.592146 0.610207 0.136149
H132  H     H_    0.216944 0.348402 0.181614 0.094484
H133  H     H_    0.536397 0.840481 0.826796 0.071104
H134  H     H_    0.532083 0.160651 0.825847 0.074553
H135  H     H_    0.028291 0.338521 0.825665 0.076961
H136  H     H_    0.037425 0.659282 0.826832 0.077090
H137  H     H_    0.894244 0.037432 0.593073 0.147993
H138  H     H_    0.393739 0.533187 0.598777 0.153453
H139  H     H_    0.886061 0.883824 0.493703 0.172639
H140  H     H_    0.977777 0.812338 0.530028 0.232283
H141  H     H_    0.067163 0.861556 0.612876 0.241118
H142  H     H_    0.397422 0.780576 0.189074 0.068967
H143  H     H_    0.028853 0.845576 0.473140 0.298387
H144  H     H_    0.909654 0.087793 0.341340 0.172462
H145  H     H_    0.025564 0.126909 0.349966 0.225980
H146  H     H_    0.069157 0.062088 0.349187 0.317849
H147  H     H_    0.101500 0.091530 0.478311 0.200728
H148  H     H_    0.389118 0.381154 0.490540 0.161793
H149  H     H_    0.480887 0.311512 0.508469 0.224114
H150  H     H_    0.565484 0.358643 0.610218 0.214582
H151  H     H_    0.540762 0.353992 0.474200 0.310679
H152  H     H_    0.414966 0.546362 0.297210 0.224220
N1    N     N_R   0.392450 0.103580 0.942190 -0.054574
N2    N     N_R   0.525490 0.971610 0.207550 -0.041584
N3    N     N_R   0.025490 0.528390 0.207550 -0.035834
N4    N     N_R   0.025490 0.471610 0.207550 -0.042419
N5    N     N_R   0.317450 0.971190 0.792000 -0.040336
N6    N     N_R   0.317450 0.028810 0.792000 -0.044081
N7    N     N_R   0.817450 0.471190 0.792000 -0.041218
N8    N     N_R   0.817450 0.528810 0.792000 -0.046435
N9    N     N_R   0.473900 0.028390 0.792280 -0.051963
N10   N     N_R   0.473900 0.971610 0.792280 -0.050899
N11   N     N_R   0.973900 0.528390 0.792280 -0.052489
N12   N     N_R   0.392450 0.896420 0.942190 -0.055863
N13   N     N_R   0.973900 0.471610 0.792280 -0.048072
N14   N     N_R   0.682310 0.971180 0.208170 -0.049527
N15   N     N_R   0.682310 0.028820 0.208170 -0.042919
N16   N     N_R   0.182310 0.471180 0.208170 -0.054362
N17   N     N_R   0.182310 0.528820 0.208170 -0.049284
N18   N     N_R   0.606470 0.103570 0.057210 -0.050022
N19   N     N_R   0.606470 0.896430 0.057210 -0.054286
N20   N     N_R   0.106470 0.603570 0.057210 -0.052879
N21   N     N_R   0.106470 0.396430 0.057210 -0.060960
N22   N     N_R   0.549740 0.896000 0.943240 -0.049954
N23   N     N_R   0.892450 0.603580 0.942190 -0.054516
N24   N     N_R   0.549740 0.104000 0.943240 -0.046848
N25   N     N_R   0.049740 0.396000 0.943240 -0.049579
N26   N     N_R   0.049740 0.604000 0.943240 -0.051263
N27   N     N_2   0.935775 0.892760 0.481528 -0.124389
N28   N     N_2   0.963491 0.060738 0.371047 -0.103024
N29   N     N_2   0.437576 0.392387 0.477604 -0.103119
N30   N     N_2   0.465120 0.560391 0.375622 -0.062589
N31   N     N_2   0.240803 0.739985 0.192868 -0.076405
N32   N     N_2   0.203700 0.247497 0.175328 -0.086287
N33   N     N_2   0.721334 0.248406 0.182373 -0.070770
N34   N     N_R   0.892450 0.396420 0.942190 -0.055389
N35   N     N_2   0.740063 0.758020 0.194306 -0.078243
N36   N     N_2   0.696648 0.068476 0.569667 -0.088661
N37   N     N_2   0.725326 0.954319 0.599331 -0.084866
N38   N     N_2   0.202063 0.564748 0.569217 -0.090472
N39   N     N_2   0.221004 0.450290 0.596218 -0.081077
N40   N     N_R   0.450490 0.896000 0.057360 -0.065640
N41   N     N_R   0.450490 0.104000 0.057360 -0.061869
N42   N     N_R   0.950490 0.396000 0.057360 -0.065547
N43   N     N_R   0.950490 0.604000 0.057360 -0.062702
N44   N     N_R   0.525490 0.028390 0.207550 -0.041831
Ni1   Ni    Ni4+2 0.433780 0.065390 0.868430 0.265963
Ni2   Ni    Ni4+2 0.433780 0.934610 0.868430 0.292071
Ni3   Ni    Ni4+2 0.933780 0.565390 0.868430 0.280600
Ni4   Ni    Ni4+2 0.933780 0.434610 0.868430 0.287506
Ni5   Ni    Ni4+2 0.565800 0.934190 0.131570 0.220707
Ni6   Ni    Ni4+2 0.565800 0.065810 0.131570 0.234172
Ni7   Ni    Ni4+2 0.065800 0.434190 0.131570 0.228975
Ni8   Ni    Ni4+2 0.065800 0.565810 0.131570 0.225346
O1    O     O_2   0.181406 0.995295 0.493246 -0.174858
O2    O     O_2   0.263283 0.135984 0.244472 -0.197133
O3    O     O_2   0.136867 0.135620 0.049009 -0.261679
O4    O     O_3   0.285472 0.080645 0.118186 -0.542066
O5    O     O_2   0.781086 0.404352 0.107708 -0.283438
O6    O     O_2   0.668058 0.350522 0.108459 -0.185691
O7    O     O_3   0.833925 0.359465 0.290553 -0.449526
O8    O     O_2   0.688126 0.656273 0.133853 -0.200686
O9    O     O_2   0.789844 0.600835 0.115074 -0.280535
O10   O     O_3   0.860862 0.646726 0.302539 -0.461616
O11   O     O_2   0.976556 0.180071 0.042628 -0.157691
O12   O     O_2   0.160888 0.902125 0.525716 -0.288436
O13   O     O_2   0.003534 0.274733 0.082447 -0.381764
O14   O     O_3   0.982724 0.215857 0.208192 -0.562226
O15   O     O_2   0.000416 0.727093 0.058842 -0.388372
O16   O     O_2   0.971868 0.821817 0.018247 -0.152059
O17   O     O_3   0.992320 0.786979 0.193614 -0.526806
O18   O     O_2   0.470732 0.676829 0.012213 -0.156137
O19   O     O_2   0.499878 0.771426 0.053802 -0.387799
O20   O     O_3   0.494215 0.710881 0.189766 -0.547433
O21   O     O_2   0.509370 0.219246 0.119357 -0.382827
O22   O     O_2   0.487504 0.314377 0.088366 -0.152208
O23   O     O_3   0.040218 0.942599 0.330607 -0.401711
O24   O     O_3   0.472251 0.273810 0.234857 -0.550211
O25   O     O_2   0.844135 0.112501 0.941677 -0.208036
O26   O     O_2   0.879485 0.122377 0.125507 -0.235141
O27   O     O_3   0.722843 0.080235 0.967379 -0.574851
O28   O     O_2   0.886782 0.879068 0.116974 -0.221727
O29   O     O_2   0.838661 0.890474 0.927886 -0.206652
O30   O     O_3   0.726353 0.922348 0.968757 -0.575075
O31   O     O_2   0.336300 0.608691 0.921074 -0.207515
O32   O     O_2   0.388960 0.618732 0.112063 -0.238234
O33   O     O_3   0.227088 0.576777 0.966627 -0.572756
O34   O     O_2   0.657521 0.507759 0.462417 -0.184200
O35   O     O_2   0.373819 0.371944 0.144366 -0.205649
O36   O     O_2   0.358511 0.382390 0.971653 -0.210918
O37   O     O_3   0.225128 0.416081 0.974338 -0.577655
O38   O     O_2   0.341262 0.057428 0.546910 -0.246978
O39   O     O_2   0.401012 0.103111 0.457302 -0.331518
O40   O     O_3   0.259237 0.039317 0.342178 -0.351292
O41   O     O_2   0.337719 0.939056 0.550070 -0.215648
O42   O     O_2   0.293702 0.929163 0.364767 -0.121769
O43   O     O_3   0.438612 0.877157 0.521066 -0.605938
O44   O     O_2   0.837771 0.560261 0.547224 -0.258752
O45   O     O_2   0.671080 0.414676 0.525781 -0.300065
O46   O     O_2   0.929866 0.611692 0.505640 -0.350338
O47   O     O_3   0.783454 0.561355 0.346585 -0.385476
O48   O     O_2   0.835585 0.450297 0.555888 -0.225963
O49   O     O_2   0.783440 0.445651 0.366402 -0.118987
O50   O     O_3   0.918789 0.383352 0.509134 -0.613552
O51   O     O_3   0.528007 0.439714 0.327396 -0.473441
O52   O     O_2   0.296516 0.897702 0.121837 -0.299144
O53   O     O_2   0.192313 0.842793 0.136413 -0.176950
O54   O     O_3   0.365123 0.849131 0.306548 -0.462371
S1    S     S_3+6 0.110429 0.953421 0.467386 0.028580
S2    S     S_3+6 0.451782 0.265683 0.111431 -0.024312
S3    S     S_3+6 0.804816 0.126728 0.003466 0.013410
S4    S     S_3+6 0.806369 0.875652 0.996815 0.017164
S5    S     S_3+6 0.306720 0.623130 0.992923 0.009313
S6    S     S_3+6 0.308127 0.368687 0.020681 0.013098
S7    S     S_3+6 0.362327 0.050957 0.464795 0.030969
S8    S     S_3+6 0.375531 0.934197 0.484109 0.021243
S9    S     S_3+6 0.875479 0.560712 0.480684 0.002723
S10   S     S_3+6 0.868227 0.444188 0.484733 0.021820
S11   S     S_3+6 0.604314 0.459850 0.458856 0.014416
S12   S     S_3+6 0.289791 0.845958 0.168690 -0.005944
S13   S     S_3+6 0.241136 0.137341 0.131822 -0.031932
S14   S     S_3+6 0.768953 0.353804 0.152998 0.001694
S15   S     S_3+6 0.785205 0.652012 0.165112 -0.013713
S16   S     S_3+6 0.949519 0.227601 0.079592 -0.030389
S17   S     S_3+6 0.949901 0.774744 0.061742 -0.010336
S18   S     S_3+6 0.450107 0.723739 0.057515 -0.017159

loop_
_geom_bond_atom_site_label_1
_geom_bond_atom_site_label_2
_ccdc_geom_bond_type
C118  H115  S    
N41   Ni6   S    
C63   C65   S    
C32   C45   S    
C6    C58   S    
C73   H88   S    
O40   S7    S    
C104  N4    A    
H9    O4    S    
C90   H92   S    
C75   C95   S    
C25   H28   S    
C77   H66   S    
C105  N36   S    
C119  H116  S    
C15   N16   A    
C21   N31   S    
H11   O10   S    
C22   N32   S    
H38   O37   S    
C19   N29   S    
C1    C122  A    
H152  N30   S    
C109  S8    S    
C40   C43   S    
C31   C112  S    
N11   N13   A    
C10   H122  S    
C121  N8    A    
N44   Ni6   S    
C119  N6    A    
C27   H45   S    
C76   H64   S    
C71   C82   S    
C87   S3    S    
O9    S15   D    
C23   H25   S    
C117  H113  S    
C29   H53   S    
C102  H108  S    
C103  H132  S    
C42   C44   S    
C55   N41   A    
C82   C124  S    
C96   C111  S    
C44   C46   S    
C45   C47   S    
C67   C85   S    
C50   C53   S    
C40   C58   S    
H56   O40   S    
C41   H120  S    
C101  N2    A    
C34   C83   S    
C86   C90   S    
C14   C32   A    
C62   H2    S    
O47   S9    S    
C97   H99   S    
O48   S10   D    
C64   C66   S    
C1    N1    A    
N10   Ni2   S    
C52   C58   S    
O53   S12   D    
C21   H15   S    
C50   N29   S    
O14   S16   S    
C39   C47   S    
O19   S18   D    
C92   N20   A    
C69   H84   S    
C49   N28   S    
C84   C88   S    
C40   H109  S    
O6    S14   D    
O11   S16   D    
C35   C84   S    
C28   H51   S    
C47   C52   S    
O22   S2    D    
C83   C91   S    
O2    S13   D    
C24   H136  S    
C108  N39   S    
C62   C68   S    
C90   S6    S    
O25   S3    D    
N26   Ni3   S    
C65   N33   S    
C110  S9    S    
C77   C82   S    
C116  H111  S    
C120  H117  S    
C28   H49   S    
C86   C95   S    
C71   C88   S    
O23   S1    S    
C99   H96   S    
C96   H97   S    
C29   H55   S    
C22   H20   S    
C97   H94   S    
C81   H129  S    
H39   N36   S    
C75   C79   S    
O46   S9    D    
H33   O24   S    
C54   C123  A    
C94   H82   S    
H8    O54   S    
C102  N3    A    
O33   S5    S    
C14   H125  S    
C67   N31   S    
N11   Ni3   S    
C99   C108  S    
C24   C36   A    
C38   C86   S    
C108  C115  S    
C105  C113  S    
C73   C90   S    
H31   O17   S    
C76   H73   S    
C109  C111  S    
C30   C111  S    
C12   N14   A    
C40   C49   S    
C94   H75   S    
C85   C94   S    
C72   C78   S    
C37   C123  A    
C120  N7    A    
N15   Ni6   S    
C71   H85   S    
C98   H100  S    
C39   H98   S    
C77   H74   S    
N2    Ni5   S    
C91   H80   S    
C84   C93   S    
C75   H72   S    
O12   S1    D    
C104  H110  S    
C5    C115  S    
C63   H13   S    
C7    C121  A    
O10   S15   S    
C93   H79   S    
C53   C60   S    
C59   H87   S    
C63   C80   S    
C23   H22   S    
C98   C112  S    
O27   S3    S    
C106  C113  S    
N8    Ni3   S    
C20   H3    S    
O39   S7    D    
O17   S17   S    
C39   C58   S    
C46   C51   S    
H48   N38   S    
C51   C53   S    
C38   C103  A    
C63   S14   S    
C61   C67   S    
C88   S4    S    
C64   C82   S    
C22   H18   S    
C73   C79   S    
C54   N40   A    
C78   C123  S    
C43   C45   S    
O50   S10   S    
C13   C38   A    
C9    C30   A    
C53   S11   S    
H34   O27   S    
C70   H128  S    
C6    C119  A    
C18   H146  S    
C74   H71   S    
O54   S12   S    
C20   N30   S    
C106  H103  S    
N6    Ni1   S    
N3    Ni8   S    
C68   N32   S    
O45   S11   D    
C29   N39   S    
C41   C60   S    
H60   O50   S    
O13   S16   D    
C68   H61   S    
O43   S8    S    
C95   H77   S    
H17   N32   S    
C57   H70   S    
C25   H27   S    
C62   S13   S    
O15   S17   D    
H58   O43   S    
C17   H140  S    
C13   H135  S    
C2    C34   A    
C42   H131  S    
O26   S3    D    
C26   H40   S    
C52   S1    S    
O20   S18   S    
C114  H133  S    
C110  C112  S    
C61   H142  S    
C91   H78   S    
C76   C91   S    
C109  S7    S    
H52   N39   S    
C27   N37   S    
C14   N15   A    
N22   Ni2   S    
N21   N25   A    
O38   S7    D    
C69   S16   S    
N4    Ni7   S    
C92   H130  S    
C83   C87   S    
C96   C105  S    
C26   H41   S    
C74   C94   S    
C20   H5    S    
N23   N43   A    
O44   S9    D    
C48   H76   S    
C44   H138  S    
C97   C111  S    
O28   S4    D    
C19   H150  S    
N34   Ni4   S    
C96   H93   S    
N14   N15   A    
N7    Ni4   S    
C67   H57   S    
C109  C116  S    
C10   C31   A    
C25   N35   S    
C115  C117  S    
O32   S5    D    
C26   N36   S    
N3    N4    A    
C28   N38   S    
C9    H121  S    
C34   C70   A    
C69   C87   S    
N16   Ni7   S    
C65   H35   S    
C27   H44   S    
N21   Ni7   S    
C24   N26   A    
O29   S4    D    
C36   C92   A    
C98   H95   S    
C33   C46   S    
C21   H14   S    
C3    C80   S    
C110  C117  S    
H6    O23   S    
C16   H127  S    
C95   H83   S    
C79   C122  S    
C25   H29   S    
C76   C80   S    
H148  N29   S    
C118  N5    A    
C43   H137  S    
C85   C89   S    
O34   S11   D    
C8    H119  S    
C12   H124  S    
C23   H23   S    
C98   C107  S    
N20   N26   A    
N9    N10   A    
C51   N30   S    
C4    C113  S    
C110  S10   S    
C45   C49   S    
C49   C52   S    
C4    C101  A    
C116  H112  S    
N25   Ni4   S    
N19   Ni5   S    
N14   Ni5   S    
C99   H101  S    
N9    Ni1   S    
C8    N9    A    
C117  H114  S    
C29   H54   S    
C41   C44   S    
C61   S12   S    
C41   C50   S    
H37   O33   S    
C103  N21   A    
C5    C102  A    
N20   Ni8   S    
C7    C120  A    
C75   H63   S    
O30   S4    S    
C2    N24   A    
O35   S6    D    
C59   N34   A    
C15   H126  S    
C36   C85   S    
O51   S11   S    
C8    C30   A    
C55   H68   S    
C100  H106  S    
H32   O20   S    
C57   C124  A    
C77   C93   S    
N42   Ni7   S    
O36   S6    D    
H21   N33   S    
C11   N13   A    
C74   C78   S    
C114  N22   A    
C21   H16   S    
O18   S18   D    
C74   H62   S    
C37   H65   S    
N18   Ni6   S    
H26   N35   S    
C68   C86   S    
C107  N38   S    
O5    S14   D    
H144  N28   S    
C93   H81   S    
C35   C81   A    
C28   H50   S    
H10   O7    S    
C88   H90   S    
C9    N10   A    
O52   S12   D    
N16   N17   A    
C1    H1    S    
C20   H4    S    
C56   N42   A    
C65   C83   S    
O24   S2    S    
C35   C114  A    
C71   S17   S    
C72   S18   S    
C17   H141  S    
C19   H151  S    
C17   N27   S    
C18   N28   S    
C22   H19   S    
C57   N43   A    
C73   S2    S    
O16   S17   D    
N1    N41   A    
C89   S5    S    
C42   C51   S    
C89   H91   S    
C113  C116  S    
O7    S14   S    
C55   C122  A    
C11   C31   A    
H59   O47   S    
C12   C32   A    
C13   N25   A    
N24   Ni1   S    
O37   S6    S    
C37   N12   A    
C18   H147  S    
N19   N22   A    
C108  H105  S    
O42   S8    D    
C121  H118  S    
C72   H86   S    
C54   H67   S    
H43   N37   S    
C62   C79   S    
C42   C60   S    
C39   C43   S    
N34   N42   A    
N5    N6    A    
O1    S1    D    
C66   C84   S    
N12   N40   A    
H139  N27   S    
N18   N24   A    
C16   C33   A    
C3    C56   A    
C61   C78   S    
C107  H104  S    
C87   H89   S    
C101  H107  S    
C105  H102  S    
C107  C115  S    
C100  N44   A    
C2    H134  S    
H7    O51   S    
C7    C60   S    
O41   S8    D    
C4    C100  A    
C64   S15   S    
C97   C106  S    
C48   N23   A    
C27   H47   S    
N7    N8    A    
N12   Ni2   S    
O4    S13   S    
C26   H42   S    
N1    Ni1   S    
C10   N11   A    
C66   H46   S    
C47   N27   S    
N5    Ni2   S    
C48   C124  A    
C66   N35   S    
C46   C50   S    
C16   N17   A    
H30   O14   S    
C11   H123  S    
C81   N19   A    
O21   S2    D    
C17   H143  S    
O3    S13   D    
C72   C89   S    
H12   N31   S    
C19   H149  S    
N40   Ni5   S    
C99   C112  S    
C15   C33   A    
C23   N33   S    
C70   N18   A    
O49   S10   D    
H36   O30   S    
C5    C104  A    
N2    N44   A    
C56   H69   S    
N43   Ni8   S    
C106  N37   S    
N23   Ni3   S    
O8    S15   D    
N17   Ni8   S    
C69   C80   S    
O31   S5    D    
C6    C118  A    
C18   H145  S    
C64   H24   S    
N13   Ni4   S    
C3    C59   A    
