data_mof_unit_53181.cif
_audit_creation_date              2012-12-10T19:04:47-0500
_audit_creation_method            fapswitch 2.2
_symmetry_space_group_name_H-M    P1
_symmetry_Int_Tables_number       1
_space_group_crystal_system       triclinic
_cell_length_a                    15.866142
_cell_length_b                    10.850245
_cell_length_c                    9.561698
_cell_angle_alpha                 90.409533
_cell_angle_beta                  90.718132
_cell_angle_gamma                 90.545697
_cell_volume                      1645.81350668

loop_
_atom_site_label
_atom_site_type_symbol
_atom_type_description
_atom_site_fract_x
_atom_site_fract_y
_atom_site_fract_z
_atom_type_partial_charge
C1    C     C_R   0.498347 0.262399 0.499569 0.796459
C2    C     C_3   0.083108 0.497688 0.496700 0.102153
C3    C     C_3   0.974252 0.589725 0.585845 -0.220768
C4    C     C_3   0.917104 0.497209 0.505474 0.013036
C5    C     C_3   0.027458 0.606927 0.451753 -0.216321
C6    C     C_3   0.969137 0.514244 0.372385 0.186573
C7    C     C_1   0.174780 0.498249 0.494634 -0.039330
C8    C     C_1   0.825306 0.498316 0.506042 -0.074606
C9    C     C_R   0.484141 0.064769 0.623946 0.133526
C10   C     C_R   0.490064 0.129318 0.498531 -0.130001
C11   C     C_R   0.484434 0.063383 0.371527 -0.217255
C12   C     C_R   0.339909 0.499632 0.499025 0.828430
C13   C     C_R   0.484788 0.934807 0.371849 -0.218323
C14   C     C_R   0.490881 0.870957 0.499150 -0.096469
C15   C     C_R   0.485089 0.937620 0.623925 0.087186
C16   C     C_3   0.538954 0.933333 0.752768 -0.486270
C17   C     C_3   0.537953 0.073275 0.753623 -0.028772
C18   C     C_R   0.571426 0.531842 0.075235 0.215829
C19   C     C_R   0.432001 0.459096 0.072590 -0.081966
C20   C     C_R   0.431720 0.460111 0.924148 -0.098542
C21   C     C_R   0.571607 0.528943 0.927688 0.223985
C22   C     C_3   0.619294 0.646395 0.918189 -0.551531
C23   C     C_R   0.498722 0.737742 0.500148 0.789878
C24   C     C_3   0.616246 0.655011 0.077131 -0.083865
C25   C     C_R   0.660110 0.499611 0.501004 0.821407
C26   C     C_3   0.972859 0.388556 0.550775 0.113481
C27   C     C_3   0.025246 0.405672 0.416951 0.168047
C28   C     C_1   0.250282 0.498861 0.496281 -0.193507
C29   C     C_1   0.749785 0.498983 0.503857 -0.192141
C30   C     C_3   0.031050 0.481117 0.630170 0.166913
Cu1   Cu    Cu3+1 0.500000 0.499980 0.640670 0.936152
Cu2   Cu    Cu3+1 0.500000 0.500020 0.359330 0.937066
H1    H     H_    0.602568 0.895614 0.732112 0.171324
H2    H     H_    0.600858 0.116062 0.735422 0.162387
H3    H     H_    0.376569 0.426768 0.126264 0.146623
H4    H     H_    0.376005 0.428409 0.868026 0.150064
H5    H     H_    0.682565 0.631440 0.872750 0.190981
H6    H     H_    0.582021 0.717761 0.865407 0.204658
H7    H     H_    0.574261 0.730385 0.112885 0.180679
H8    H     H_    0.051260 0.696206 0.411404 0.146216
H9    H     H_    0.951583 0.664572 0.655179 0.147934
H10   H     H_    0.483949 0.110507 0.272034 0.167282
H11   H     H_    0.484404 0.886236 0.272490 0.161720
H12   H     H_    0.504698 0.890763 0.841237 0.202883
N1    N     N_R   0.500530 0.500930 0.147930 -0.194229
N2    N     N_R   0.500530 0.500890 0.852020 -0.180974
O1    O     O_R   0.500000 0.319640 0.618810 -0.581531
O2    O     O_R   0.500010 0.319680 0.381230 -0.582454
O3    O     O_R   0.379070 0.499970 0.618770 -0.582537
O4    O     O_R   0.379080 0.500010 0.381190 -0.581701
O5    O     O_R   0.499990 0.680320 0.618770 -0.574082
O6    O     O_R   0.500000 0.680360 0.381190 -0.588248
O7    O     O_R   0.620920 0.499990 0.618810 -0.575369
O8    O     O_R   0.620930 0.500030 0.381230 -0.575914
C31   C     C_3   0.056840 0.303945 0.321000 -0.880291
H13   H     H_    0.002709 0.248131 0.280732 0.232545
H14   H     H_    0.091277 0.344512 0.232125 0.231954
H15   H     H_    0.101129 0.244190 0.379284 0.233571
C32   C     C_3   0.491933 0.127491 0.879277 -0.829918
H16   H     H_    0.527861 0.107481 0.976781 0.225932
H17   H     H_    0.487728 0.228627 0.868495 0.255384
H18   H     H_    0.427215 0.088320 0.888011 0.232800
C33   C     C_3   0.704539 0.655741 0.147683 -0.339973
C34   C     C_3   0.710342 0.751834 0.265187 -0.834802
H19   H     H_    0.700750 0.845582 0.222201 0.243570
H20   H     H_    0.662094 0.734039 0.345464 0.263254
H21   H     H_    0.773471 0.748975 0.316260 0.230469
H22   H     H_    0.720220 0.563412 0.189410 0.214059
H23   H     H_    0.754261 0.679437 0.071281 0.197954
C35   C     C_3   0.933401 0.270059 0.608460 -0.394474
C36   C     C_3   0.997784 0.169834 0.638371 -0.847665
H24   H     H_    0.024142 0.133675 0.539713 0.255951
H25   H     H_    0.049547 0.204890 0.706931 0.245064
H26   H     H_    0.966206 0.092069 0.692224 0.238447
H27   H     H_    0.900172 0.293007 0.706715 0.198812
H28   H     H_    0.886040 0.233852 0.531700 0.205078
C37   C     C_3   0.927995 0.535106 0.229136 -0.401520
C38   C     C_3   0.991238 0.578297 0.121315 -0.857075
H29   H     H_    0.021399 0.666589 0.154841 0.251200
H30   H     H_    0.040428 0.507978 0.106014 0.260981
H31   H     H_    0.957922 0.593272 0.020154 0.242921
H32   H     H_    0.896944 0.448315 0.192588 0.200187
H33   H     H_    0.879183 0.606772 0.239853 0.207192
C39   C     C_3   0.069411 0.464090 0.776299 -0.405991
C40   C     C_3   0.114761 0.580816 0.828357 -0.840665
H34   H     H_    0.164747 0.609145 0.754841 0.262409
H35   H     H_    0.069426 0.657386 0.840039 0.249368
H36   H     H_    0.144992 0.563180 0.931480 0.240579
H37   H     H_    0.018550 0.439090 0.849785 0.204972
H38   H     H_    0.115460 0.387832 0.773299 0.201557

loop_
_geom_bond_atom_site_label_1
_geom_bond_atom_site_label_2
_ccdc_geom_bond_type
C31   H13   S    
C18   C21   A    
Cu2   N1    S    
C2    C7    S    
C4    C8    S    
C12   O3    A    
C37   C38   S    
C26   C27   S    
C12   C28   S    
C18   C24   S    
C8    C29   T    
C25   O7    A    
C5    C6    S    
C38   H30   S    
C37   H33   S    
C15   C16   S    
C22   H6    S    
C24   H7    S    
C11   H10   S    
Cu2   O6    S    
C39   C40   S    
C33   H23   S    
C12   O4    A    
Cu1   N2    S    
C35   C36   S    
C9    C10   A    
C16   H12   S    
C32   H16   S    
Cu1   O1    S    
C13   C14   A    
Cu2   O2    S    
C39   H38   S    
Cu1   O3    S    
Cu2   O8    S    
C40   H35   S    
C25   C29   S    
C32   H17   S    
C34   H21   S    
C25   O8    A    
C4    C6    S    
C36   H25   S    
C38   H29   S    
C1    O1    A    
C6    C37   S    
C40   H34   S    
C22   H5    S    
C7    C28   T    
C34   H20   S    
C14   C23   S    
C3    C30   S    
C16   H1    S    
C23   O5    A    
C6    C27   S    
Cu1   O7    S    
Cu2   O4    S    
C2    C27   S    
C17   C32   S    
C9    C17   S    
C26   C30   S    
C24   C33   S    
C31   H14   S    
C35   H28   S    
C26   C35   S    
C22   C24   S    
C31   H15   S    
C2    C5    S    
C39   H37   S    
C3    C4    S    
C18   N1    A    
C13   H11   S    
C21   N2    A    
C40   H36   S    
C33   H22   S    
C3    H9    S    
C32   H18   S    
Cu1   Cu2   S    
C1    C10   S    
Cu1   O5    S    
C3    C5    S    
C36   H26   S    
C4    C26   S    
C19   N1    A    
C1    O2    A    
C2    C30   S    
C34   H19   S    
C19   C20   A    
C9    C15   A    
C36   H24   S    
C19   H3    S    
C11   C13   A    
C38   H31   S    
C23   O6    A    
C16   C17   S    
C37   H32   S    
C27   C31   S    
C30   C39   S    
C10   C11   A    
C33   C34   S    
C20   H4    S    
C17   H2    S    
C5    H8    S    
C35   H27   S    
C14   C15   A    
C21   C22   S    
C20   N2    A    
