data_mof_unit_44735.cif
_audit_creation_date              2013-03-05T16:13:23-0500
_audit_creation_method            fapswitch 2.2
_symmetry_space_group_name_H-M    P1
_symmetry_Int_Tables_number       1
_space_group_crystal_system       triclinic
_cell_length_a                    10.703769
_cell_length_b                    9.960144
_cell_length_c                    19.18823
_cell_angle_alpha                 90.006251
_cell_angle_beta                  92.433519
_cell_angle_gamma                 89.927056
_cell_volume                      2043.83140352

loop_
_atom_site_label
_atom_site_type_symbol
_atom_site_description
_atom_site_fract_x
_atom_site_fract_y
_atom_site_fract_z
_atom_type_partial_charge
O1    O     O_R   0.316770 0.614620 0.500000 -0.642566
O2    O     O_R   0.683230 0.385380 0.500000 -0.643090
O3    O     O_R   0.683230 0.614620 0.500000 -0.622260
O4    O     O_R   0.316770 0.385380 0.500000 -0.622302
C1    C     C_R   0.872385 0.499928 0.499999 -0.018947
C2    C     C_R   0.127630 0.500093 0.500203 -0.018292
C3    C     C_R   0.260269 0.500054 0.500123 0.952064
C4    C     C_R   0.739738 0.499946 0.499967 0.952348
O5    O     O_R   0.500030 0.614710 0.398180 -0.598060
O6    O     O_R   0.499970 0.385290 0.601820 -0.598314
O7    O     O_R   0.499970 0.614710 0.601820 -0.641617
O8    O     O_R   0.500030 0.385290 0.398180 -0.642205
C5    C     C_R   0.500691 0.499997 0.366304 1.018955
C6    C     C_R   0.499102 0.499998 0.633690 1.017366
Zn1   Zn    Zn3+2 0.500000 0.653120 0.500000 1.014942
Zn2   Zn    Zn3+2 0.500000 0.346880 0.500000 1.014952
C7    C     C_R   0.065242 0.380753 0.514522 -0.062044
C8    C     C_R   0.934780 0.619282 0.485714 -0.062800
C9    C     C_R   0.937266 0.380686 0.514447 -0.101226
C10   C     C_R   0.062750 0.619351 0.485795 -0.098975
H1    H     H_    0.114923 0.288038 0.526170 0.204165
H2    H     H_    0.885106 0.711995 0.474050 0.203504
H3    H     H_    0.889618 0.287976 0.526100 0.204201
H4    H     H_    0.110390 0.712062 0.474134 0.204415
C11   C     C_R   0.385308 0.472752 0.741220 0.187545
C12   C     C_R   0.611619 0.524274 0.257549 0.186233
C13   C     C_R   0.389503 0.462436 0.253488 0.180398
C14   C     C_R   0.605855 0.540754 0.747525 0.180257
C15   C     C_R   0.381027 0.483526 0.813779 0.217764
C16   C     C_R   0.613047 0.513722 0.184870 0.217280
C17   C     C_R   0.390551 0.452325 0.180780 0.218360
C18   C     C_R   0.602022 0.550830 0.820147 0.218304
C19   C     C_R   0.489695 0.521829 0.852728 -0.252029
C20   C     C_R   0.502289 0.478329 0.147017 -0.252422
C21   C     C_R   0.588069 0.070870 0.538901 0.410597
C22   C     C_R   0.411926 0.929130 0.461102 0.409464
C23   C     C_R   0.411893 0.071112 0.461125 0.407752
C24   C     C_R   0.588102 0.928889 0.538878 0.407140
C25   C     C_R   0.497819 0.500478 0.708793 -0.332459
C26   C     C_R   0.499707 0.499530 0.291150 -0.332444
C27   C     C_R   0.464641 0.623417 0.968427 -0.001242
C28   C     C_R   0.524601 0.376118 0.031262 -0.001753
C29   C     C_R   0.468210 0.612137 0.040493 -0.105610
C30   C     C_R   0.521150 0.387428 0.959206 -0.105787
H5    H     H_    0.441634 0.718897 0.944047 0.175677
H6    H     H_    0.547778 0.280680 0.055643 0.175356
H7    H     H_    0.447825 0.699001 0.072072 0.171470
H8    H     H_    0.541824 0.300635 0.927638 0.171555
N1    N     N_R   0.500000 0.857200 0.500000 -0.277491
N2    N     N_R   0.500000 0.142800 0.500000 -0.277040
C31   C     C_R   0.498403 0.488645 0.071622 0.166876
C32   C     C_R   0.491452 0.511051 0.928082 0.166517
O9    O     O_3   0.678936 0.132806 0.580260 -0.662759
H9    H     H_    0.654578 0.226636 0.586839 0.388464
O10   O     O_3   0.321054 0.867194 0.419747 -0.662336
H10   H     H_    0.345423 0.773371 0.413164 0.389342
O11   O     O_3   0.320840 0.133315 0.419906 -0.646548
H11   H     H_    0.345492 0.226904 0.413049 0.389897
O12   O     O_3   0.679154 0.866688 0.580098 -0.645880
H12   H     H_    0.654509 0.773095 0.586947 0.390397
N3    N     N_R   0.273895 0.440288 0.700280 0.224502
O13   O     O_R   0.270480 0.334103 0.660784 -0.354357
O14   O     O_R   0.172767 0.511185 0.706414 -0.277980
N4    N     N_R   0.725076 0.553718 0.297351 0.225718
O15   O     O_R   0.824939 0.481787 0.289123 -0.271974
O16   O     O_R   0.731271 0.657655 0.338393 -0.356726
N5    N     N_R   0.277136 0.433408 0.289122 0.236466
O17   O     O_R   0.215404 0.323272 0.275748 -0.255591
O18   O     O_R   0.234280 0.518690 0.333601 -0.379392
N6    N     N_R   0.718812 0.572891 0.713095 0.237790
O19   O     O_R   0.778195 0.684021 0.727588 -0.253938
O20   O     O_R   0.764204 0.489855 0.668314 -0.377616
N7    N     N_R   0.268532 0.448772 0.848088 0.258699
O21   O     O_R   0.223656 0.528331 0.894659 -0.282727
O22   O     O_R   0.209294 0.338293 0.831995 -0.246677
N8    N     N_R   0.724827 0.546206 0.149353 0.259082
O23   O     O_R   0.785989 0.655920 0.164554 -0.245408
O24   O     O_R   0.767436 0.465070 0.102804 -0.284131
N9    N     N_R   0.276583 0.424322 0.141016 0.256798
O25   O     O_R   0.273031 0.330114 0.094011 -0.304093
O26   O     O_R   0.175491 0.492357 0.152148 -0.221967
N10   N     N_R   0.714056 0.581558 0.861066 0.256948
O27   O     O_R   0.816695 0.515169 0.851473 -0.222424
O28   O     O_R   0.714464 0.677085 0.907313 -0.306061

loop_
_geom_bond_atom_site_label_1
_geom_bond_atom_site_label_2
_geom_bond_distance
_ccdc_geom_bond_type
O10   H10   0.979506 S    
C21   O9    1.375584 S    
N7    O22   1.301284 A    
N7    O21   1.300957 A    
C12   C26   1.406308 A    
C24   N1    1.377499 A    
O9    H9    0.979517 S    
C19   C32   1.449210 S    
C20   C31   1.449175 S    
C22   C23   1.414161 A    
N8    O24   1.300914 A    
O7    C6    1.296199 A    
C15   N7    1.439293 S    
C15   C19   1.408651 A    
C28   H6    1.083346 S    
N3    O14   1.301179 A    
C12   N4    1.437421 S    
C5    C26   1.441680 S    
O5    C5    1.296066 A    
C6    C25   1.441744 S    
O7    Zn1   1.990904 S    
C10   H4    1.083388 S    
N6    O19   1.301238 A    
O1    Zn1   1.998868 S    
O2    Zn2   1.998867 S    
C27   C32   1.397177 A    
C28   C31   1.397140 A    
C30   C32   1.398880 A    
O12   H12   0.979514 S    
O1    C3    1.292174 A    
C27   C29   1.386285 A    
C28   C30   1.386149 A    
O4    C3    1.291772 A    
C11   C15   1.399076 A    
O2    C4    1.292175 A    
C16   C20   1.408972 A    
C13   C17   1.399282 A    
N5    O17   1.301225 A    
O8    Zn2   1.990904 S    
C14   C18   1.399433 A    
C21   C24   1.414158 A    
N8    O23   1.301278 A    
O3    C4    1.291770 A    
O6    C6    1.296028 A    
N9    O26   1.301317 A    
C1    C8    1.397135 A    
C14   C25   1.406640 A    
C7    H1    1.083610 S    
N9    O25   1.300926 A    
N5    O18   1.300939 A    
N4    O16   1.300707 A    
O4    Zn2   1.997910 S    
C9    H3    1.083384 S    
C16   N8    1.439078 S    
C13   C26   1.406716 A    
C21   N2    1.377578 A    
C17   C20   1.408500 A    
C11   N3    1.437077 S    
C12   C16   1.399256 A    
N10   O28   1.300875 A    
O3    Zn1   1.997909 S    
C2    C7    1.397133 A    
C8    H2    1.083618 S    
C14   N6    1.438617 S    
Zn2   N2    2.032666 S    
C1    C4    1.419803 S    
C17   N9    1.438702 S    
C2    C3    1.419803 S    
C1    C9    1.396901 A    
C18   N10   1.438440 S    
C18   C19   1.408766 A    
O5    Zn1   1.990822 S    
C22   O10   1.375577 S    
O6    Zn2   1.990821 S    
N4    O15   1.301204 A    
C23   N2    1.377495 A    
C29   C31   1.398892 A    
O11   H11   0.979521 S    
C2    C10   1.396894 A    
C7    C9    1.369766 A    
C8    C10   1.369698 A    
Zn1   N1    2.032666 S    
N3    O13   1.300683 A    
C23   O11   1.375636 S    
C13   N5    1.438215 S    
C24   O12   1.375630 S    
O8    C5    1.296149 A    
N10   O27   1.301300 A    
C27   H5    1.083339 S    
N6    O20   1.301036 A    
C29   H7    1.083488 S    
C11   C25   1.406505 A    
C22   N1    1.377583 A    
C30   H8    1.083492 S    
