data_mof_unit_40936.cif
_audit_creation_date              2012-12-10T17:21:19-0500
_audit_creation_method            fapswitch 2.2
_symmetry_space_group_name_H-M    P1
_symmetry_Int_Tables_number       1
_space_group_crystal_system       triclinic
_cell_length_a                    9.650932
_cell_length_b                    10.87534
_cell_length_c                    13.873928
_cell_angle_alpha                 94.95291
_cell_angle_beta                  83.99387
_cell_angle_gamma                 88.191759
_cell_volume                      1441.55623859

loop_
_atom_site_label
_atom_site_type_symbol
_atom_type_description
_atom_site_fract_x
_atom_site_fract_y
_atom_site_fract_z
_atom_type_partial_charge
C1    C     C_R   0.497832 0.737505 0.494634 0.825131
C2    C     C_1   0.461532 0.499732 0.786437 -0.127113
C3    C     C_R   0.231981 0.900226 0.537478 -0.124292
C4    C     C_R   0.121010 0.970730 0.589248 -0.200102
C5    C     C_R   0.141854 0.089988 0.629738 0.444943
C6    C     C_R   0.271414 0.140589 0.610026 -0.129867
C7    C     C_R   0.381210 0.073264 0.550368 0.017030
C8    C     C_R   0.368296 0.946075 0.525431 0.053856
C9    C     C_R   0.490971 0.872473 0.487244 -0.217643
C10   C     C_R   0.612513 0.932273 0.452101 0.431005
C11   C     C_R   0.615611 0.059928 0.465639 -0.224109
C12   C     C_R   0.476489 0.500561 0.682926 0.779901
C13   C     C_R   0.501694 0.130643 0.512823 -0.154193
C14   C     C_R   0.891830 0.320950 0.365276 0.384177
C15   C     C_R   0.985692 0.235968 0.308039 -0.323097
C16   C     C_R   0.126132 0.240753 0.311537 0.384099
C17   C     C_R   0.176215 0.331408 0.372051 -0.196490
C18   C     C_R   0.089331 0.416293 0.436092 0.029277
C19   C     C_R   0.939838 0.414045 0.434926 0.148017
C20   C     C_R   0.912586 0.577392 0.561758 0.053559
C21   C     C_R   0.058807 0.577935 0.562841 0.471887
C22   C     C_R   0.500743 0.263727 0.506135 0.837815
C23   C     C_R   0.523420 0.499442 0.317081 0.873235
C24   C     C_1   0.538247 0.498674 0.213504 -0.081353
C25   C     C_2   0.557660 0.497833 0.022379 -0.138241
C26   C     C_2   0.441928 0.498063 0.977437 -0.129117
C27   C     C_1   0.451291 0.498916 0.873511 0.032722
C28   C     C_1   0.548347 0.498144 0.126361 0.067348
Cu1   Cu    Cu3+1 0.359340 0.500010 0.500010 0.962978
Cu2   Cu    Cu3+1 0.640660 0.499990 0.499990 1.046207
H1    H     H_    0.339634 0.498038 0.018456 0.176606
H2    H     H_    0.948191 0.166062 0.257936 0.230601
H3    H     H_    0.285852 0.329501 0.365264 0.237540
H4    H     H_    0.659944 0.497959 0.981371 0.169473
H5    H     H_    0.204273 0.814292 0.501863 0.213413
H6    H     H_    0.018889 0.931961 0.597717 0.178809
H7    H     H_    0.284924 0.233300 0.641738 0.172338
H8    H     H_    0.706769 0.105125 0.436157 0.216938
H9    H     H_    0.846694 0.641071 0.612356 0.155593
N1    N     N_R   0.852210 0.498790 0.499090 -0.207487
N2    N     N_R   0.148080 0.498710 0.499060 -0.231944
O1    O     O_R   0.381190 0.680360 0.500010 -0.629641
O2    O     O_R   0.618760 0.680340 0.500000 -0.517981
O3    O     O_R   0.364420 0.499990 0.637850 -0.591134
O4    O     O_R   0.601990 0.499960 0.637840 -0.583964
O5    O     O_R   0.381240 0.319660 0.500000 -0.606097
O6    O     O_R   0.618810 0.319640 0.499990 -0.528889
O7    O     O_R   0.398010 0.500040 0.362160 -0.607251
O8    O     O_R   0.635580 0.500010 0.362150 -0.475991
O9    O     O_3   0.755401 0.310376 0.349564 -0.684199
H10   H     H_    0.742122 0.245656 0.296718 0.325670
S1    S     S_3+6 0.242612 0.133825 0.238685 0.011598
O10   O     O_2   0.339466 0.202793 0.172656 -0.288901
O11   O     O_2   0.326625 0.065094 0.303647 -0.286764
O12   O     O_3   0.155490 0.032850 0.171429 -0.525273
H11   H     H_    0.228222 0.973986 0.136815 0.384426
O13   O     O_3   0.105595 0.660224 0.631884 -0.759671
H12   H     H_    0.207501 0.657409 0.623835 0.374210
S2    S     S_3+6 0.758099 0.854872 0.380423 0.013831
O14   O     O_2   0.857267 0.807061 0.446386 -0.323855
O15   O     O_2   0.711187 0.749350 0.316156 -0.279836
O16   O     O_3   0.841760 0.953246 0.309758 -0.540952
H13   H     H_    0.928496 0.907469 0.280484 0.401188
O17   O     O_3   0.036676 0.161145 0.685011 -0.717168
H14   H     H_    0.951563 0.112382 0.691210 0.327195

loop_
_geom_bond_atom_site_label_1
_geom_bond_atom_site_label_2
_ccdc_geom_bond_type
C11   H8    S    
C23   C24   S    
C4    H6    S    
C21   O13   S    
Cu1   Cu2   S    
C12   O4    A    
Cu1   O1    S    
C18   C19   A    
C9    C10   A    
C25   H4    S    
Cu2   O4    S    
S1    O12   S    
C3    H5    S    
Cu1   O5    S    
O12   H11   S    
C2    C12   S    
O17   H14   S    
O16   H13   S    
C7    C13   A    
C22   O6    A    
C26   C27   S    
C6    H7    S    
Cu2   N1    S    
S2    O14   D    
C12   O3    A    
C14   O9    S    
S1    O10   D    
C25   C28   S    
C11   C13   A    
O13   H12   S    
C2    C27   T    
C17   H3    S    
C21   N2    A    
C4    C5    A    
C22   O5    A    
Cu2   O8    S    
S1    O11   D    
C13   C22   S    
O9    H10   S    
C6    C7    A    
Cu1   O3    S    
C26   H1    S    
C5    C6    A    
C20   N1    A    
Cu2   O2    S    
S2    O15   D    
C23   O8    A    
C19   N1    A    
Cu1   O7    S    
C15   C16   A    
C16   S1    S    
Cu2   O6    S    
C7    C8    A    
C1    O1    A    
C1    C9    S    
C20   C21   A    
C17   C18   A    
C3    C8    A    
C10   C11   A    
C18   N2    A    
C20   H9    S    
C14   C15   A    
C16   C17   A    
S2    O16   S    
C23   O7    A    
Cu1   N2    S    
C25   C26   D    
C10   S2    S    
C14   C19   A    
C1    O2    A    
C3    C4    A    
C24   C28   T    
C5    O17   S    
C8    C9    A    
C15   H2    S    
