data_mof_unit_39259.cif
_audit_creation_date              2012-12-10T17:27:00-0500
_audit_creation_method            fapswitch 2.2
_symmetry_space_group_name_H-M    P1
_symmetry_Int_Tables_number       1
_space_group_crystal_system       triclinic
_cell_length_a                    17.742612
_cell_length_b                    18.766078
_cell_length_c                    12.129082
_cell_angle_alpha                 90.2259
_cell_angle_beta                  83.332708
_cell_angle_gamma                 90.382278
_cell_volume                      4011.06830727

loop_
_atom_site_label
_atom_site_type_symbol
_atom_type_description
_atom_site_fract_x
_atom_site_fract_y
_atom_site_fract_z
_atom_type_partial_charge
C1    C     C_R   0.399763 0.100056 0.523470 0.930742
C2    C     C_R   0.533166 0.015057 0.016601 -0.091343
C3    C     C_R   0.966833 0.484936 0.983398 -0.094899
C4    C     C_R   0.033186 0.515016 0.016599 -0.091354
C5    C     C_R   0.582696 0.029945 0.822241 0.050274
C6    C     C_R   0.417360 0.969948 0.177750 0.052733
C7    C     C_R   0.082735 0.529865 0.822236 0.050212
C8    C     C_R   0.917318 0.470035 0.177755 0.052610
C9    C     C_R   0.588606 0.041976 0.933796 -0.133327
C10   C     C_R   0.411519 0.957815 0.066201 -0.135903
C11   C     C_R   0.088667 0.541868 0.933789 -0.133287
C12   C     C_R   0.600144 0.899849 0.476571 0.924826
C13   C     C_R   0.911451 0.457934 0.066207 -0.135799
C14   C     C_R   0.457455 0.983595 0.868540 0.562168
C15   C     C_R   0.542572 0.016333 0.131455 0.562805
C16   C     C_R   0.957436 0.483650 0.868539 0.562217
C17   C     C_R   0.042590 0.516281 0.131455 0.562853
C18   C     C_R   0.648859 0.161961 0.461723 -0.211898
C19   C     C_R   0.351410 0.837880 0.538160 -0.199994
C20   C     C_R   0.343815 0.156300 0.540573 -0.190735
C21   C     C_R   0.655903 0.843424 0.459680 -0.198901
C22   C     C_R   0.148875 0.661952 0.461721 -0.211912
C23   C     C_R   0.596189 0.103105 0.477835 0.913067
C24   C     C_R   0.851388 0.337892 0.538168 -0.200024
C25   C     C_R   0.843816 0.656303 0.540569 -0.190735
C26   C     C_R   0.155907 0.343425 0.459676 -0.198799
C27   C     C_R   0.330353 0.712440 0.566237 -0.196087
C28   C     C_R   0.670231 0.287284 0.432879 -0.192926
C29   C     C_R   0.695214 0.729460 0.382113 -0.209264
C30   C     C_R   0.303817 0.269850 0.619005 -0.224227
C31   C     C_R   0.830325 0.212455 0.566268 -0.196235
C32   C     C_R   0.170251 0.787274 0.432873 -0.193017
C33   C     C_R   0.195204 0.229449 0.382129 -0.209389
C34   C     C_R   0.403938 0.896818 0.522129 0.909250
C35   C     C_R   0.803817 0.769852 0.619004 -0.224323
C36   C     C_R   0.373855 0.772374 0.580777 0.370259
C37   C     C_R   0.626590 0.227407 0.418687 0.408477
C38   C     C_R   0.650030 0.789011 0.379365 0.419559
C39   C     C_R   0.349661 0.210711 0.620904 0.420284
C40   C     C_R   0.873816 0.272393 0.580827 0.370331
C41   C     C_R   0.126618 0.727394 0.418663 0.408376
C42   C     C_R   0.150021 0.289002 0.379380 0.419552
C43   C     C_R   0.849667 0.710717 0.620894 0.420218
C44   C     C_R   0.282299 0.844287 0.493016 -0.078420
C45   C     C_R   0.899763 0.600056 0.523470 0.930831
C46   C     C_R   0.718000 0.155504 0.506788 -0.082733
C47   C     C_R   0.711682 0.839644 0.533730 -0.089587
C48   C     C_R   0.287703 0.159829 0.467016 -0.092185
C49   C     C_R   0.782287 0.344295 0.493000 -0.078322
C50   C     C_R   0.218010 0.655495 0.506802 -0.082741
C51   C     C_R   0.211690 0.339646 0.533719 -0.089555
C52   C     C_R   0.787710 0.659836 0.467002 -0.092175
C53   C     C_R   0.237985 0.783182 0.481412 0.061177
C54   C     C_R   0.762457 0.216565 0.518061 0.063695
C55   C     C_R   0.753959 0.777531 0.538322 0.063954
C56   C     C_R   0.100147 0.399851 0.476569 0.924956
C57   C     C_R   0.245161 0.221816 0.462705 0.067196
C58   C     C_R   0.737971 0.283191 0.481404 0.061147
C59   C     C_R   0.262472 0.716555 0.518063 0.063685
C60   C     C_R   0.253962 0.277529 0.538319 0.063991
C61   C     C_R   0.745166 0.721822 0.462696 0.067252
C62   C     C_2   0.742202 0.083849 0.540436 0.424200
C63   C     C_2   0.257914 0.915965 0.459750 0.413965
C64   C     C_2   0.269482 0.097490 0.399104 0.436616
C65   C     C_2   0.730139 0.902020 0.601429 0.431522
C66   C     C_2   0.242202 0.583842 0.540471 0.424219
C67   C     C_R   0.096197 0.603100 0.477833 0.913132
C68   C     C_2   0.757910 0.415971 0.459721 0.413890
C69   C     C_2   0.769512 0.597509 0.399050 0.436642
C70   C     C_2   0.230152 0.402021 0.601413 0.431405
C71   C     C_R   0.903928 0.396825 0.522132 0.909392
C72   C     C_R   0.466855 0.984892 0.983397 -0.094924
H1    H     H_    0.372832 0.951389 0.239281 0.210807
H2    H     H_    0.649053 0.337605 0.407859 0.214534
H3    H     H_    0.690143 0.688177 0.321173 0.201568
H4    H     H_    0.308382 0.310838 0.680592 0.205967
H5    H     H_    0.636681 0.073233 0.952924 0.231254
H6    H     H_    0.363653 0.926259 0.047096 0.233090
H7    H     H_    0.136793 0.573055 0.952908 0.231308
H8    H     H_    0.863522 0.426465 0.047111 0.233154
H9    H     H_    0.716288 0.012403 0.284577 0.360346
H10   H     H_    0.283966 0.987291 0.715194 0.360660
H11   H     H_    0.216308 0.512410 0.284621 0.360350
H12   H     H_    0.627272 0.048412 0.760699 0.208936
H13   H     H_    0.783895 0.487396 0.715245 0.360729
H14   H     H_    0.740073 0.039623 0.483150 0.016668
H15   H     H_    0.259602 0.960018 0.517455 0.015237
H16   H     H_    0.224428 0.061558 0.431398 0.088699
H17   H     H_    0.775029 0.938012 0.568761 0.079118
H18   H     H_    0.240047 0.539606 0.483209 0.016638
H19   H     H_    0.759610 0.460027 0.517418 0.015303
H20   H     H_    0.724504 0.561533 0.431350 0.088684
H21   H     H_    0.275056 0.438001 0.568752 0.079151
H22   H     H_    0.523828 0.353986 0.334269 0.369543
H23   H     H_    0.872764 0.451529 0.239293 0.210814
H24   H     H_    0.410298 0.693229 0.780436 0.378804
H25   H     H_    0.439201 0.322542 0.744722 0.366014
H26   H     H_    0.634169 0.719211 0.146084 0.383152
H27   H     H_    0.023810 0.853958 0.334383 0.369493
H28   H     H_    0.910302 0.193051 0.780354 0.378791
H29   H     H_    0.939227 0.822564 0.744647 0.365982
H30   H     H_    0.134118 0.219176 0.146131 0.383151
H31   H     H_    0.127333 0.548284 0.760688 0.208969
H32   H     H_    0.851764 0.162093 0.590831 0.230675
H33   H     H_    0.149078 0.837593 0.407839 0.214551
H34   H     H_    0.190129 0.188162 0.321198 0.201528
H35   H     H_    0.808382 0.810840 0.680592 0.205983
H36   H     H_    0.351802 0.662074 0.590772 0.230715
N1    N     N_R   0.480750 0.000000 0.209750 -0.157026
N2    N     N_R   0.519250 0.000000 0.790250 -0.155820
N3    N     N_R   0.980750 0.500000 0.209750 -0.157066
N4    N     N_R   0.019250 0.500000 0.790250 -0.155871
O1    O     O_R   0.418020 0.076820 0.422210 -0.574206
O2    O     O_R   0.569630 0.923170 0.391410 -0.522407
O3    O     O_R   0.569630 0.076830 0.391410 -0.530321
O4    O     O_R   0.430370 0.923170 0.608590 -0.528828
O5    O     O_R   0.930370 0.576830 0.608590 -0.522677
O6    O     O_R   0.069630 0.423170 0.391410 -0.522395
O7    O     O_R   0.069630 0.576830 0.391410 -0.530320
O8    O     O_R   0.930370 0.423170 0.608590 -0.528790
O9    O     O_2   0.692967 0.997993 0.074938 -0.267043
O10   O     O_2   0.653025 0.110262 0.164569 -0.270273
O11   O     O_3   0.662852 0.997441 0.282182 -0.535540
O12   O     O_R   0.581980 0.923180 0.577790 -0.573028
O13   O     O_2   0.348061 0.889008 0.833605 -0.287347
O14   O     O_2   0.306706 0.000330 0.925186 -0.264106
O15   O     O_3   0.337221 0.002661 0.718117 -0.535651
O16   O     O_2   0.192952 0.497756 0.075008 -0.266962
O17   O     O_2   0.153141 0.610147 0.164352 -0.270350
O18   O     O_3   0.162868 0.497450 0.282257 -0.535631
O19   O     O_2   0.847886 0.389159 0.833921 -0.287217
O20   O     O_2   0.806738 0.500660 0.925111 -0.264107
O21   O     O_3   0.837203 0.502646 0.718020 -0.535832
O22   O     O_2   0.759042 0.073075 0.633701 -0.558104
O23   O     O_R   0.581980 0.076820 0.577790 -0.625534
O24   O     O_2   0.241430 0.926970 0.366359 -0.547859
O25   O     O_2   0.300115 0.089931 0.304355 -0.484546
O26   O     O_2   0.699760 0.909631 0.696309 -0.478847
O27   O     O_2   0.259065 0.573081 0.633728 -0.558062
O28   O     O_2   0.741415 0.426970 0.366334 -0.547953
O29   O     O_2   0.800111 0.590008 0.304270 -0.484648
O30   O     O_2   0.199767 0.409641 0.696287 -0.478938
O31   O     O_2   0.526885 0.181645 0.277725 -0.182767
O32   O     O_2   0.476158 0.245942 0.445051 -0.355870
O33   O     O_3   0.548173 0.317355 0.283183 -0.480421
O34   O     O_R   0.418020 0.923180 0.422210 -0.627250
O35   O     O_2   0.523439 0.749861 0.553862 -0.273900
O36   O     O_2   0.476204 0.818858 0.718369 -0.227596
O37   O     O_3   0.450803 0.683411 0.719028 -0.490119
O38   O     O_2   0.395046 0.150675 0.802602 -0.193951
O39   O     O_2   0.494646 0.200781 0.668215 -0.293544
O40   O     O_3   0.410952 0.287471 0.794824 -0.486524
O41   O     O_2   0.505558 0.797935 0.331368 -0.241529
O42   O     O_2   0.604355 0.850641 0.198442 -0.248033
O43   O     O_3   0.590022 0.713209 0.203339 -0.495080
O44   O     O_2   0.027064 0.681647 0.277494 -0.182703
O45   O     O_R   0.918020 0.576820 0.422210 -0.574318
O46   O     O_2   0.976163 0.745783 0.444887 -0.355826
O47   O     O_3   0.048176 0.817376 0.283224 -0.480434
O48   O     O_2   0.023449 0.250150 0.554099 -0.274012
O49   O     O_2   0.975919 0.318857 0.718769 -0.227594
O50   O     O_3   0.950830 0.183360 0.718925 -0.490195
O51   O     O_2   0.895084 0.650702 0.802586 -0.193925
O52   O     O_2   0.994664 0.700796 0.668153 -0.293566
O53   O     O_3   0.910988 0.787497 0.794768 -0.486518
O54   O     O_2   0.005535 0.297913 0.331444 -0.241526
O55   O     O_2   0.104307 0.350611 0.198467 -0.248008
O56   O     O_R   0.081980 0.423180 0.577790 -0.573078
O57   O     O_3   0.089980 0.213179 0.203403 -0.495103
O58   O     O_R   0.081980 0.576820 0.577790 -0.625510
O59   O     O_R   0.918020 0.423180 0.422210 -0.627239
O60   O     O_R   0.430370 0.076830 0.608590 -0.522705
S1    S     S_3+6 0.638414 0.031298 0.164411 0.090491
S2    S     S_3+6 0.958489 0.258711 0.643637 0.085314
S3    S     S_3+6 0.914857 0.710634 0.722426 0.095643
S4    S     S_3+6 0.085463 0.289585 0.276991 0.095800
S5    S     S_3+6 0.361776 0.968091 0.835332 0.087948
S6    S     S_3+6 0.138444 0.531195 0.164405 0.090509
S7    S     S_3+6 0.861736 0.468227 0.835351 0.087989
S8    S     S_3+6 0.541891 0.240853 0.355919 0.082372
S9    S     S_3+6 0.458567 0.758653 0.643480 0.085240
S10   S     S_3+6 0.414832 0.210615 0.722463 0.095658
S11   S     S_3+6 0.585494 0.789607 0.276946 0.095798
S12   S     S_3+6 0.041947 0.740819 0.355820 0.082436
Zn1   Zn    Zn3+2 0.491750 0.000000 0.375560 1.129536
Zn2   Zn    Zn3+2 0.508250 0.000000 0.624440 1.129428
Zn3   Zn    Zn3+2 0.991750 0.500000 0.375560 1.129512
Zn4   Zn    Zn3+2 0.008250 0.500000 0.624440 1.129446

loop_
_geom_bond_atom_site_label_1
_geom_bond_atom_site_label_2
_ccdc_geom_bond_type
C17   S6    S    
O12   Zn2   S    
C8    C13   A    
O56   Zn4   S    
C49   C68   S    
H27   O47   S    
C15   N1    A    
O34   Zn1   S    
C28   H2    S    
C25   C43   A    
C53   C59   A    
C48   C57   A    
O38   S10   D    
C31   C40   A    
C65   H17   S    
C62   H14   S    
C26   C42   A    
O2    Zn1   S    
C71   O8    A    
H9    O11   S    
C50   C59   A    
C27   H36   S    
C18   C37   A    
C52   C61   A    
O3    Zn1   S    
O43   S11   S    
C48   C64   S    
C22   C41   A    
C5    N2    A    
C34   O4    A    
O8    Zn4   S    
C68   H19   S    
C7    N4    A    
O52   S3    D    
C52   C69   S    
O18   S6    S    
C43   S3    S    
C44   C53   A    
O57   S4    S    
O9    S1    D    
C21   C38   A    
O32   S8    D    
O60   Zn2   S    
O36   S9    D    
C30   C60   A    
C29   C38   A    
C33   C57   A    
C32   C41   A    
O44   S12   D    
C41   S12   S    
C51   C70   S    
O47   S12   S    
C69   H20   S    
C35   C43   A    
O23   Zn2   S    
C3    C13   A    
C16   S7    S    
C22   C50   A    
O35   S9    D    
H30   O57   S    
C13   H8    S    
O51   S3    D    
C44   C63   S    
C7    H31   S    
O37   S9    S    
C56   O56   A    
C8    H23   S    
C1    O1    A    
C2    C72   A    
C18   C46   A    
O11   S1    S    
C12   O2    A    
C64   O25   D    
C67   O58   A    
C10   H6    S    
C39   S10   S    
C17   N3    A    
C29   C61   A    
C70   O30   D    
C15   S1    S    
C35   C55   A    
C18   C23   S    
O15   S5    S    
O41   S11   D    
C70   H21   S    
C45   O45   A    
H11   O18   S    
C66   H18   S    
C8    N3    A    
C5    H12   S    
O19   S7    D    
O21   S7    S    
C57   C60   A    
N1    Zn1   S    
O4    Zn2   S    
C12   C21   S    
O5    Zn4   S    
C38   S11   S    
C22   C67   S    
C7    C11   A    
C5    C9    A    
C30   H4    S    
C6    H1    S    
C12   O12   A    
O1    Zn1   S    
O42   S11   D    
C46   C54   A    
C9    H5    S    
O31   S8    D    
C4    C11   A    
H29   O53   S    
C2    C15   A    
C50   C66   S    
C20   C48   A    
C11   H7    S    
O50   S2    S    
C65   O26   D    
C46   C62   S    
C32   H33   S    
O13   S5    D    
C6    N1    A    
C71   O59   A    
C68   O28   D    
O16   S6    D    
C4    C17   A    
O40   S10   S    
C3    C4    A    
C25   C45   S    
C32   C53   A    
C19   C44   A    
C16   N4    A    
O39   S10   D    
C47   C55   A    
C54   C58   A    
C45   O5    A    
C24   C49   A    
C14   N2    A    
C37   S8    S    
C33   C42   A    
H26   O43   S    
N2    Zn2   S    
C1    C20   S    
O48   S2    D    
C63   H15   S    
C14   C72   A    
C33   H34   S    
O45   Zn3   S    
O14   S5    D    
C19   C34   S    
C26   C56   S    
N4    Zn4   S    
H28   O50   S    
O6    Zn3   S    
C29   H3    S    
C28   C58   A    
C27   C36   A    
O53   S3    S    
O10   S1    D    
O17   S6    D    
C1    O60   A    
N3    Zn3   S    
O54   S4    D    
C23   O23   A    
C19   C36   A    
C31   H32   S    
C62   O22   D    
C51   C60   A    
C20   C39   A    
C25   C52   A    
C27   C59   A    
C26   C51   A    
C63   O24   D    
C40   S2    S    
O49   S2    D    
C34   O34   A    
C67   O7    A    
C28   C37   A    
H22   O33   S    
H24   O37   S    
C55   C61   A    
O33   S8    S    
C24   C40   A    
H25   O40   S    
C47   C65   S    
C30   C39   A    
C31   C54   A    
C66   O27   D    
O7    Zn3   S    
H10   O15   S    
C14   S5    S    
C35   H35   S    
C6    C10   A    
C49   C58   A    
O20   S7    D    
C23   O3    A    
C56   O6    A    
C69   O29   D    
O58   Zn4   S    
C42   S4    S    
C36   S9    S    
C2    C9    A    
O46   S12   D    
O59   Zn3   S    
C64   H16   S    
C3    C16   A    
C24   C71   S    
H13   O21   S    
O55   S4    D    
C21   C47   A    
C10   C72   A    
