data_mof_unit_26655.cif
_audit_creation_date              2013-03-05T15:46:12-0500
_audit_creation_method            fapswitch 2.2
_symmetry_space_group_name_H-M    P1
_symmetry_Int_Tables_number       1
_space_group_crystal_system       triclinic
_cell_length_a                    10.635594
_cell_length_b                    10.703959
_cell_length_c                    17.162309
_cell_angle_alpha                 80.567702
_cell_angle_beta                  90.043547
_cell_angle_gamma                 120.092485
_cell_volume                      1660.01011344

loop_
_atom_site_label
_atom_site_type_symbol
_atom_site_description
_atom_site_fract_x
_atom_site_fract_y
_atom_site_fract_z
_atom_type_partial_charge
O1    O     O_R   0.521780 0.757110 0.108900 -0.507389
O2    O     O_R   0.275160 0.783810 0.101120 -0.497814
C1    C     C_R   0.223487 0.854590 0.128844 0.552952
O3    O     O_R   0.237900 0.972600 0.090980 -0.495841
O4    O     O_R   0.511190 0.220540 0.061620 -0.501065
C2    C     C_R   0.634052 0.270575 0.090199 0.541160
O5    O     O_R   0.736920 0.257720 0.063840 -0.520507
O6    O     O_R   0.710450 0.984050 0.081720 -0.492908
C3    C     C_R   0.640801 0.858673 0.125491 0.561623
O7    O     O_R   0.524090 0.765520 0.933110 -0.500118
O8    O     O_R   0.277300 0.791600 0.938160 -0.533821
C4    C     C_R   0.213582 0.856752 0.903145 0.550639
O9    O     O_R   0.240210 0.981010 0.915190 -0.437292
O10   O     O_R   0.513330 0.228330 0.898660 -0.490819
C5    C     C_R   0.637335 0.284022 0.860935 0.542474
O11   O     O_R   0.739230 0.266130 0.888050 -0.471158
O12   O     O_R   0.712580 0.991850 0.918770 -0.410345
C6    C     C_R   0.603607 0.892994 0.887945 0.561357
Cr1   Cr    Cr6+3 0.402240 0.783890 0.019450 1.044936
Cr2   Cr    Cr6+3 0.382360 0.097900 0.991800 1.098486
Cr3   Cr    Cr6+3 0.715380 0.118170 0.988700 1.113633
O13   O     O_3   0.499990 0.999980 0.999980 -0.313631
C7    C     C_R   0.557726 0.353553 0.197440 -0.129742
H1    H     H_    0.496534 0.387808 0.157974 0.139815
C8    C     C_R   0.558023 0.368197 0.276255 -0.125810
H2    H     H_    0.502360 0.420652 0.295795 0.147317
C9    C     C_R   0.640309 0.327007 0.327013 0.027595
C10   C     C_R   0.711116 0.259557 0.300595 -0.134836
H3    H     H_    0.773048 0.224955 0.339272 0.136651
C11   C     C_R   0.712872 0.247466 0.222130 -0.128796
H4    H     H_    0.770541 0.196796 0.202706 0.143233
C12   C     C_R   0.640494 0.299035 0.169663 0.033746
C13   C     C_1   0.669139 0.849585 0.205547 -0.041515
C14   C     C_1   0.680178 0.839646 0.274919 -0.041177
C15   C     C_1   0.180936 0.825898 0.211302 -0.030924
C16   C     C_1   0.151028 0.819963 0.279693 -0.029982
C17   C     C_1   0.644149 0.324199 0.778220 0.013750
C18   C     C_1   0.651736 0.346899 0.707704 0.018115
C19   C     C_R   0.513977 0.761087 0.775499 -0.067150
C20   C     C_R   0.516991 0.757335 0.696430 -0.150997
H5    H     H_    0.431416 0.660680 0.676850 0.162764
C21   C     C_R   0.641916 0.857792 0.646705 -0.035826
C22   C     C_R   0.746728 0.985921 0.670318 -0.109667
H6    H     H_    0.840874 0.066705 0.629534 0.166394
C23   C     C_R   0.735189 0.007852 0.747494 0.185104
C24   C     C_R   0.621958 0.888040 0.803689 -0.015523
C25   C     C_R   0.098462 0.902558 0.785652 0.189388
C26   C     C_R   0.095230 0.903973 0.705579 -0.116319
H7    H     H_    0.069794 0.980739 0.670247 0.170426
C27   C     C_R   0.117019 0.804664 0.672133 -0.020885
C28   C     C_R   0.132787 0.696258 0.721353 -0.136748
H8    H     H_    0.139247 0.611775 0.697527 0.175993
C29   C     C_R   0.142343 0.698635 0.802084 -0.161073
H9    H     H_    0.159405 0.618492 0.839654 0.176406
C30   C     C_R   0.138254 0.809895 0.833090 0.004572
O14   O     O_R   0.083770 0.911170 0.376030 -0.503780
O15   O     O_R   0.808770 0.880340 0.383890 -0.501195
C31   C     C_R   0.686492 0.810221 0.357184 0.544791
O16   O     O_R   0.584340 0.689460 0.394160 -0.512575
O17   O     O_R   0.614320 0.443940 0.423590 -0.508156
C32   C     C_R   0.682710 0.387053 0.398419 0.541874
O18   O     O_R   0.805020 0.410040 0.421340 -0.518515
O19   O     O_R   0.049240 0.685450 0.403290 -0.494982
C33   C     C_R   0.103059 0.810294 0.358994 0.553049
O20   O     O_R   0.077520 0.903010 0.551800 -0.524688
O21   O     O_R   0.802980 0.872780 0.546830 -0.510541
C34   C     C_R   0.673486 0.807569 0.580136 0.549602
O22   O     O_R   0.578090 0.681300 0.569920 -0.513283
O23   O     O_R   0.608530 0.436370 0.586530 -0.500910
C35   C     C_R   0.679523 0.384048 0.624642 0.557281
O24   O     O_R   0.798770 0.401880 0.597100 -0.462977
O25   O     O_R   0.043450 0.677890 0.566230 -0.492356
C36   C     C_R   0.090042 0.799122 0.589620 0.550504
Cr4   Cr    Cr6+3 0.936650 0.882420 0.465510 1.030117
Cr5   Cr    Cr6+3 0.605770 0.565620 0.493360 1.040518
Cr6   Cr    Cr6+3 0.921340 0.550490 0.496380 1.059683
O26   O     O_3   0.821250 0.666180 0.485090 -0.263726
C37   C     C_1   0.408455 0.621652 0.824683 0.240660
N1    N     N_1   0.325782 0.509265 0.863476 -0.233136
N2    N     N_R   0.838898 0.150921 0.764244 0.081195
O27   O     O_R   0.916631 0.165347 0.823971 -0.200605
O28   O     O_R   0.886057 0.265390 0.707780 -0.349869
N3    N     N_R   0.070347 0.002972 0.816817 0.100979
O29   O     O_R   0.143397 0.142209 0.785050 -0.283800
O30   O     O_R   0.984063 0.958151 0.881640 -0.284011

loop_
_geom_bond_atom_site_label_1
_geom_bond_atom_site_label_2
_geom_bond_distance
_ccdc_geom_bond_type
C2    C12   1.439632 S    
C18   C35   1.405200 S    
O11   Cr3   2.063400 S    
C15   C16   1.199497 T    
O25   Cr6   1.934128 S    
O4    Cr2   1.935432 S    
C29   H9    1.076663 S    
O22   Cr5   2.060519 S    
O8    Cr1   1.946363 S    
O4    C2    1.272096 A    
C10   H3    1.084000 S    
C11   H4    1.083815 S    
O19   Cr6   1.940616 S    
C5    O11   1.267212 A    
O21   Cr4   1.946350 S    
O20   C36   1.259926 A    
C5    C17   1.405077 S    
C9    C32   1.443943 S    
N3    O29   1.302024 A    
O6    C3    1.260000 A    
Cr4   O26   1.968170 S    
C7    H1    1.083525 S    
O14   C33   1.272462 A    
C35   O24   1.263700 A    
C25   N3    1.428892 S    
C20   C21   1.384959 A    
O21   C34   1.271676 A    
Cr3   O13   1.974825 S    
C3    C13   1.404639 S    
O18   Cr6   2.053365 S    
C32   O18   1.271794 A    
C6    C24   1.472373 S    
C13   C14   1.188853 T    
C29   C30   1.401083 A    
O1    Cr1   2.067264 S    
O14   Cr4   2.065727 S    
C28   H8    1.083159 S    
C19   C37   1.452050 S    
O10   Cr2   1.940723 S    
Cr1   O13   1.969351 S    
O1    C3    1.259457 A    
Cr6   O26   1.986753 S    
N2    O28   1.298923 A    
C27   C36   1.449504 S    
C19   C20   1.365037 A    
C37   N1    1.158114 T    
O25   C36   1.271309 A    
C27   C28   1.400644 A    
C8    H2    1.083299 S    
C23   C24   1.439697 A    
O12   Cr3   1.939320 S    
O20   Cr4   2.063720 S    
C34   O22   1.260625 A    
O17   C32   1.271730 A    
C28   C29   1.392628 A    
O15   Cr4   1.946658 S    
C22   H6    1.083832 S    
C17   C18   1.189239 T    
C22   C23   1.398423 A    
C25   C26   1.372442 A    
C1    C15   1.421614 S    
O7    Cr1   2.065868 S    
O12   C6    1.302127 A    
Cr5   O26   1.976768 S    
C19   C24   1.431520 A    
C26   H7    1.084169 S    
N3    O30   1.301954 A    
Cr2   O13   1.987436 S    
C21   C34   1.445646 S    
C21   C22   1.391477 A    
C1    O3    1.256308 A    
O16   Cr5   2.066473 S    
C25   C30   1.407640 A    
C20   H5    1.086683 S    
O9    Cr2   2.054058 S    
O2    Cr1   1.947481 S    
N2    O27   1.296391 A    
O6    Cr3   1.945713 S    
O8    C4    1.281664 A    
C2    O5    1.262007 A    
C8    C9    1.406794 A    
O17   Cr5   1.941282 S    
C7    C12   1.396299 A    
C10   C11   1.374813 A    
O2    C1    1.280039 A    
C31   O16   1.256123 A    
O5    Cr3   2.057790 S    
C11   C12   1.403647 A    
O15   C31   1.264005 A    
O24   Cr6   2.059245 S    
O7    C6    1.294222 A    
C26   C27   1.400136 A    
O23   Cr5   1.946099 S    
C23   N2    1.447201 S    
C7    C8    1.386794 A    
O23   C35   1.270763 A    
C4    C30   1.460193 S    
O19   C33   1.261737 A    
O3    Cr2   2.060594 S    
C4    O9    1.266605 A    
C9    C10   1.395339 A    
C14   C31   1.404418 S    
O10   C5    1.265042 A    
C16   C33   1.423103 S    
