data_mof_unit_5084.cif
_audit_creation_date              2012-12-10T17:23:43-0500
_audit_creation_method            fapswitch 2.2
_symmetry_space_group_name_H-M    P1
_symmetry_Int_Tables_number       1
_space_group_crystal_system       triclinic
_cell_length_a                    9.588216
_cell_length_b                    10.845706
_cell_length_c                    17.298341
_cell_angle_alpha                 94.866846
_cell_angle_beta                  85.813255
_cell_angle_gamma                 89.744961
_cell_volume                      1787.49981881

loop_
_atom_site_label
_atom_site_type_symbol
_atom_type_description
_atom_site_fract_x
_atom_site_fract_y
_atom_site_fract_z
_atom_type_partial_charge
C1    C     C_R   0.498922 0.737660 0.496657 0.774515
C2    C     C_R   0.347719 0.523942 0.783189 0.440398
C3    C     C_R   0.422907 0.507757 0.142283 -0.181137
C4    C     C_R   0.407204 0.508683 0.223195 0.387968
C5    C     C_R   0.660147 0.527707 0.226323 -0.256673
C6    C     C_R   0.672722 0.534284 0.146119 -0.208014
C7    C     C_R   0.553808 0.526420 0.104104 0.141870
C8    C     C_2   0.474153 0.595944 0.982673 0.429489
C9    C     C_2   0.567100 0.533534 0.019657 -0.295143
C10   C     C_R   0.528014 0.514501 0.265657 -0.140244
C11   C     C_R   0.233972 0.887377 0.483843 -0.182446
C12   C     C_R   0.481613 0.505109 0.650405 0.795315
C13   C     C_R   0.108810 0.950494 0.506810 -0.172044
C14   C     C_R   0.111278 0.067659 0.545753 -0.123944
C15   C     C_R   0.238625 0.126749 0.554163 -0.143337
C16   C     C_R   0.366036 0.067752 0.524640 0.088372
C17   C     C_R   0.364669 0.940350 0.500837 0.101163
C18   C     C_R   0.493732 0.872745 0.495632 -0.108912
C19   C     C_R   0.619957 0.936608 0.500380 -0.227354
C20   C     C_R   0.620579 0.064356 0.508631 -0.220597
C21   C     C_R   0.494658 0.131256 0.517395 -0.118705
C22   C     C_R   0.877469 0.298401 0.408900 0.470988
C23   C     C_R   0.498586 0.264114 0.507966 0.812518
C24   C     C_R   0.967496 0.194654 0.387251 -0.331049
C25   C     C_R   0.109114 0.208444 0.382139 -0.247088
C26   C     C_R   0.164030 0.318636 0.408809 -0.066399
C27   C     C_R   0.082905 0.407989 0.455715 0.150494
C28   C     C_R   0.932717 0.403887 0.455628 0.102542
C29   C     C_R   0.920292 0.590184 0.540169 -0.076601
C30   C     C_R   0.068036 0.590421 0.539715 -0.106758
C31   C     C_R   0.518114 0.505305 0.350249 0.852906
C32   C     C_R   0.474623 0.526193 0.735967 -0.131048
C33   C     C_R   0.599434 0.556289 0.771171 -0.226420
C34   C     C_R   0.599453 0.582288 0.851007 -0.230758
C35   C     C_R   0.475056 0.576442 0.897650 0.007986
C36   C     C_R   0.350401 0.545923 0.863875 -0.213921
Cu1   Cu    Cu3+1 0.359340 0.500010 0.500010 0.939447
Cu2   Cu    Cu3+1 0.640660 0.499990 0.499990 0.968139
H1    H     H_    0.698105 0.560765 0.736960 0.177220
H2    H     H_    0.775037 0.546014 0.116889 0.144648
H3    H     H_    0.719464 0.887902 0.496371 0.158790
H4    H     H_    0.225327 0.799675 0.450338 0.167459
H5    H     H_    0.009828 0.907601 0.495308 0.127964
H6    H     H_    0.014324 0.114897 0.566606 0.135452
H7    H     H_    0.235911 0.217696 0.585106 0.173412
H8    H     H_    0.720455 0.110717 0.506819 0.160852
H9    H     H_    0.860482 0.663869 0.573534 0.131366
H10   H     H_    0.932239 0.105944 0.363492 0.137584
H11   H     H_    0.176718 0.134910 0.354157 0.172308
H12   H     H_    0.271775 0.327808 0.392774 0.212776
H13   H     H_    0.118485 0.664944 0.572198 0.134434
H14   H     H_    0.754070 0.533108 0.257529 0.186164
H15   H     H_    0.653994 0.483771 0.986915 0.122329
H16   H     H_    0.255282 0.536255 0.900579 0.161655
H17   H     H_    0.332270 0.491591 0.109181 0.170709
H18   H     H_    0.696722 0.606324 0.876414 0.144633
N1    N     N_R   0.852190 0.498790 0.499250 -0.182089
N2    N     N_R   0.148060 0.498710 0.499220 -0.191358
O1    O     O_R   0.381190 0.680360 0.500010 -0.603522
O2    O     O_R   0.618760 0.680340 0.500000 -0.591809
O3    O     O_R   0.367440 0.500030 0.613600 -0.559732
O4    O     O_R   0.605010 0.500010 0.613590 -0.593890
O5    O     O_R   0.381240 0.319660 0.500000 -0.623480
O6    O     O_R   0.618810 0.319640 0.499990 -0.533594
O7    O     O_R   0.394990 0.499990 0.386410 -0.566210
O8    O     O_R   0.632560 0.499970 0.386400 -0.523381
O9    O     O_3   0.748850 0.304631 0.375833 -0.529675
C37   C     C_3   0.712807 0.197354 0.328239 0.050167
H19   H     H_    0.705826 0.115438 0.362613 0.144510
H20   H     H_    0.790042 0.180420 0.277112 0.146822
C38   C     C_3   0.570140 0.211437 0.296915 -0.794941
H21   H     H_    0.492200 0.246398 0.344051 0.238199
H22   H     H_    0.576634 0.274064 0.249560 0.241617
H23   H     H_    0.534910 0.119968 0.272186 0.195724
O10   O     O_3   0.275546 0.495287 0.260290 -0.572684
C39   C     C_3   0.188339 0.596042 0.247334 0.080346
H24   H     H_    0.149505 0.583180 0.188208 0.149055
H25   H     H_    0.243709 0.686223 0.254092 0.127900
C40   C     C_3   0.062215 0.602217 0.306175 -0.779593
H26   H     H_    0.096603 0.622886 0.365702 0.249139
H27   H     H_    0.989437 0.676761 0.293753 0.186641
H28   H     H_    0.006280 0.512698 0.302845 0.249561
O11   O     O_3   0.223550 0.487593 0.752690 -0.609866
C41   C     C_3   0.146708 0.592838 0.736234 0.094860
H29   H     H_    0.078286 0.561081 0.689851 0.177485
H30   H     H_    0.214453 0.666927 0.713212 0.122901
C42   C     C_3   0.051449 0.645180 0.806586 -0.400987
H31   H     H_    0.987479 0.569594 0.829922 0.229385
H32   H     H_    0.115298 0.686361 0.852941 0.213143
C43   C     C_3   0.954450 0.746109 0.784052 -0.928915
H33   H     H_    0.016615 0.824674 0.763389 0.260951
H34   H     H_    0.884677 0.780646 0.835456 0.258419
H35   H     H_    0.888923 0.709234 0.737224 0.247175
O12   O     O_3   0.363689 0.660853 0.024065 -0.635319
C44   C     C_3   0.380998 0.789195 0.018158 0.047898
H36   H     H_    0.275588 0.833271 0.027026 0.163000
H37   H     H_    0.425109 0.811761 0.959573 0.134608
C45   C     C_3   0.471131 0.844526 0.081855 -0.347443
H38   H     H_    0.425750 0.820550 0.139604 0.220249
H39   H     H_    0.578636 0.804777 0.072299 0.215992
C46   C     C_3   0.479440 0.984997 0.081927 -0.923912
H40   H     H_    0.525340 0.010994 0.024818 0.258762
H41   H     H_    0.546818 0.021801 0.127906 0.254968
H42   H     H_    0.373620 0.027507 0.093932 0.257651

loop_
_geom_bond_atom_site_label_1
_geom_bond_atom_site_label_2
_ccdc_geom_bond_type
C8    C9    D    
C31   O8    A    
C42   H31   S    
C34   H18   S    
C16   C21   A    
C44   H36   S    
C39   C40   S    
C30   H13   S    
C44   C45   S    
C28   N1    A    
C1    C18   S    
C46   H40   S    
C29   H9    S    
Cu1   Cu2   S    
C39   H25   S    
C18   C19   A    
C3    C7    A    
C1    O1    A    
C5    C6    A    
C15   C16   A    
C11   H4    S    
C2    C32   A    
C34   C35   A    
C4    O10   S    
C3    H17   S    
C10   C31   S    
C19   C20   A    
C16   C17   A    
Cu1   O7    S    
C41   C42   S    
C5    H14   S    
Cu1   N2    S    
C23   O5    A    
C24   C25   A    
C46   H41   S    
C22   C28   A    
C13   C14   A    
C12   C32   S    
C2    O11   S    
Cu1   O5    S    
C33   C34   A    
Cu2   O6    S    
O9    C37   S    
C24   H10   S    
Cu2   O8    S    
C8    O12   S    
C39   H24   S    
C1    O2    A    
C38   H22   S    
C37   H19   S    
C25   C26   A    
C35   C36   A    
O10   C39   S    
C29   C30   A    
C40   H28   S    
Cu2   N1    S    
C12   O4    A    
C43   H34   S    
O11   C41   S    
C17   C18   A    
C26   C27   A    
C33   H1    S    
C41   H29   S    
Cu1   O1    S    
Cu2   O2    S    
C23   O6    A    
C29   N1    A    
C46   H42   S    
C45   H39   S    
C21   C23   S    
C22   C24   A    
C9    H15   S    
C15   H7    S    
C4    C10   A    
C3    C4    A    
C13   H5    S    
C43   H35   S    
C14   H6    S    
C2    C36   A    
C31   O7    A    
C11   C17   A    
C41   H30   S    
C27   N2    A    
C38   H23   S    
Cu1   O3    S    
C44   H37   S    
C6    C7    A    
C45   C46   S    
C40   H27   S    
C32   C33   A    
C26   H12   S    
C5    C10   A    
C12   O3    A    
C11   C13   A    
C43   H33   S    
C37   C38   S    
C30   N2    A    
C6    H2    S    
O12   C44   S    
C25   H11   S    
C22   O9    S    
C36   H16   S    
C40   H26   S    
C7    C9    S    
C38   H21   S    
C20   C21   A    
C37   H20   S    
C45   H38   S    
C42   C43   S    
C27   C28   A    
C42   H32   S    
C14   C15   A    
C8    C35   S    
C20   H8    S    
C19   H3    S    
Cu2   O4    S    
