data_mof_unit_8836.cif
_audit_creation_date              2012-12-10T17:37:46-0500
_audit_creation_method            fapswitch 2.2
_symmetry_space_group_name_H-M    P1
_symmetry_Int_Tables_number       1
_space_group_crystal_system       triclinic
_cell_length_a                    12.322495
_cell_length_b                    13.149503
_cell_length_c                    17.347703
_cell_angle_alpha                 104.930081
_cell_angle_beta                  74.673246
_cell_angle_gamma                 116.528305
_cell_volume                      2393.58562489

loop_
_atom_site_label
_atom_site_type_symbol
_atom_type_description
_atom_site_fract_x
_atom_site_fract_y
_atom_site_fract_z
_atom_type_partial_charge
C1    C     C_R   0.144647 0.713633 0.506119 0.792759
C2    C     C_R   0.892545 0.533500 0.796830 -0.198691
C3    C     C_R   0.922630 0.497882 0.158150 -0.156787
C4    C     C_R   0.923168 0.506084 0.239262 -0.207843
C5    C     C_R   0.102968 0.461171 0.202587 -0.205206
C6    C     C_R   0.102957 0.453841 0.121153 -0.174599
C7    C     C_R   0.014269 0.474201 0.098656 0.195774
C8    C     C_2   0.979856 0.534201 0.987852 -0.233582
C9    C     C_2   0.019613 0.470402 0.012718 -0.232450
C10   C     C_R   0.013503 0.488257 0.262141 -0.022359
C11   C     C_R   0.739866 0.969427 0.408046 -0.203549
C12   C     C_R   0.988584 0.505021 0.652201 0.790197
C13   C     C_R   0.775368 0.163651 0.475176 -0.054224
C14   C     C_R   0.179456 0.918198 0.551198 -0.220640
C15   C     C_R   0.256800 0.034590 0.565461 0.151681
C16   C     C_R   0.383647 0.069157 0.539867 -0.224774
C17   C     C_R   0.435287 0.989065 0.496646 0.050360
C18   C     C_R   0.354301 0.873841 0.474179 0.051403
C19   C     C_R   0.564566 0.019902 0.474796 0.054469
C20   C     C_R   0.611241 0.937128 0.427420 0.133128
C21   C     C_R   0.528427 0.825370 0.399367 0.052845
C22   C     C_R   0.402484 0.798419 0.419049 -0.228038
C23   C     C_R   0.856050 0.286095 0.489057 0.786451
C24   C     C_R   0.649179 0.130894 0.500313 -0.238411
C25   C     C_R   0.820963 0.082013 0.430804 -0.204443
C26   C     C_R   0.226848 0.836775 0.507765 -0.125745
C27   C     C_R   0.630152 0.658451 0.637171 -0.305985
C28   C     C_R   0.247252 0.351804 0.390100 0.031246
C29   C     C_R   0.336049 0.307827 0.371039 -0.309220
C30   C     C_R   0.432056 0.352502 0.415612 0.109086
C31   C     C_R   0.445243 0.452970 0.476417 -0.047906
C32   C     C_R   0.345667 0.489626 0.496511 0.248221
C33   C     C_R   0.547433 0.516865 0.520650 -0.041942
C34   C     C_R   0.011536 0.495257 0.347820 0.783714
C35   C     C_R   0.537287 0.600332 0.589623 0.183479
C36   C     C_R   0.436342 0.628381 0.609904 -0.294467
C37   C     C_R   0.345361 0.577320 0.562835 -0.187639
C38   C     C_R   0.662444 0.507573 0.498423 -0.008471
C39   C     C_R   0.735157 0.636452 0.615726 0.066139
C40   C     C_R   0.986850 0.513336 0.738033 -0.025635
C41   C     C_R   0.081960 0.504292 0.761948 -0.218054
C42   C     C_R   0.081519 0.512865 0.843333 -0.150054
C43   C     C_R   0.985293 0.529653 0.901897 0.193280
C44   C     C_R   0.892292 0.542229 0.878471 -0.173434
Cu1   Cu    Cu3+1 0.900140 0.524980 0.518800 0.926612
Cu2   Cu    Cu3+1 0.099860 0.475020 0.481200 0.906896
H1    H     H_    0.157324 0.491409 0.717991 0.155125
H2    H     H_    0.173390 0.434222 0.075752 0.121818
H3    H     H_    0.919079 0.105894 0.411437 0.149063
H4    H     H_    0.779763 0.909888 0.372847 0.142590
H5    H     H_    0.619978 0.195225 0.539461 0.149375
H6    H     H_    0.082232 0.891061 0.576306 0.153296
H7    H     H_    0.438627 0.159804 0.553580 0.119561
H8    H     H_    0.342619 0.717245 0.389174 0.176726
H9    H     H_    0.806085 0.679200 0.652984 0.120021
H10   H     H_    0.852470 0.526150 0.283930 0.146903
H11   H     H_    0.429269 0.693601 0.661610 0.152893
H12   H     H_    0.621483 0.720600 0.690658 0.134484
H13   H     H_    0.686671 0.460119 0.441565 0.152211
H14   H     H_    0.171414 0.312324 0.356986 0.138091
H15   H     H_    0.325238 0.233203 0.324012 0.142338
H16   H     H_    0.274800 0.608566 0.581693 0.212424
H17   H     H_    0.172983 0.446058 0.218799 0.149169
H18   H     H_    0.060272 0.415882 0.969019 0.144090
H19   H     H_    0.818272 0.556506 0.923275 0.121827
H20   H     H_    0.849777 0.509181 0.142499 0.126296
H21   H     H_    0.818881 0.542073 0.779861 0.149355
H22   H     H_    0.939026 0.588849 0.031110 0.145059
H23   H     H_    0.157121 0.507525 0.860198 0.124305
N1    N     N_R   0.749710 0.562810 0.547300 -0.179384
N2    N     N_R   0.249640 0.437820 0.453210 -0.202809
O1    O     O_R   0.025490 0.682370 0.523640 -0.578620
O2    O     O_R   0.194150 0.640180 0.491890 -0.603373
O3    O     O_R   0.905900 0.523560 0.631310 -0.586655
O4    O     O_R   0.074570 0.481370 0.599560 -0.606170
O5    O     O_R   0.805850 0.359820 0.508110 -0.586386
O6    O     O_R   0.974510 0.317630 0.476360 -0.592867
O7    O     O_R   0.925430 0.518630 0.400440 -0.592276
O8    O     O_R   0.094100 0.476440 0.368690 -0.597793
C45   C     C_3   0.569281 0.730623 0.350961 -0.398698
C46   C     C_3   0.613924 0.742925 0.261211 -0.342428
C47   C     C_3   0.660830 0.650836 0.214285 -0.876095
H24   H     H_    0.740060 0.659667 0.238550 0.249773
H25   H     H_    0.586429 0.563457 0.218858 0.255068
H26   H     H_    0.691620 0.660862 0.149438 0.239221
H27   H     H_    0.536472 0.733872 0.234811 0.219880
H28   H     H_    0.689212 0.829150 0.254155 0.218525
H29   H     H_    0.641286 0.729420 0.377595 0.195329
H30   H     H_    0.491426 0.644760 0.355476 0.203781
C48   C     C_3   0.204512 0.121282 0.612512 -0.422027
C49   C     C_3   0.127324 0.136578 0.563662 -0.360481
C50   C     C_3   0.080855 0.229094 0.609710 -0.786809
H31   H     H_    0.028626 0.208732 0.670593 0.240854
H32   H     H_    0.159551 0.314431 0.616405 0.255556
H33   H     H_    0.018608 0.233015 0.575815 0.263137
H34   H     H_    0.183976 0.162008 0.504676 0.230336
H35   H     H_    0.046864 0.054101 0.551530 0.216256
H36   H     H_    0.146718 0.091755 0.670224 0.192072
H37   H     H_    0.279740 0.206339 0.628621 0.197088
C51   C     C_3   0.501517 0.277179 0.402394 -0.409552
C52   C     C_3   0.590631 0.286500 0.320963 -0.353708
C53   C     C_3   0.677288 0.229137 0.313725 -0.818129
H38   H     H_    0.738242 0.275514 0.359668 0.259954
H39   H     H_    0.624009 0.137688 0.322274 0.257808
H40   H     H_    0.735809 0.232318 0.252761 0.240869
H41   H     H_    0.537136 0.243969 0.270562 0.215053
H42   H     H_    0.645978 0.378108 0.313590 0.210202
H43   H     H_    0.546692 0.292708 0.454027 0.192921
H44   H     H_    0.433874 0.185876 0.401127 0.199967

loop_
_geom_bond_atom_site_label_1
_geom_bond_atom_site_label_2
_ccdc_geom_bond_type
C52   H42   S    
C38   N1    A    
C52   C53   S    
C12   O3    A    
C9    H18   S    
C41   C42   A    
C35   C36   A    
C18   C26   A    
C8    C43   S    
C23   O5    A    
C37   H16   S    
C22   H8    S    
Cu1   Cu2   S    
C13   C23   S    
C6    H2    S    
Cu1   O5    S    
C5    C6    A    
C28   C29   A    
C3    C7    A    
C30   C31   A    
C11   C25   A    
C15   C16   A    
C30   C51   S    
C5    H17   S    
C53   H40   S    
C45   H30   S    
C16   H7    S    
C51   C52   S    
C33   C35   A    
C49   H34   S    
C39   H9    S    
C19   C20   A    
C2    C44   A    
C8    C9    D    
C31   C33   A    
Cu1   O7    S    
C46   H27   S    
C24   H5    S    
C51   H44   S    
C21   C22   A    
C4    H10   S    
Cu1   O1    S    
C13   C25   A    
C44   H19   S    
Cu2   O4    S    
C49   H35   S    
C46   C47   S    
C32   N2    A    
C28   H14   S    
C29   H15   S    
C11   C20   A    
C51   H43   S    
C1    O1    A    
C2    H21   S    
C27   C39   A    
C49   C50   S    
C16   C17   A    
C27   C35   A    
C42   H23   S    
C23   O6    A    
C13   C24   A    
Cu1   O3    S    
C12   C40   S    
C43   C44   A    
C29   C30   A    
C34   O8    A    
C31   C32   A    
C50   H32   S    
C17   C18   A    
C41   H1    S    
C10   C34   S    
C32   C37   A    
C14   C26   A    
C53   H39   S    
Cu2   N2    S    
C46   H28   S    
C40   C41   A    
C8    H22   S    
C47   H25   S    
C1    C26   S    
C3    H20   S    
C42   C43   A    
C4    C10   A    
C3    C4    A    
C48   H37   S    
C36   H11   S    
C52   H41   S    
C7    C9    S    
C36   C37   A    
Cu1   N1    S    
C18   C22   A    
C45   C46   S    
C27   H12   S    
Cu2   O6    S    
C6    C7    A    
C47   H26   S    
C33   C38   A    
C1    O2    A    
C19   C24   A    
C5    C10   A    
C45   H29   S    
C11   H4    S    
C34   O7    A    
C15   C48   S    
C48   C49   S    
Cu2   O8    S    
C21   C45   S    
C14   H6    S    
C50   H31   S    
C17   C19   A    
C39   N1    A    
C50   H33   S    
C53   H38   S    
C25   H3    S    
C38   H13   S    
C28   N2    A    
C2    C40   A    
C20   C21   A    
C47   H24   S    
C12   O4    A    
C14   C15   A    
C48   H36   S    
Cu2   O2    S    
