data_mof_unit_43059.cif
_audit_creation_date              2012-10-26T18:50:44-0400
_audit_creation_method            fapswitch 2.2
_symmetry_space_group_name_H-M    P1
_symmetry_Int_Tables_number       1
_space_group_crystal_system       triclinic
_cell_length_a                    12.38444
_cell_length_b                    13.27608
_cell_length_c                    17.290515
_cell_angle_alpha                 105.803423
_cell_angle_beta                  74.755054
_cell_angle_gamma                 117.041837
_cell_volume                      2404.02868406

loop_
_atom_site_label
_atom_site_type_symbol
_atom_type_description
_atom_site_fract_x
_atom_site_fract_y
_atom_site_fract_z
_atom_type_partial_charge
C1    C     C_R   0.144502 0.713343 0.507465 0.517814
C2    C     C_R   0.014310 0.485798 0.260598 0.056689
C3    C     C_R   0.731769 0.974971 0.390758 -0.123012
C4    C     C_R   0.988789 0.505522 0.652201 0.533225
C5    C     C_R   0.774182 0.164750 0.471183 0.004821
C6    C     C_R   0.180866 0.916204 0.562306 -0.124544
C7    C     C_R   0.258802 0.031494 0.579053 -0.134028
C8    C     C_R   0.384036 0.068315 0.550127 -0.107938
C9    C     C_R   0.433848 0.990136 0.500640 0.039799
C10   C     C_R   0.351813 0.874959 0.475980 0.028035
C11   C     C_R   0.562181 0.022756 0.473976 0.041208
C12   C     C_R   0.879563 0.499971 0.794804 -0.072335
C13   C     C_R   0.605395 0.943706 0.417613 0.059141
C14   C     C_R   0.522039 0.835455 0.386972 -0.131349
C15   C     C_R   0.397139 0.802198 0.414572 -0.117649
C16   C     C_R   0.855950 0.286497 0.487922 0.547010
C17   C     C_R   0.649269 0.131597 0.501998 -0.103504
C18   C     C_R   0.815885 0.085418 0.416972 -0.123540
C19   C     C_R   0.226290 0.836394 0.512711 -0.006464
C20   C     C_R   0.654222 0.689185 0.623834 0.224217
C21   C     C_R   0.251333 0.354994 0.386375 0.445067
C22   C     C_R   0.355732 0.330894 0.359047 -0.163868
C23   C     C_R   0.916064 0.457478 0.147591 -0.116336
C24   C     C_R   0.456152 0.390920 0.399523 -0.129162
C25   C     C_R   0.452775 0.470731 0.472191 0.006970
C26   C     C_R   0.348123 0.496990 0.495571 0.089773
C27   C     C_R   0.551580 0.529475 0.519704 -0.047199
C28   C     C_R   0.011210 0.494376 0.347550 0.559794
C29   C     C_R   0.552314 0.625553 0.581635 -0.001479
C30   C     C_R   0.451495 0.655645 0.600020 0.217460
C31   C     C_R   0.349590 0.587289 0.560520 -0.108322
C32   C     C_R   0.649761 0.496043 0.508033 0.322214
C33   C     C_R   0.752425 0.656453 0.605050 0.411441
C34   C     C_R   0.909156 0.466554 0.231128 0.244913
C35   C     C_R   0.987673 0.514586 0.738382 -0.038553
C36   C     C_R   0.095993 0.538683 0.764594 -0.146032
C37   C     C_R   0.096006 0.546149 0.846019 -0.085676
C38   C     C_R   0.987206 0.527139 0.902390 0.064465
C39   C     C_R   0.877486 0.505365 0.876855 0.251636
C40   C     C_3   0.825460 0.711751 0.725890 -0.078512
C41   C     C_3   0.174507 0.272735 0.264125 -0.133969
C42   C     C_R   0.123278 0.494412 0.205920 -0.188659
C43   C     C_R   0.128831 0.485474 0.123120 -0.151286
C44   C     C_R   0.025715 0.468265 0.093907 -0.007453
C45   C     C_2   0.990415 0.530196 0.987077 -0.083286
C46   C     C_2   0.033046 0.465479 0.007067 0.231900
Cu1   Cu    Cu3+1 0.900140 0.524980 0.518800 1.029934
Cu2   Cu    Cu3+1 0.099860 0.475020 0.481200 0.981752
H1    H     H_    0.181130 0.552530 0.722282 0.135363
H2    H     H_    0.336923 0.719744 0.385217 0.145307
H3    H     H_    0.536754 0.375954 0.369770 0.188565
H4    H     H_    0.360892 0.266555 0.305881 0.099879
H5    H     H_    0.273439 0.609705 0.581414 0.170271
H6    H     H_    0.205073 0.509815 0.227337 0.127212
H7    H     H_    0.835760 0.441964 0.124208 0.087735
H8    H     H_    0.795320 0.480918 0.774851 0.145851
H9    H     H_    0.952282 0.583647 0.034452 0.069058
H10   H     H_    0.181253 0.566175 0.865102 0.161041
H11   H     H_    0.908900 0.722947 0.745940 0.134242
H12   H     H_    0.214337 0.494655 0.082129 0.133007
H13   H     H_    0.752008 0.626702 0.738318 0.094691
H14   H     H_    0.798985 0.781802 0.763415 0.154870
H15   H     H_    0.737106 0.442397 0.253218 0.310686
H16   H     H_    0.376685 0.762266 0.661542 0.315339
H17   H     H_    0.597864 0.757866 0.728560 0.342851
H18   H     H_    0.713833 0.400152 0.425660 0.390679
H19   H     H_    0.193145 0.194507 0.242271 0.110332
H20   H     H_    0.252408 0.347872 0.239893 0.099453
H21   H     H_    0.092892 0.256103 0.239178 0.147139
H22   H     H_    0.098476 0.349579 0.973580 0.327923
H23   H     H_    0.912526 0.110041 0.392343 0.166175
H24   H     H_    0.772778 0.480411 0.982700 0.320623
H25   H     H_    0.553464 0.776118 0.341213 0.107771
H26   H     H_    0.765198 0.915043 0.347610 0.114027
H27   H     H_    0.622618 0.193531 0.547312 0.139294
H28   H     H_    0.085108 0.889183 0.589998 0.182683
H29   H     H_    0.438571 0.158997 0.566171 0.130773
H30   H     H_    0.222450 0.092411 0.616873 0.138491
N1    N     N_R   0.749710 0.562810 0.547300 -0.253029
N2    N     N_R   0.249640 0.437820 0.453210 -0.223775
O1    O     O_R   0.025490 0.682370 0.523640 -0.454107
O2    O     O_3   0.800790 0.455389 0.284063 -0.715988
O3    O     O_3   0.452439 0.751734 0.657425 -0.669538
O4    O     O_3   0.662326 0.785593 0.681702 -0.629984
O5    O     O_3   0.637289 0.389384 0.464752 -0.703162
O6    O     O_3   0.146542 0.293475 0.350010 -0.530849
O7    O     O_3   0.079756 0.395883 0.946986 -0.694219
O8    O     O_3   0.766240 0.485428 0.928264 -0.707694
O9    O     O_R   0.194150 0.640180 0.491890 -0.547291
O10   O     O_R   0.905900 0.523560 0.631310 -0.492148
O11   O     O_R   0.074570 0.481370 0.599560 -0.523388
O12   O     O_R   0.805850 0.359820 0.508110 -0.497231
O13   O     O_R   0.974510 0.317630 0.476360 -0.449454
O14   O     O_R   0.925430 0.518630 0.400440 -0.470726
O15   O     O_R   0.094100 0.476440 0.368690 -0.493515
O16   O     O_3   0.855160 0.721035 0.642656 -0.520358

loop_
_geom_bond_atom_site_label_1
_geom_bond_atom_site_label_2
_ccdc_geom_bond_type
Cu2   O15   S    
C27   C29   A    
Cu1   O12   S    
C35   C36   A    
Cu1   N1    S    
H18   O5    S    
C7    C8    A    
C41   H19   S    
C45   C46   D    
C6    C19   A    
C45   H9    S    
C16   O13   A    
C29   C30   A    
C28   O15   A    
C41   H21   S    
C36   C37   A    
C10   C15   A    
C30   C31   A    
C5    C17   A    
C1    O1    A    
C40   H14   S    
C3    C18   A    
C28   O14   A    
C15   H2    S    
C30   O3    S    
C3    H26   S    
C38   C45   S    
C8    C9    A    
C5    C16   S    
Cu2   O11   S    
C9    C10   A    
C37   H10   S    
C3    C13   A    
C4    O11   A    
C2    C34   A    
C24   H3    S    
C4    C35   S    
C26   C31   A    
C40   H11   S    
C13   C14   A    
C39   O8    S    
C40   O16   S    
H22   O7    S    
H24   O8    S    
C44   C46   S    
C41   H20   S    
C4    O10   A    
C20   C29   A    
C1    C19   S    
Cu2   O13   S    
H15   O2    S    
C14   H25   S    
C24   C25   A    
C33   N1    A    
H17   O4    S    
C5    C18   A    
C25   C26   A    
C26   N2    A    
C23   C44   A    
C43   C44   A    
H16   O3    S    
C37   C38   A    
C41   O6    S    
Cu1   Cu2   S    
C10   C19   A    
C23   C34   A    
C31   H5    S    
C12   C35   A    
C6    H28   S    
C9    C11   A    
C12   H8    S    
C43   H12   S    
C7    H30   S    
C20   C33   A    
C16   O12   A    
Cu2   O9    S    
C20   O4    S    
C8    H29   S    
Cu1   O10   S    
C22   C24   A    
C42   C43   A    
C33   O16   S    
C22   H4    S    
C46   O7    S    
C18   H23   S    
C21   O6    S    
C11   C17   A    
C1    O9    A    
C27   C32   A    
C23   H7    S    
C6    C7    A    
C25   C27   A    
Cu2   N2    S    
C12   C39   A    
C42   H6    S    
C32   N1    A    
C11   C13   A    
C38   C39   A    
C2    C42   A    
C32   O5    S    
C21   N2    A    
Cu1   O14   S    
Cu1   O1    S    
C40   H13   S    
C17   H27   S    
C14   C15   A    
C2    C28   S    
C34   O2    S    
C21   C22   A    
C36   H1    S    
