data_mof_unit_59736.cif
_audit_creation_date              2012-12-11T14:32:54-0500
_audit_creation_method            fapswitch 2.2
_symmetry_space_group_name_H-M    P1
_symmetry_Int_Tables_number       1
_space_group_crystal_system       triclinic
_cell_length_a                    6.949493
_cell_length_b                    13.738301
_cell_length_c                    17.948366
_cell_angle_alpha                 112.397331
_cell_angle_beta                  95.510668
_cell_angle_gamma                 90.214535
_cell_volume                      1575.50071237

loop_
_atom_site_label
_atom_site_type_symbol
_atom_type_description
_atom_site_fract_x
_atom_site_fract_y
_atom_site_fract_z
_atom_type_partial_charge
O1    O     O_R   0.484560 0.544530 0.414330 -0.536893
O2    O     O_R   0.197040 0.638810 0.585080 -0.537912
O3    O     O_R   0.026800 0.455470 0.585670 -0.541637
C1    C     C_R   0.373622 0.679017 0.610215 0.681963
O4    O     O_R   0.155000 0.556150 0.414940 -0.542244
O5    O     O_R   0.984450 0.372220 0.414320 -0.535861
C2    C     C_R   0.317630 0.565011 0.386552 0.760084
O6    O     O_R   0.526900 0.627780 0.585680 -0.540698
O7    O     O_3   0.339170 0.439750 0.499990 -0.375048
V1    V     V_3+5 0.064350 0.511180 0.500000 1.377705
O8    O     O_R   0.654880 0.361190 0.414920 -0.541642
C3    C     C_R   0.816966 0.324531 0.386440 0.766302
O9    O     O_R   0.696930 0.443850 0.585060 -0.542689
C4    C     C_R   0.873395 0.434010 0.612542 0.688805
V2    V     V_3+5 0.564340 0.488820 0.500000 1.373956
O10   O     O_3   0.839390 0.560250 0.500010 -0.374607
C5    C     C_R   0.040878 0.860625 0.822661 -0.051436
C6    C     C_R   0.907520 0.399161 0.680588 -0.052360
C7    C     C_R   0.906623 0.824643 0.685455 -0.129280
C8    C     C_R   0.960116 0.789724 0.747231 -0.142023
C9    C     C_R   0.063039 0.967927 0.836406 -0.235345
C10   C     C_R   0.989014 0.008033 0.777429 0.086958
C11   C     C_R   0.920393 0.932224 0.699667 0.138496
C12   C     C_R   0.986722 0.118852 0.790899 -0.024276
C13   C     C_R   0.938504 0.148020 0.722301 0.065915
C14   C     C_R   0.880998 0.067894 0.645980 -0.164897
C15   C     C_R   0.867796 0.963127 0.635655 -0.218256
C16   C     C_R   0.026660 0.202151 0.869083 -0.005111
C17   C     C_R   0.050944 0.306119 0.875344 -0.207005
C18   C     C_R   0.011946 0.333855 0.808814 0.070778
C19   C     C_R   0.946980 0.256539 0.731875 0.100005
C20   C     C_R   0.029980 0.440405 0.820173 -0.117852
C21   C     C_R   0.979843 0.472543 0.756547 -0.141147
C22   C     C_R   0.893379 0.291870 0.667864 -0.202193
H1    H     H_    0.818231 0.905073 0.576053 0.114642
H2    H     H_    0.841498 0.238992 0.607397 0.089664
H3    H     H_    0.998067 0.555020 0.766682 0.088662
H4    H     H_    0.087940 0.368304 0.934503 0.159346
H5    H     H_    0.850432 0.767412 0.626552 0.134813
H6    H     H_    0.939232 0.707024 0.735929 0.090792
H7    H     H_    0.144134 0.016571 0.892546 0.117504
H8    H     H_    0.842455 0.083148 0.592121 0.119480
H9    H     H_    0.082585 0.499364 0.878838 0.140292
H10   H     H_    0.113884 0.224173 0.308513 0.155903
H11   H     H_    0.834315 0.034722 0.193448 0.153146
C23   C     C_2   0.135558 0.037686 0.183858 -0.333789
C24   C     C_2   0.972621 0.078019 0.216812 -0.123450
H12   H     H_    0.674781 0.177513 0.294525 0.126024
C25   C     C_2   0.812759 0.221005 0.318315 -0.346790
C26   C     C_2   0.975608 0.180830 0.285194 -0.118403
H13   H     H_    0.273557 0.081146 0.207675 0.128048
C27   C     C_R   0.407071 0.785285 0.677054 -0.057943
C28   C     C_R   0.538842 0.473026 0.825524 -0.057501
C29   C     C_R   0.522298 0.887480 0.817478 -0.125807
C30   C     C_R   0.475361 0.790704 0.754312 -0.141622
C31   C     C_R   0.392492 0.880310 0.663334 -0.211284
C32   C     C_R   0.442456 0.981193 0.727426 0.103465
C33   C     C_R   0.503875 0.982035 0.805272 0.110979
C34   C     C_R   0.435302 0.080961 0.717783 0.070430
C35   C     C_R   0.486970 0.178447 0.786169 0.053579
C36   C     C_R   0.535732 0.173159 0.862393 -0.171413
C37   C     C_R   0.544293 0.077185 0.871399 -0.223339
C38   C     C_R   0.379468 0.086621 0.642115 -0.178136
C39   C     C_R   0.374170 0.182574 0.632905 -0.217835
C40   C     C_R   0.426897 0.277286 0.698154 0.120616
C41   C     C_R   0.486799 0.277898 0.776060 0.094899
C42   C     C_R   0.419069 0.371737 0.685349 -0.126260
C43   C     C_R   0.473202 0.467995 0.748088 -0.142208
C44   C     C_R   0.543769 0.378196 0.839734 -0.209457
H14   H     H_    0.583436 0.077423 0.931397 0.126957
H15   H     H_    0.590974 0.385403 0.900638 0.100733
H16   H     H_    0.462019 0.539204 0.736032 0.091212
H17   H     H_    0.328536 0.182551 0.573415 0.117114
H18   H     H_    0.573603 0.888471 0.876665 0.143836
H19   H     H_    0.493462 0.719498 0.765980 0.090709
H20   H     H_    0.344621 0.872785 0.602415 0.090958
H21   H     H_    0.569244 0.242452 0.916762 0.139322
H22   H     H_    0.337908 0.017655 0.588381 0.121382
H23   H     H_    0.369578 0.371143 0.626119 0.143421
H24   H     H_    0.334224 0.667189 0.194401 0.154222
H25   H     H_    0.614829 0.590626 0.308044 0.153970
C45   C     C_2   0.314150 0.602206 0.318818 -0.339091
C46   C     C_2   0.476448 0.610793 0.285280 -0.120476
H26   H     H_    0.773041 0.635979 0.206919 0.129131
C47   C     C_2   0.634937 0.655831 0.183687 -0.341290
C48   C     C_2   0.472647 0.647077 0.217173 -0.119198
H27   H     H_    0.176103 0.622110 0.295577 0.126941
O11   O     O_R   0.421600 0.630430 0.917010 -0.539949
O12   O     O_R   0.793840 0.702190 0.087630 -0.542111
O13   O     O_R   0.964010 0.886170 0.088190 -0.537042
C49   C     C_R   0.631296 0.693183 0.116030 0.758436
O14   O     O_R   0.751460 0.619510 0.917500 -0.539706
O15   O     O_R   0.921330 0.802900 0.916840 -0.541777
C50   C     C_R   0.574557 0.579251 0.892378 0.686195
O16   O     O_R   0.464290 0.713700 0.088350 -0.537548
O17   O     O_3   0.609200 0.818520 0.002630 -0.374455
V3    V     V_3+5 0.884140 0.747190 0.002530 1.379411
O18   O     O_R   0.251150 0.814630 0.917340 -0.542752
C51   C     C_R   0.074877 0.824122 0.889773 0.693846
O19   O     O_R   0.293530 0.897310 0.087470 -0.541630
C52   C     C_R   0.131428 0.934002 0.115912 0.763856
V4    V     V_3+5 0.384070 0.769710 0.002370 1.380677
O20   O     O_3   0.109180 0.698190 0.002460 -0.375019
C53   C     C_2   0.016498 0.188914 0.946946 0.344282
H28   H     H_    0.920760 0.128759 0.950344 0.048127
O21   O     O_2   0.112950 0.246477 0.008843 -0.530296

loop_
_geom_bond_atom_site_label_1
_geom_bond_atom_site_label_2
_ccdc_geom_bond_type
C33   C37   A    
C13   C19   A    
C31   H20   S    
O17   V4    S    
C4    C6    S    
O2    C1    A    
C7    C8    A    
C1    O6    A    
C28   C44   A    
C53   O21   D    
C3    C25   S    
C47   C49   S    
C47   C48   D    
C14   C15   A    
C1    C27   S    
C16   C17   A    
O5    C3    A    
C18   C19   A    
C8    H6    S    
C32   C34   A    
C41   C44   A    
V2    O10   S    
O18   C51   A    
C5    C8    A    
C31   C32   A    
C37   H14   S    
C23   C24   D    
C44   H15   S    
C28   C43   A    
H24   C48   S    
C29   H18   S    
O8    V2    S    
C36   H21   S    
C40   C42   A    
C17   H4    S    
C39   H17   S    
O1    V2    S    
C11   C15   A    
O12   C49   A    
O7    V1    S    
O15   C51   A    
O13   V3    S    
C27   C30   A    
C30   H19   S    
C35   C41   A    
C34   C35   A    
O9    C4    A    
V4    O20   S    
O19   V4    S    
C53   H28   S    
H25   C46   S    
O14   V3    S    
C24   C26   S    
H11   C24   S    
C23   C52   S    
O11   C50   A    
C42   C43   A    
C42   H23   S    
C12   C13   A    
O4    C2    A    
C15   H1    S    
C13   C14   A    
O18   V4    S    
C23   H13   S    
C21   H3    S    
O12   V3    S    
C35   C36   A    
C7    C11   A    
O13   C52   A    
C17   C18   A    
C5    C51   S    
C16   C53   S    
C43   H16   S    
O17   V3    S    
C46   C48   S    
O14   C50   A    
C19   C22   A    
H26   C47   S    
C6    C22   A    
V3    O20   S    
O3    C4    A    
C7    H5    S    
C9    H7    S    
H12   C25   S    
C25   C26   D    
O6    V2    S    
O9    V2    S    
C10   C12   A    
O2    V1    S    
O15   V3    S    
C14   H8    S    
C29   C33   A    
H10   C26   S    
C29   C30   A    
C28   C50   S    
O1    C2    A    
C12   C16   A    
O5    V1    S    
O11   V4    S    
O8    C3    A    
O16   V4    S    
C34   C38   A    
C20   C21   A    
O7    V2    S    
O4    V1    S    
O3    V1    S    
V1    O10   S    
C39   C40   A    
C18   C20   A    
C32   C33   A    
O19   C52   A    
C20   H9    S    
C22   H2    S    
C40   C41   A    
C36   C37   A    
C6    C21   A    
C5    C9    A    
C49   O16   A    
C38   C39   A    
C27   C31   A    
C2    C45   S    
C45   C46   D    
C10   C11   A    
C9    C10   A    
C45   H27   S    
C38   H22   S    
