data_mof_unit_43829.cif
_audit_creation_date              2012-12-11T20:17:22-0500
_audit_creation_method            fapswitch 2.2
_symmetry_space_group_name_H-M    P1
_symmetry_Int_Tables_number       1
_space_group_crystal_system       triclinic
_cell_length_a                    8.324907
_cell_length_b                    17.459284
_cell_length_c                    18.856616
_cell_angle_alpha                 100.84006
_cell_angle_beta                  93.193721
_cell_angle_gamma                 98.665359
_cell_volume                      2651.12940398

loop_
_atom_site_label
_atom_site_type_symbol
_atom_type_description
_atom_site_fract_x
_atom_site_fract_y
_atom_site_fract_z
_atom_type_partial_charge
Ba1   Ba    Ba6+2 0.852650 0.537180 0.468240 1.724568
Ba2   Ba    Ba6+2 0.337190 0.462880 0.531770 1.714827
C1    C     C_3   0.595793 0.805957 0.303343 0.658690
C2    C     C_3   0.435692 0.507748 0.244182 0.002504
C3    C     C_2   0.377795 0.512697 0.167467 -0.199862
C4    C     C_3   0.034549 0.734473 0.302861 0.373664
C5    C     C_2   0.217664 0.489333 0.142905 -0.035973
C6    C     C_2   0.101548 0.460070 0.194996 0.009926
C7    C     C_1   0.150662 0.472194 0.266041 0.081356
C8    C     C_R   0.051315 0.492041 0.925945 0.450345
C9    C     C_R   0.159182 0.490955 0.065912 0.499738
C10   C     C_R   0.092005 0.522483 0.800197 -0.149771
C11   C     C_R   0.035365 0.516111 0.726859 0.031601
C12   C     C_3   0.522035 0.717309 0.288091 0.393609
C13   C     C_R   0.774460 0.445866 0.749569 0.063984
C14   C     C_R   0.830214 0.452389 0.822381 -0.100629
C15   C     C_R   0.991199 0.489160 0.848617 -0.074011
C16   C     C_3   0.030041 0.776997 0.239529 -0.407674
C17   C     C_R   0.879353 0.475115 0.701877 -0.220607
C18   C     C_2   0.432998 0.724342 0.491819 -0.234385
C19   C     C_3   0.307572 0.778466 0.505173 -0.000942
C20   C     C_2   0.382768 0.863374 0.507082 -0.030216
C21   C     C_2   0.547271 0.885558 0.517485 0.056395
C22   C     C_2   0.651151 0.824110 0.525541 -0.097303
C23   C     C_3   0.472279 0.306854 0.294704 0.966023
C24   C     C_1   0.581996 0.749983 0.522635 0.067683
C25   C     C_R   0.795308 0.139297 0.542199 -0.136499
C26   C     C_R   0.858997 0.219426 0.549555 0.044348
C27   C     C_R   0.609930 0.241462 0.489430 0.009402
C28   C     C_3   0.319988 0.707806 0.666976 0.336032
C29   C     C_R   0.545376 0.161268 0.482018 -0.131551
C30   C     C_R   0.635891 0.109362 0.509154 -0.010501
C31   C     C_2   0.627992 0.969250 0.526088 -0.057739
C32   C     C_2   0.559946 0.024683 0.499636 -0.045755
C33   C     C_R   0.764313 0.270557 0.525149 -0.286071
C34   C     C_3   0.408304 0.253038 0.220741 0.197688
C35   C     C_3   0.325768 0.797143 0.689992 -0.191618
C36   C     C_3   0.940665 0.298085 0.374274 0.333218
C37   C     C_3   0.905547 0.207288 0.353985 0.337801
C38   C     C_3   0.762993 0.660528 0.697142 0.612231
C39   C     C_3   0.812257 0.700841 0.778541 0.107317
C40   C     C_3   0.082784 0.300414 0.724285 0.629444
C41   C     C_3   0.139536 0.289905 0.800730 -0.075126
C42   C     C_3   0.526134 0.251295 0.673959 0.322505
C43   C     C_3   0.530039 0.171107 0.697133 0.350579
C44   C     C_2   0.296105 0.511656 0.292346 0.185442
H1    H     H_    0.489348 0.702796 0.341023 0.032286
H2    H     H_    0.304905 0.207218 0.227137 0.005653
H3    H     H_    0.506554 0.221272 0.198937 0.096735
H4    H     H_    0.150275 0.784262 0.217079 0.159210
H5    H     H_    0.142192 0.360050 0.718532 0.069111
H6    H     H_    0.271188 0.286842 0.804765 0.131562
H7    H     H_    0.122791 0.342661 0.841065 0.086234
H8    H     H_    0.643761 0.268943 0.652547 -0.014625
H9    H     H_    0.430458 0.244325 0.628978 0.045601
H10   H     H_    0.596487 0.135341 0.657467 0.052369
H11   H     H_    0.913693 0.732427 0.325068 0.062911
H12   H     H_    0.315592 0.812772 0.749541 0.115765
H13   H     H_    0.467222 0.531797 0.131950 0.126074
H14   H     H_    0.213453 0.553925 0.819388 0.110990
H15   H     H_    0.747929 0.428210 0.858087 0.105865
H16   H     H_    0.835292 0.470382 0.645896 0.080283
H17   H     H_    0.441613 0.007538 0.468968 0.095257
H18   H     H_    0.781042 0.842100 0.540097 0.093559
H19   H     H_    0.872648 0.101691 0.561161 0.071418
H20   H     H_    0.054918 0.672982 0.282842 0.059851
H21   H     H_    0.748527 0.983839 0.554429 0.063144
H22   H     H_    0.301686 0.906367 0.506149 0.047894
H23   H     H_    0.219944 0.814341 0.661426 0.100800
H24   H     H_    0.426797 0.138856 0.452758 0.111491
H25   H     H_    0.391667 0.661681 0.473270 0.095943
H26   H     H_    0.815331 0.332118 0.529040 0.056298
H27   H     H_    0.938060 0.742273 0.195966 0.105307
H28   H     H_    0.997516 0.836508 0.257897 0.129818
H29   H     H_    0.429057 0.690897 0.692845 0.095935
H30   H     H_    0.314584 0.690375 0.606892 -0.015772
H31   H     H_    0.570731 0.837853 0.710720 0.195639
H32   H     H_    0.464243 0.900100 0.678999 0.197181
H33   H     H_    0.804121 0.196268 0.249187 0.193164
H34   H     H_    0.831697 0.320574 0.394774 -0.015562
H35   H     H_    0.747919 0.117865 0.287473 0.204192
H36   H     H_    0.068500 0.189719 0.285050 0.302851
H37   H     H_    0.657981 0.569449 0.732561 0.245939
H38   H     H_    0.025330 0.765781 0.756986 0.180523
H39   H     H_    0.866727 0.815540 0.762428 0.195929
H40   H     H_    0.602606 0.750201 0.793678 0.183120
H41   H     H_    0.595096 0.662338 0.820083 0.173261
H42   H     H_    0.407636 0.699848 0.185312 0.208271
H43   H     H_    0.306307 0.649543 0.241399 0.143131
H44   H     H_    0.405677 0.858723 0.311710 0.355127
H45   H     H_    0.041654 0.315382 0.417963 0.043964
H46   H     H_    0.260901 0.318265 0.326071 0.275560
H47   H     H_    0.595050 0.387143 0.251725 0.294773
H48   H     H_    0.249354 0.307137 0.180426 0.302942
H49   H     H_    0.704905 0.807548 0.214969 0.297141
H50   H     H_    0.865354 0.240518 0.709878 0.311921
H51   H     H_    0.040894 0.171071 0.777443 0.201781
H52   H     H_    0.933254 0.228842 0.831782 0.245340
H53   H     H_    0.307604 0.116369 0.644443 0.159608
H54   H     H_    0.299638 0.158810 0.732187 0.208638
H55   H     H_    0.547668 0.204426 0.802605 0.340622
H56   H     H_    0.869721 0.184540 0.402717 0.047706
H57   H     H_    0.855033 0.426220 0.186473 0.226177
H58   H     H_    0.963366 0.350645 0.178918 0.183955
H59   H     H_    0.386239 0.543158 0.389230 0.315828
H60   H     H_    0.872643 0.642781 0.672505 -0.001276
H61   H     H_    0.715195 0.814788 0.335683 0.019433
H62   H     H_    0.876737 0.660337 0.804416 0.043930
N1    N     N_R   0.211776 0.514726 0.949941 -0.238783
N2    N     N_3   0.050939 0.219170 0.820698 -0.479016
N3    N     N_3   0.366683 0.125882 0.696528 -0.481506
N4    N     N_3   0.956394 0.405261 0.165079 -0.458507
N5    N     N_R   0.264329 0.514202 0.018212 -0.244149
N6    N     N_R   0.998854 0.469116 0.041916 -0.200648
N7    N     N_R   0.946415 0.469356 0.973753 -0.233204
N8    N     N_3   0.477118 0.840497 0.672264 -0.532474
N9    N     N_3   0.770314 0.179672 0.297436 -0.483191
N10   N     N_3   0.924278 0.775639 0.785627 -0.460635
N11   N     N_3   0.670524 0.715589 0.818925 -0.453148
N12   N     N_3   0.374999 0.703671 0.238484 -0.492478
O1    O     O_2   0.865200 0.455450 0.325860 -0.419017
O2    O     O_2   0.188054 0.219380 0.532480 -0.491766
O3    O     O_3   0.130083 0.242229 0.670319 -0.646653
O4    O     O_3   0.117880 0.456770 0.413320 -0.460280
O5    O     O_3   0.582730 0.595670 0.541910 -0.452938
O6    O     O_2   0.334130 0.306180 0.453490 -0.439522
O7    O     O_3   0.502868 0.257667 0.343454 -0.655228
O8    O     O_2   0.440811 0.454385 0.752041 -0.497643
O9    O     O_3   0.497289 0.308962 0.732614 -0.615822
O10   O     O_3   0.657770 0.599920 0.378120 -0.477676
O11   O     O_2   0.777932 0.552342 0.254184 -0.488202
O12   O     O_3   0.702944 0.714811 0.661345 -0.659713
O13   O     O_3   0.981670 0.328775 0.312953 -0.659408
O14   O     O_3   0.637713 0.673104 0.256401 -0.658963
O15   O     O_2   0.855570 0.693850 0.546560 -0.478901
O16   O     O_3   0.082050 0.640900 0.416060 -0.436242
O17   O     O_2   0.975479 0.776578 0.460965 -0.518727
O18   O     O_3   0.046130 0.176608 0.332829 -0.718851
O19   O     O_3   0.643004 0.593409 0.689846 -0.711376
O20   O     O_3   0.495099 0.850535 0.345170 -0.727618
O21   O     O_3   0.358203 0.354914 0.318803 -0.786945
O22   O     O_3   0.618442 0.353597 0.286753 -0.697813
O23   O     O_3   0.161600 0.774907 0.354911 -0.597295
O24   O     O_3   0.361137 0.297325 0.170638 -0.732068
O25   O     O_3   0.618602 0.833639 0.238627 -0.712590
O26   O     O_3   0.913621 0.297271 0.718734 -0.791608
O27   O     O_3   0.615935 0.181126 0.765465 -0.708873
O28   O     O_3   0.312905 0.564043 0.357192 -0.755083
O29   O     O_2   0.324510 0.544570 0.674190 -0.424999
O30   O     O_3   0.071830 0.543290 0.586690 -0.483948
O31   O     O_3   0.531950 0.400150 0.621890 -0.469170
O32   O     O_3   0.179443 0.670671 0.691885 -0.687767
O33   O     O_3   0.606980 0.404400 0.458100 -0.445689
O34   O     O_3   0.107660 0.359170 0.583950 -0.486805
P1    P     P_3+3 0.032830 0.432130 0.335280 1.064794
P2    P     P_3+3 0.680690 0.682340 0.566920 1.021403
P3    P     P_3+3 0.130283 0.743650 0.436606 0.994103
P4    P     P_3+3 0.156880 0.567940 0.664730 0.984523
P5    P     P_3+3 0.071923 0.258385 0.583903 0.958283
P6    P     P_3+3 0.623318 0.581526 0.283286 0.970750
P7    P     P_3+3 0.515996 0.303380 0.435828 1.038026
P8    P     P_3+3 0.561243 0.403419 0.715013 0.988594

loop_
_geom_bond_atom_site_label_1
_geom_bond_atom_site_label_2
_ccdc_geom_bond_type
Ba2   O30   S    
O14   P6    S    
H52   N2    S    
C39   H62   S    
C35   H23   S    
C13   P8    S    
C24   P2    S    
C23   O22   S    
H49   O25   S    
H37   O19   S    
N6    N7    A    
C5    C6    S    
C35   N8    S    
C2    C44   S    
C13   C17   A    
C16   H4    S    
C18   C24   D    
C38   H60   S    
Ba1   O5    S    
C6    N4    S    
C36   C37   S    
C41   H6    S    
C8    C15   S    
H32   N8    S    
C13   C14   A    
C38   O19   S    
H35   N9    S    
C8    N1    A    
O10   P6    S    
Ba1   Ba2   S    
C36   O13   S    
Ba1   P1    S    
C9    N6    A    
C41   H7    S    
C29   H24   S    
C44   O28   S    
C26   C33   A    
C6    C7    D    
C21   C31   S    
C10   C15   A    
O2    P5    D    
C18   H25   S    
H40   N11   S    
C41   N2    S    
C39   N10   S    
H42   N12   S    
Ba1   O16   S    
O30   P4    S    
O29   P4    D    
C35   H12   S    
C21   C22   S    
O5    P2    S    
N1    N5    A    
C40   H5    S    
Ba2   O29   S    
C38   O12   S    
C37   O18   S    
C7    C44   D    
O7    P7    S    
O13   P1    S    
C19   C20   S    
C4    H11   S    
O11   P6    D    
C40   O3    S    
O23   P3    S    
C4    C16   S    
O32   P4    S    
C3    H13   S    
C27   P7    S    
C43   H10   S    
H31   N8    S    
Ba1   O10   S    
C3    C5    D    
C11   C17   A    
C14   C15   A    
C12   O14   S    
C1    H61   S    
C42   O9    S    
C37   N9    S    
H59   O28   S    
C36   H45   S    
C26   P5    S    
O15   P2    D    
C28   C35   S    
O33   P7    S    
H57   N4    S    
C30   C32   S    
Ba1   P2    S    
C5    C9    S    
C34   H3    S    
H41   N11   S    
C25   H19   S    
C28   H30   S    
C16   H28   S    
C28   O32   S    
C29   C30   A    
H43   N12   S    
Ba2   P4    S    
O31   P8    S    
H53   N3    S    
C18   C19   S    
O8    P8    D    
C31   C32   D    
Ba1   O30   S    
C39   N11   S    
Ba1   O33   S    
H46   O21   S    
C20   H22   S    
C1    C12   S    
H51   N2    S    
O16   P3    S    
Ba2   O6    S    
H38   N10   S    
C38   C39   S    
C33   H26   S    
C1    O25   S    
C16   H27   S    
C12   N12   S    
C14   H15   S    
O6    P7    D    
C11   P4    S    
C42   C43   S    
C31   H21   S    
C37   H56   S    
H58   N4    S    
Ba2   O31   S    
H55   O27   S    
O1    P1    D    
C25   C30   A    
C43   O27   S    
C19   P3    S    
C23   O21   S    
C22   C24   D    
C2    C3    S    
C2    P6    S    
H44   O20   S    
C43   N3    S    
C12   H1    S    
Ba2   O4    S    
Ba2   O33   S    
H50   O26   S    
C27   C33   A    
O17   P3    D    
H48   O24   S    
C23   O7    S    
Ba1   O4    S    
O34   P5    S    
C27   C29   A    
H36   O18   S    
C28   H29   S    
C42   H9    S    
Ba2   O34   S    
C36   H34   S    
H33   N9    S    
C32   H17   S    
O12   P2    S    
O9    P8    S    
C34   H2    S    
C34   O24   S    
H39   N10   S    
C9    N5    A    
Ba1   O1    S    
O3    P5    S    
C8    N7    A    
C23   C34   S    
C10   H14   S    
Ba2   O5    S    
C42   H8    S    
C4    H20   S    
C10   C11   A    
C7    P1    S    
H54   N3    S    
C22   H18   S    
C40   C41   S    
O4    P1    S    
C25   C26   A    
C20   C21   D    
C1    O20   S    
C17   H16   S    
C4    O23   S    
Ba1   O15   S    
H47   O22   S    
C40   O26   S    
