data_mof_unit_21547.cif
_audit_creation_date              2012-12-11T17:07:27-0500
_audit_creation_method            fapswitch 2.2
_symmetry_space_group_name_H-M    P1
_symmetry_Int_Tables_number       1
_space_group_crystal_system       triclinic
_cell_length_a                    6.960099
_cell_length_b                    14.5297
_cell_length_c                    16.071668
_cell_angle_alpha                 89.961384
_cell_angle_beta                  89.985608
_cell_angle_gamma                 90.035067
_cell_volume                      1625.29733434

loop_
_atom_site_label
_atom_site_type_symbol
_atom_type_description
_atom_site_fract_x
_atom_site_fract_y
_atom_site_fract_z
_atom_type_partial_charge
O1    O     O_R   0.505720 0.583900 0.413310 -0.537992
O2    O     O_R   0.175940 0.594920 0.586080 -0.543271
O3    O     O_R   0.005640 0.416100 0.586690 -0.534061
C1    C     C_R   0.344846 0.616970 0.614815 0.695174
O4    O     O_R   0.176000 0.594930 0.413930 -0.543657
O5    O     O_R   0.005700 0.416110 0.413310 -0.542766
C2    C     C_R   0.344816 0.616887 0.385139 0.696492
O6    O     O_R   0.505660 0.583890 0.586690 -0.540534
O7    O     O_3   0.339200 0.441330 0.500000 -0.365621
V1    V     V_3+5 0.064350 0.510880 0.500000 1.396244
O8    O     O_R   0.675980 0.405080 0.413920 -0.537747
C3    C     C_R   0.845004 0.383313 0.384946 0.692851
O9    O     O_R   0.675920 0.405070 0.586070 -0.537497
C4    C     C_R   0.844558 0.383354 0.614787 0.696842
V2    V     V_3+5 0.564340 0.489120 0.500000 1.411892
O10   O     O_3   0.839360 0.558670 0.500000 -0.375335
H1    H     H_    0.158715 0.100622 0.517740 0.108666
C5    C     C_R   0.687607 0.422218 0.778334 -0.207354
C6    C     C_R   0.615012 0.444084 0.856665 -0.143385
C7    C     C_R   0.630361 0.381472 0.921793 0.324214
C8    C     C_R   0.717871 0.296432 0.908742 -0.160844
C9    C     C_R   0.790702 0.271761 0.829545 0.024706
C10   C     C_R   0.776477 0.336253 0.763021 0.074300
C11   C     C_R   0.880206 0.185246 0.816551 -0.165861
C12   C     C_R   0.956698 0.163553 0.737075 0.072324
C13   C     C_R   0.943665 0.228269 0.670661 0.068158
C14   C     C_R   0.854085 0.314817 0.683611 -0.171268
C15   C     C_R   0.043036 0.077012 0.721604 -0.147082
C16   C     C_R   0.116102 0.055163 0.643393 -0.128515
C17   C     C_R   0.103175 0.118197 0.578616 -0.122378
C18   C     C_R   0.017167 0.203555 0.591584 -0.133616
H2    H     H_    0.673761 0.473762 0.730267 0.125971
H3    H     H_    0.547761 0.510328 0.866762 0.148956
H4    H     H_    0.729438 0.250744 0.961642 0.133958
H5    H     H_    0.053887 0.024921 0.769367 0.101517
H6    H     H_    0.181758 0.988633 0.632882 0.114093
H7    H     H_    0.007346 0.249214 0.538593 0.104658
C19   C     C_R   0.726512 0.183707 0.240588 0.091830
C20   C     C_R   0.881729 0.183001 0.185043 -0.102757
C21   C     C_R   0.033541 0.244684 0.200839 -0.149887
H8    H     H_    0.156267 0.246790 0.159726 0.153351
C22   C     C_R   0.022414 0.308742 0.266466 -0.156609
H9    H     H_    0.137568 0.357987 0.274130 0.136877
C23   C     C_R   0.858726 0.313356 0.318033 -0.107267
C24   C     C_R   0.715005 0.247396 0.305281 0.097837
C25   C     C_3   0.504903 0.260823 0.292496 -0.399226
C26   C     C_3   0.517318 0.191098 0.222347 -0.388085
H10   H     H_    0.470908 0.331559 0.270646 0.189954
H11   H     H_    0.418939 0.236231 0.346419 0.166499
H12   H     H_    0.489788 0.221172 0.159850 0.205018
H13   H     H_    0.439233 0.126005 0.235837 0.157219
C27   C     C_R   0.509683 0.684054 0.740365 0.096186
C28   C     C_R   0.353319 0.682554 0.685413 -0.108530
C29   C     C_R   0.200703 0.743458 0.701776 -0.179998
H14   H     H_    0.077537 0.745127 0.660972 0.133549
C30   C     C_R   0.211486 0.807377 0.767462 -0.180176
H15   H     H_    0.095317 0.855800 0.775620 0.123566
C31   C     C_R   0.375892 0.812886 0.818428 -0.108217
C32   C     C_R   0.520841 0.747786 0.805111 0.118457
C33   C     C_3   0.729971 0.763044 0.791421 -0.408441
C34   C     C_3   0.718130 0.693639 0.721090 -0.408995
H16   H     H_    0.817861 0.738844 0.844863 0.185098
H17   H     H_    0.761174 0.834172 0.769736 0.164276
H18   H     H_    0.800044 0.629603 0.733939 0.172996
H19   H     H_    0.742775 0.724336 0.658602 0.169761
C35   C     C_R   0.506558 0.682249 0.258117 0.133951
C36   C     C_R   0.352760 0.682292 0.314415 -0.116944
C37   C     C_R   0.201444 0.744325 0.299001 -0.178480
H20   H     H_    0.079210 0.746661 0.340387 0.131744
C38   C     C_R   0.212672 0.808555 0.233473 -0.177124
H21   H     H_    0.098187 0.858186 0.226208 0.125805
C39   C     C_R   0.375832 0.812876 0.181574 -0.115792
C40   C     C_R   0.518090 0.746054 0.193497 0.129567
C41   C     C_3   0.729139 0.757751 0.204792 -0.412946
C42   C     C_3   0.716693 0.687812 0.274909 -0.402431
H22   H     H_    0.766534 0.828118 0.226490 0.161086
H23   H     H_    0.812135 0.732690 0.150234 0.191284
H24   H     H_    0.747691 0.717363 0.337255 0.164606
H25   H     H_    0.791718 0.622140 0.260727 0.185438
O11   O     O_R   0.229140 0.916090 0.913340 -0.542639
O12   O     O_R   0.558860 0.905090 0.086080 -0.540895
O13   O     O_R   0.729100 0.083920 0.086690 -0.538140
C43   C     C_R   0.389788 0.883153 0.114937 0.695264
O14   O     O_R   0.558860 0.905090 0.913930 -0.539888
O15   O     O_R   0.729100 0.083920 0.913310 -0.536727
C44   C     C_R   0.389760 0.883181 0.885063 0.699532
O16   O     O_R   0.229140 0.916080 0.086720 -0.540425
O17   O     O_3   0.395570 0.058660 0.000020 -0.363955
V3    V     V_3+5 0.670450 0.989140 0.000000 1.413595
O18   O     O_R   0.058810 0.094980 0.913910 -0.535147
C45   C     C_R   0.890086 0.116773 0.885336 0.696092
O19   O     O_R   0.058810 0.094980 0.086060 -0.544270
C46   C     C_R   0.889970 0.117235 0.114615 0.690502
V4    V     V_3+5 0.170450 0.010950 0.999970 1.422235
O20   O     O_3   0.895460 0.941370 0.999990 -0.372105
Br1   Br    Br    0.533080 0.412168 0.029516 -0.599320

loop_
_geom_bond_atom_site_label_1
_geom_bond_atom_site_label_2
_ccdc_geom_bond_type
C43   O16   A    
C1    C28   S    
C40   C41   S    
C6    C7    A    
C1    O6    A    
O15   C45   A    
C28   C29   A    
C23   C24   A    
C12   C15   A    
C16   H6    S    
C13   C14   A    
O13   V3    S    
C41   H22   S    
C33   H17   S    
C15   C16   A    
O14   C44   A    
C27   C34   S    
O5    C3    A    
C17   C18   A    
V2    O10   S    
O16   V4    S    
C30   H15   S    
C33   H16   S    
C5    C6    A    
C20   C46   S    
C19   C24   A    
O11   C44   A    
C29   H14   S    
O8    V2    S    
C15   H5    S    
C37   H20   S    
C41   H23   S    
C38   H21   S    
O1    V2    S    
C10   C14   A    
C4    C14   S    
O7    V1    S    
O12   V3    S    
C21   C22   A    
C35   C36   A    
C7    Br1   S    
C32   C33   S    
O13   C46   A    
C8    C9    A    
H1    C17   S    
C22   C23   A    
C31   C44   S    
O12   C43   A    
O18   V4    S    
C26   H12   S    
C29   C30   A    
O17   V4    S    
C41   C42   S    
C36   C37   A    
C11   C12   A    
C6    H3    S    
C20   C21   A    
O4    C2    A    
O15   V3    S    
C26   H13   S    
C8    H4    S    
C12   C13   A    
C24   C25   S    
C35   C40   A    
C5    C10   A    
C18   H7    S    
C33   C34   S    
V3    O20   S    
C34   H18   S    
O2    C1    A    
C16   C17   A    
C27   C32   A    
C25   H11   S    
O19   V4    S    
C7    C8    A    
C19   C26   S    
O3    C4    A    
C21   H8    S    
O6    V2    S    
O9    V2    S    
C9    C11   A    
C5    H2    S    
C22   H9    S    
O11   V4    S    
O2    V1    S    
C11   C45   S    
C27   C28   A    
C25   C26   S    
O1    C2    A    
C39   C40   A    
O5    V1    S    
O8    C3    A    
C31   C32   A    
O4    V1    S    
C3    C23   S    
O3    V1    S    
V1    O10   S    
O18   C45   A    
C19   C20   A    
C35   C42   S    
O19   C46   A    
C30   C31   A    
O7    V2    S    
V4    O20   S    
C42   H24   S    
C39   C43   S    
C2    C36   S    
C25   H10   S    
C34   H19   S    
C13   C18   A    
O17   V3    S    
C37   C38   A    
O14   V3    S    
C9    C10   A    
C38   C39   A    
O9    C4    A    
C42   H25   S    
