data_mof_unit_61443.cif
_audit_creation_date              2012-10-26T19:51:07-0400
_audit_creation_method            fapswitch 2.2
_symmetry_space_group_name_H-M    P1
_symmetry_Int_Tables_number       1
_space_group_crystal_system       triclinic
_cell_length_a                    19.503212
_cell_length_b                    18.119586
_cell_length_c                    14.357312
_cell_angle_alpha                 89.969599
_cell_angle_beta                  90.376574
_cell_angle_gamma                 90.34683
_cell_volume                      5073.52916096

loop_
_atom_site_label
_atom_site_type_symbol
_atom_type_description
_atom_site_fract_x
_atom_site_fract_y
_atom_site_fract_z
_atom_type_partial_charge
C1    C     C_R   0.367409 0.499748 0.500446 0.575363
C2    C     C_R   0.541608 0.279205 0.560353 0.075816
C3    C     C_R   0.541304 0.721247 0.560748 0.049708
C4    C     C_R   0.458696 0.278753 0.439252 0.049707
C5    C     C_R   0.457632 0.798246 0.438550 -0.116810
C6    C     C_R   0.542368 0.201754 0.561450 -0.116810
C7    C     C_R   0.542103 0.798704 0.561891 -0.136288
C8    C     C_R   0.457897 0.201296 0.438108 -0.136288
C9    C     C_R   0.499923 0.838215 0.500172 0.022356
C10   C     C_R   0.500077 0.161785 0.499828 0.022356
C11   C     C_R   0.475802 0.960771 0.578084 -0.024515
C12   C     C_R   0.632591 0.500252 0.499554 0.575363
C13   C     C_R   0.524198 0.039229 0.421916 -0.024515
C14   C     C_R   0.524188 0.961019 0.422021 -0.027289
C15   C     C_R   0.475812 0.038981 0.577978 -0.027289
C16   C     C_R   0.500014 0.078830 0.499897 -0.027966
C17   C     C_R   0.499986 0.921170 0.500103 -0.027966
C18   C     C_R   0.500014 0.500011 0.330824 0.535156
C19   C     C_R   0.499986 0.499989 0.669176 0.535155
C20   C     C_1   0.500054 0.500022 0.228585 -0.037870
C21   C     C_1   0.499946 0.499978 0.771415 -0.037870
C22   C     C_1   0.500055 0.500013 0.143244 -0.036954
C23   C     C_R   0.964272 0.528827 0.575691 -0.105548
C24   C     C_1   0.499945 0.499987 0.856756 -0.036954
C25   C     C_1   0.500020 0.500004 0.042673 0.005928
C26   C     C_1   0.499980 0.499996 0.957327 0.005928
C27   C     C_R   0.744383 0.437893 0.466731 0.221894
C28   C     C_R   0.255617 0.562107 0.533270 0.221894
C29   C     C_R   0.254433 0.435145 0.475859 0.225752
C30   C     C_R   0.745567 0.564855 0.524139 0.225751
C31   C     C_R   0.815987 0.437953 0.468172 -0.113630
C32   C     C_R   0.184013 0.562047 0.531829 -0.113630
C33   C     C_R   0.182716 0.436739 0.474079 -0.117195
C34   C     C_R   0.035728 0.471173 0.424309 -0.105548
C35   C     C_R   0.817284 0.563262 0.525919 -0.117196
C36   C     C_R   0.852679 0.500344 0.497634 -0.063038
C37   C     C_R   0.147321 0.499657 0.502366 -0.063038
C38   C     C_R   0.708335 0.500901 0.497341 0.020009
C39   C     C_R   0.291665 0.499099 0.502659 0.020009
C40   C     C_3   0.702316 0.376028 0.341614 -0.094362
C41   C     C_3   0.297685 0.623969 0.658389 -0.094362
C42   C     C_3   0.282252 0.316460 0.510200 -0.102494
C43   C     C_3   0.717747 0.683540 0.489796 -0.102495
C44   C     C_1   0.449174 0.920930 0.657815 0.214337
C45   C     C_R   0.035651 0.528967 0.576636 -0.109948
C46   C     C_1   0.550826 0.079070 0.342185 0.214337
C47   C     C_1   0.550818 0.921456 0.342402 0.206060
C48   C     C_1   0.449182 0.078544 0.657598 0.206060
C49   C     C_R   0.964349 0.471034 0.423364 -0.109948
C50   C     C_R   0.071888 0.500114 0.500972 0.035729
C51   C     C_R   0.928112 0.499887 0.499028 0.035728
C52   C     C_R   0.458392 0.720795 0.439647 0.075816
Cu1   Cu    Cu3+1 0.500000 0.573360 0.500000 0.969256
Cu2   Cu    Cu3+1 0.500000 0.426640 0.500000 0.969255
H1    H     H_    0.842840 0.388547 0.447246 0.136453
H2    H     H_    0.574429 0.309654 0.607867 0.136837
H3    H     H_    0.573954 0.691148 0.608435 0.156190
H4    H     H_    0.426046 0.308852 0.391564 0.156190
H5    H     H_    0.424168 0.826806 0.390235 0.112285
H6    H     H_    0.575831 0.173194 0.609765 0.112286
H7    H     H_    0.575541 0.827612 0.610284 0.111124
H8    H     H_    0.424459 0.172388 0.389716 0.111124
H9    H     H_    0.672449 0.425020 0.318515 0.108152
H10   H     H_    0.673242 0.326109 0.319670 0.162171
H11   H     H_    0.752919 0.374825 0.306259 0.104491
H12   H     H_    0.157160 0.611453 0.552756 0.136453
H13   H     H_    0.326759 0.673887 0.680335 0.162171
H14   H     H_    0.327552 0.574976 0.681486 0.108152
H15   H     H_    0.247082 0.625170 0.693745 0.104491
H16   H     H_    0.303894 0.333959 0.578749 0.129783
H17   H     H_    0.312198 0.268360 0.486133 0.138652
H18   H     H_    0.228258 0.297582 0.518163 0.109376
H19   H     H_    0.687801 0.731640 0.513861 0.138653
H20   H     H_    0.696105 0.666039 0.421247 0.129783
H21   H     H_    0.771742 0.702418 0.481832 0.109377
H22   H     H_    0.154620 0.388356 0.450726 0.128136
H23   H     H_    0.845380 0.611645 0.549271 0.128136
H24   H     H_    0.937297 0.550438 0.635370 0.112183
H25   H     H_    0.062702 0.449563 0.364630 0.112183
H26   H     H_    0.062556 0.550589 0.637053 0.103510
H27   H     H_    0.937443 0.449411 0.362946 0.103510
H28   H     H_    0.425571 0.690346 0.392133 0.136836
N1    N     N_R   0.500000 0.683620 0.500000 -0.219579
N2    N     N_R   0.500000 0.316380 0.500000 -0.219579
N3    N     N_1   0.427925 0.889093 0.721398 -0.279520
N4    N     N_1   0.572075 0.110907 0.278602 -0.279521
N5    N     N_1   0.572070 0.889843 0.278906 -0.283134
N6    N     N_1   0.427930 0.110157 0.721094 -0.283133
O1    O     O_R   0.400190 0.561980 0.499990 -0.458188
O2    O     O_3   0.289871 0.625546 0.560717 -0.544292
O3    O     O_3   0.287936 0.373260 0.443331 -0.556751
O4    O     O_3   0.712064 0.626741 0.556666 -0.556751
O5    O     O_R   0.599810 0.438020 0.500010 -0.458188
O6    O     O_R   0.599810 0.561980 0.500010 -0.469644
O7    O     O_R   0.400190 0.438020 0.499990 -0.469644
O8    O     O_R   0.500000 0.561970 0.376060 -0.495799
O9    O     O_R   0.500000 0.438030 0.623940 -0.495799
O10   O     O_R   0.500000 0.561970 0.623940 -0.485891
O11   O     O_R   0.500000 0.438030 0.376060 -0.485891
O12   O     O_3   0.710129 0.374453 0.439287 -0.544293

loop_
_geom_bond_atom_site_label_1
_geom_bond_atom_site_label_2
_ccdc_geom_bond_type
C43   H19   S    
C23   C45   A    
C18   O8    A    
C2    N2    A    
C35   C36   A    
C4    C8    A    
Cu2   N2    S    
C19   O9    A    
C41   H13   S    
Cu1   Cu2   S    
C40   H9    S    
C30   C35   A    
C32   H12   S    
C19   C21   S    
C24   C26   S    
C3    C7    A    
C13   C46   S    
C27   C38   A    
C15   C16   A    
C29   C33   A    
C42   H16   S    
C30   C38   A    
C42   O3    S    
C49   H27   S    
C7    H7    S    
Cu2   O5    S    
C11   C15   A    
C49   C51   A    
C22   C25   S    
C48   N6    T    
C5    C52   A    
C43   H20   S    
C41   O2    S    
C13   C14   A    
Cu1   O8    S    
C14   C17   A    
C12   O6    A    
C2    C6    A    
C15   C48   S    
C19   O10   A    
C41   H14   S    
C43   H21   S    
C27   O12   S    
C34   C50   A    
C5    H5    S    
C27   C31   A    
C6    H6    S    
C28   C32   A    
C30   O4    S    
C28   C39   A    
C25   C26   T    
C35   H23   S    
C33   C37   A    
C47   N5    T    
C52   N1    A    
C5    C9    A    
C34   H25   S    
C33   H22   S    
C23   C51   A    
C4    N2    A    
C1    O7    A    
C29   C39   A    
C42   H18   S    
C11   C44   S    
Cu2   O9    S    
C32   C37   A    
C52   H28   S    
Cu2   O7    S    
C36   C51   S    
C3    H3    S    
C9    C17   S    
C20   C22   T    
C40   H11   S    
Cu1   O1    S    
C12   O5    A    
C21   C24   T    
C18   O11   A    
C44   N3    T    
C29   O3    S    
C41   H15   S    
C7    C9    A    
C11   C17   A    
C34   C49   A    
C1    O1    A    
Cu1   O6    S    
C40   O12   S    
C28   O2    S    
C14   C47   S    
Cu1   O10   S    
C43   O4    S    
C40   H10   S    
Cu1   N1    S    
C2    H2    S    
C3    N1    A    
C37   C50   S    
C45   C50   A    
C42   H17   S    
C45   H26   S    
C18   C20   S    
C23   H24   S    
C12   C38   S    
Cu2   O11   S    
C6    C10   A    
C1    C39   S    
C8    C10   A    
C13   C16   A    
C4    H4    S    
C31   C36   A    
C10   C16   S    
C31   H1    S    
C8    H8    S    
C46   N4    T    
