data_mof_unit_22719.cif
_audit_creation_date              2012-12-10T20:43:59-0500
_audit_creation_method            fapswitch 2.2
_symmetry_space_group_name_H-M    P1
_symmetry_Int_Tables_number       1
_space_group_crystal_system       triclinic
_cell_length_a                    17.383507
_cell_length_b                    10.682731
_cell_length_c                    9.843256
_cell_angle_alpha                 90.29112
_cell_angle_beta                  90.012111
_cell_angle_gamma                 90.063926
_cell_volume                      1827.90063244

loop_
_atom_site_label
_atom_site_type_symbol
_atom_type_description
_atom_site_fract_x
_atom_site_fract_y
_atom_site_fract_z
_atom_type_partial_charge
C1    C     C_R   0.497901 0.259736 0.499666 0.875888
C2    C     C_R   0.886229 0.417967 0.511131 0.026844
C3    C     C_1   0.967370 0.404339 0.518620 -0.016303
C4    C     C_1   0.035761 0.405904 0.524178 0.014610
C5    C     C_R   0.146535 0.520736 0.610062 0.139865
C6    C     C_R   0.222956 0.560868 0.589753 0.360169
C7    C     C_R   0.270095 0.490468 0.500405 -0.211279
C8    C     C_R   0.238968 0.393300 0.421619 -0.262880
C9    C     C_R   0.161914 0.362851 0.432564 -0.198281
C10   C     C_R   0.116418 0.424883 0.527431 0.046356
C11   C     C_R   0.479515 0.064936 0.621812 0.048228
C12   C     C_R   0.353176 0.502787 0.499970 0.960628
C13   C     C_R   0.484758 0.128425 0.499237 -0.122753
C14   C     C_R   0.472301 0.063879 0.376839 -0.198762
C15   C     C_R   0.470722 0.934393 0.377831 -0.149398
C16   C     C_R   0.480933 0.871244 0.501299 -0.165637
C17   C     C_R   0.474686 0.937254 0.623797 0.182241
C18   C     C_3   0.520552 0.929669 0.752526 0.311795
C19   C     C_3   0.529301 0.071210 0.745307 -0.553205
C20   C     C_R   0.454002 0.419243 0.071051 0.153568
C21   C     C_R   0.551581 0.569710 0.072470 -0.088279
C22   C     C_R   0.551806 0.569374 0.928272 -0.041195
C23   C     C_R   0.496558 0.740245 0.500423 0.916791
C24   C     C_R   0.455059 0.416449 0.928417 0.129895
C25   C     C_3   0.368961 0.402607 0.923676 -0.024416
C26   C     C_3   0.368718 0.412324 0.077979 -0.516337
C27   C     C_R   0.646998 0.496206 0.500204 0.882990
C28   C     C_R   0.844358 0.426957 0.632637 0.218299
C29   C     C_R   0.766236 0.453672 0.627422 -0.274460
C30   C     C_R   0.729754 0.474018 0.502598 -0.120188
C31   C     C_R   0.771535 0.463833 0.381450 -0.213237
C32   C     C_R   0.849875 0.435160 0.384228 0.206700
H1    H     H_    0.467738 0.884782 0.281813 0.225880
H2    H     H_    0.575525 0.877489 0.741383 0.051947
H3    H     H_    0.502243 0.124515 0.829695 0.237968
H4    H     H_    0.589013 0.101190 0.721071 0.170050
H5    H     H_    0.591660 0.628726 0.127338 0.157159
H6    H     H_    0.591771 0.628614 0.874090 0.143844
H7    H     H_    0.338201 0.480511 0.872667 0.221462
H8    H     H_    0.342594 0.500783 0.116005 0.215403
H9    H     H_    0.734479 0.459476 0.721978 0.167505
H10   H     H_    0.348878 0.326438 0.130943 0.208241
H11   H     H_    0.743543 0.478792 0.284529 0.169248
H12   H     H_    0.274831 0.339201 0.353145 0.174471
H13   H     H_    0.137859 0.290490 0.367644 0.167433
H14   H     H_    0.469748 0.111918 0.280259 0.191691
N1    N     N_R   0.499490 0.499140 0.142800 -0.108255
N2    N     N_R   0.499490 0.499180 0.857150 -0.100122
O1    O     O_R   0.500010 0.316790 0.614690 -0.620950
O2    O     O_R   0.500000 0.316760 0.385350 -0.624518
O3    O     O_R   0.389120 0.500020 0.614710 -0.581603
O4    O     O_R   0.389110 0.499990 0.385370 -0.619815
O5    O     O_R   0.500000 0.683240 0.614650 -0.563413
O6    O     O_R   0.499990 0.683210 0.385310 -0.618153
O7    O     O_R   0.610890 0.500010 0.614630 -0.635072
O8    O     O_R   0.610880 0.499980 0.385290 -0.625398
Zn1   Zn    Zn3+2 0.500010 0.500020 0.653130 0.999720
Zn2   Zn    Zn3+2 0.499990 0.499980 0.346870 0.960645
N3    N     N_2   0.880816 0.411022 0.760773 -0.304327
H15   H     H_    0.850653 0.352087 0.824202 0.221368
C33   C     C_3   0.900045 0.527672 0.827838 -0.761284
H16   H     H_    0.846998 0.581445 0.851808 0.231229
H17   H     H_    0.938134 0.584974 0.762187 0.269569
H18   H     H_    0.930532 0.507953 0.924378 0.242198
S1    S     S_3+6 0.462808 0.881064 0.894206 0.029480
O9    O     O_2   0.513044 0.874740 0.018190 -0.365165
O10   O     O_2   0.398507 0.972133 0.919169 -0.304129
O11   O     O_3   0.424221 0.739801 0.863462 -0.466119
H19   H     H_    0.399954 0.715072 0.950356 0.378742
N4    N     N_2   0.344848 0.277962 0.881326 -0.282740
H20   H     H_    0.381478 0.206000 0.906378 0.273394
C34   C     C_3   0.308166 0.265073 0.750519 -0.669981
H21   H     H_    0.281729 0.170701 0.742245 0.248804
H22   H     H_    0.351166 0.274539 0.668281 0.238747
H23   H     H_    0.261831 0.335578 0.739304 0.227022
N5    N     N_2   0.891354 0.428352 0.259292 -0.308842
H24   H     H_    0.949633 0.445186 0.265590 0.231880
C35   C     C_3   0.873139 0.320579 0.175670 -0.795340
H25   H     H_    0.907058 0.324074 0.080225 0.240279
H26   H     H_    0.811136 0.319912 0.148439 0.245739
H27   H     H_    0.887805 0.232987 0.230306 0.246808
N6    N     N_2   0.099936 0.572123 0.715693 -0.298274
H28   H     H_    0.104345 0.667059 0.731236 0.298474
C36   C     C_3   0.102860 0.501637 0.840731 -0.738102
H29   H     H_    0.162933 0.495779 0.878825 0.260719
H30   H     H_    0.067323 0.548726 0.919384 0.237413
H31   H     H_    0.079981 0.405630 0.824061 0.250962
S2    S     S_3+6 0.255227 0.703163 0.666241 0.018528
O12   O     O_2   0.258475 0.687584 0.817720 -0.318809
O13   O     O_2   0.332763 0.741986 0.614661 -0.275600
O14   O     O_3   0.192616 0.817959 0.629060 -0.577674
H32   H     H_    0.211549 0.892213 0.679731 0.391408

loop_
_geom_bond_atom_site_label_1
_geom_bond_atom_site_label_2
_ccdc_geom_bond_type
C22   N2    A    
C24   C25   S    
C9    H13   S    
C36   H31   S    
C6    S2    S    
N2    Zn1   S    
C14   H14   S    
C18   S1    S    
C11   C19   S    
C31   H11   S    
C28   C29   A    
N5    C35   S    
C19   H4    S    
C5    C6    A    
C35   H26   S    
C15   C16   A    
C22   H6    S    
O1    Zn1   S    
C2    C32   A    
C18   C19   S    
C33   H17   S    
O11   H19   S    
C20   C24   A    
C8    C9    A    
S1    O10   D    
N4    H20   S    
O3    Zn1   S    
C1    O2    A    
N3    H15   S    
C21   C22   A    
C27   C30   S    
C34   H23   S    
C9    C10   A    
C12   O4    A    
C23   O5    A    
C7    C12   S    
N3    C33   S    
O2    Zn2   S    
C7    C8    A    
C36   H29   S    
C34   H22   S    
O14   H32   S    
O5    Zn1   S    
C35   H25   S    
C16   C17   A    
C25   C26   S    
C24   N2    A    
C33   H18   S    
C29   C30   A    
C31   C32   A    
S2    O14   S    
S1    O11   S    
C17   C18   S    
N5    H24   S    
C18   H2    S    
O4    Zn2   S    
S2    O13   D    
S1    O9    D    
C16   C23   S    
N6    C36   S    
O7    Zn1   S    
C1    C13   S    
C4    C10   S    
C3    C4    T    
C12   O3    A    
C26   H10   S    
C23   O6    A    
O6    Zn2   S    
C28   N3    S    
C11   C17   A    
C29   H9    S    
C27   O8    A    
C8    H12   S    
C36   H30   S    
C34   H21   S    
C32   N5    S    
N4    C34   S    
C6    C7    A    
C2    C3    S    
C5    C10   A    
C19   H3    S    
C25   H7    S    
N1    Zn2   S    
C5    N6    S    
C11   C13   A    
C35   H27   S    
C26   H8    S    
C30   C31   A    
C20   C26   S    
O8    Zn2   S    
C27   O7    A    
C33   H16   S    
C20   N1    A    
C21   H5    S    
S2    O12   D    
N6    H28   S    
C14   C15   A    
C2    C28   A    
C25   N4    S    
C13   C14   A    
C1    O1    A    
C15   H1    S    
C21   N1    A    
