data_mof_unit_15548.cif
_audit_creation_date              2013-03-05T15:43:29-0500
_audit_creation_method            fapswitch 2.2
_symmetry_space_group_name_H-M    P1
_symmetry_Int_Tables_number       1
_space_group_crystal_system       triclinic
_cell_length_a                    14.56308
_cell_length_b                    15.969695
_cell_length_c                    6.928429
_cell_angle_alpha                 90.08171
_cell_angle_beta                  80.975004
_cell_angle_gamma                 89.881578
_cell_volume                      1591.37633085

loop_
_atom_site_label
_atom_site_type_symbol
_atom_site_description
_atom_site_fract_x
_atom_site_fract_y
_atom_site_fract_z
_atom_type_partial_charge
O1    O     O_R   0.337460 0.413110 0.524760 -0.567212
O2    O     O_R   0.662540 0.913110 0.475240 -0.571555
O3    O     O_R   0.348690 0.587910 0.191230 -0.565138
O4    O     O_R   0.651310 0.087910 0.808770 -0.562514
O5    O     O_R   0.166530 0.586890 0.082470 -0.543053
O6    O     O_R   0.833470 0.086890 0.917530 -0.523581
C1    C     C_R   0.370742 0.616497 0.353494 0.832925
C2    C     C_R   0.627887 0.115440 0.646963 0.843375
O7    O     O_R   0.348700 0.413830 0.191250 -0.569515
O8    O     O_R   0.651300 0.913830 0.808750 -0.572570
O9    O     O_R   0.166530 0.411570 0.082490 -0.553585
O10   O     O_R   0.833470 0.911570 0.917510 -0.563592
C3    C     C_R   0.370590 0.384928 0.353282 0.840601
C4    C     C_R   0.628820 0.885475 0.646643 0.829829
O11   O     O_R   0.337460 0.588430 0.524740 -0.565267
O12   O     O_R   0.662540 0.088430 0.475260 -0.564763
O13   O     O_3   0.192230 0.499460 0.407330 -0.248679
O14   O     O_3   0.807770 0.999460 0.592670 -0.222459
V1    V     V_3+5 0.263080 0.500100 0.108540 1.158545
V2    V     V_3+5 0.736920 0.000100 0.891460 1.169597
O15   O     O_R   0.155290 0.412090 0.756570 -0.566764
O16   O     O_R   0.844710 0.912090 0.243430 -0.567667
C5    C     C_R   0.133360 0.382723 0.932477 0.837267
C6    C     C_R   0.865637 0.881700 0.067628 0.822466
O17   O     O_R   0.155290 0.586170 0.756550 -0.565176
O18   O     O_R   0.844710 0.086170 0.243450 -0.528048
C7    C     C_R   0.131147 0.614023 0.934066 0.876296
C8    C     C_R   0.868234 0.115069 0.066360 0.869223
V3    V     V_3+5 0.240910 0.499900 0.616030 1.153991
V4    V     V_3+5 0.759090 0.999900 0.383970 1.180025
O19   O     O_3   0.311760 0.500540 0.867100 -0.282682
O20   O     O_3   0.688240 0.000540 0.132900 -0.289767
C9    C     C_3   0.004937 0.682813 0.186514 0.287911
C10   C     C_3   0.955664 0.215565 0.810125 0.281774
H1    H     H_    0.054985 0.689251 0.290097 0.014838
H2    H     H_    0.887973 0.240025 0.778327 0.061757
C11   C     C_3   0.936357 0.758249 0.222950 -0.202682
C12   C     C_3   0.027029 0.287933 0.774274 -0.201689
H3    H     H_    0.957262 0.798929 0.339143 0.060108
H4    H     H_    0.993301 0.343162 0.716402 0.076049
H5    H     H_    0.864563 0.736792 0.279463 0.131152
H6    H     H_    0.086808 0.270656 0.660473 0.137091
H7    H     H_    0.950546 0.615116 0.844223 0.171440
H8    H     H_    0.062179 0.102670 0.004511 0.147457
H9    H     H_    0.842076 0.721569 0.918223 0.121152
H10   H     H_    0.167352 0.211248 0.936005 0.113407
C13   C     C_3   0.985233 0.677074 0.831357 -0.209796
C14   C     C_3   0.035310 0.160144 0.084143 -0.250992
C15   C     C_3   0.106760 0.771999 0.923085 0.284998
C16   C     C_3   0.906320 0.264882 0.160399 0.273793
C17   C     C_3   0.059287 0.684227 0.970927 -0.174105
C18   C     C_3   0.939634 0.186688 0.030045 -0.110114
H11   H     H_    0.125965 0.772616 0.761099 0.068565
H12   H     H_    0.906157 0.244947 0.313790 0.085288
C19   C     C_3   0.935915 0.810175 0.033234 -0.108561
C20   C     C_3   0.063004 0.311803 0.965942 -0.110228
C21   C     C_3   0.912292 0.748882 0.872029 -0.192513
C22   C     C_3   0.107104 0.232482 0.044130 -0.202470
C23   C     C_3   0.035314 0.845391 0.967661 -0.210832
C24   C     C_3   0.977363 0.338503 0.114787 -0.209865
H13   H     H_    0.054026 0.889449 0.079097 0.095528
H14   H     H_    0.944816 0.393067 0.052184 0.127601
H15   H     H_    0.035790 0.883588 0.833098 0.090325
H16   H     H_    0.999492 0.359698 0.253502 0.108300
H17   H     H_    0.019323 0.680933 0.676165 0.100807
H18   H     H_    0.027811 0.143260 0.240496 0.169442
H19   H     H_    0.910106 0.783512 0.733541 0.102199
H20   H     H_    0.134032 0.247892 0.181631 0.107281
H21   H     H_    0.563747 0.808528 0.351432 0.114082
H22   H     H_    0.429724 0.303666 0.649015 0.115983
H23   H     H_    0.434115 0.694707 0.649091 0.125550
H24   H     H_    0.561122 0.190381 0.351912 0.123566
C25   C     C_2   0.439829 0.684320 0.342967 -0.226049
C26   C     C_2   0.556858 0.181884 0.657987 -0.230362
C27   C     C_2   0.464748 0.717534 0.505657 -0.090796
C28   C     C_2   0.530464 0.213562 0.495269 -0.097230
H25   H     H_    0.528662 0.794630 0.800361 0.067364
H26   H     H_    0.471148 0.293835 0.199603 0.066954
C29   C     C_2   0.559076 0.818153 0.657432 -0.216684
C30   C     C_2   0.439083 0.316379 0.342569 -0.226945
C31   C     C_2   0.533488 0.785436 0.494863 -0.092587
C32   C     C_2   0.461579 0.281484 0.505574 -0.100935
H27   H     H_    0.470369 0.707763 0.200072 0.068276
H28   H     H_    0.526606 0.205927 0.800776 0.070431
N1    N     N_R   0.956573 0.602816 0.234446 0.068183
O21   O     O_R   0.877897 0.586292 0.175735 -0.423451
O22   O     O_R   0.987109 0.551462 0.355685 -0.377663
N2    N     N_R   0.984664 0.146475 0.674135 0.062217
O23   O     O_R   0.067729 0.114232 0.656640 -0.416455
O24   O     O_R   0.930088 0.123322 0.553182 -0.371901
O25   O     O_3   0.194168 0.785379 0.986508 -0.656704
C33   C     C_3   0.191314 0.790840 0.191089 0.285711
H29   H     H_    0.205291 0.727948 0.248158 0.064757
H30   H     H_    0.124590 0.814951 0.270853 0.009114
C34   C     C_3   0.268516 0.849517 0.233281 -0.188131
H31   H     H_    0.336909 0.824722 0.162019 0.121547
H32   H     H_    0.258110 0.912362 0.171261 0.136223
C35   C     C_3   0.269187 0.858218 0.452548 -0.469305
H33   H     H_    0.203373 0.887466 0.524856 0.153198
H34   H     H_    0.328196 0.898521 0.477881 0.152684
H35   H     H_    0.277359 0.795921 0.518922 0.141771
O26   O     O_3   0.814918 0.288315 0.132903 -0.671276
C36   C     C_3   0.774362 0.350363 0.267888 0.247455
H36   H     H_    0.707316 0.368492 0.222019 0.085125
H37   H     H_    0.816200 0.408577 0.260644 0.104219
C37   C     C_3   0.754424 0.319084 0.479973 -0.211397
H38   H     H_    0.725542 0.254982 0.482644 0.140799
H39   H     H_    0.819747 0.317549 0.543403 0.103153
C38   C     C_3   0.686826 0.376884 0.608229 -0.462424
H40   H     H_    0.717270 0.440439 0.612970 0.158881
H41   H     H_    0.672855 0.351606 0.759234 0.151292
H42   H     H_    0.620020 0.381562 0.550870 0.136789

loop_
_geom_bond_atom_site_label_1
_geom_bond_atom_site_label_2
_geom_bond_distance
_ccdc_geom_bond_type
H23   C27   1.087242 S    
C19   C23   1.554305 S    
O13   V3    1.707348 S    
C34   H31   1.111812 S    
H24   C28   1.087221 S    
V1    O19   1.711400 S    
C34   C35   1.526878 S    
C5    C20   1.522270 S    
C1    C25   1.473910 S    
N1    O21   1.301945 A    
C6    C19   1.525415 S    
O9    V1    2.023739 S    
C16   H12   1.109500 S    
C26   C28   1.345888 D    
C21   H19   1.112888 S    
C12   H6    1.112980 S    
O3    C1    1.299177 A    
C38   H41   1.110728 S    
H26   C30   1.087192 S    
C37   H38   1.106607 S    
O12   V4    2.021414 S    
C24   H14   1.111721 S    
C9    N1    1.473091 S    
O7    C3    1.299270 A    
O13   V1    2.163376 S    
O5    C7    1.295013 A    
O7    V1    2.000128 S    
O6    C8    1.298277 A    
O8    V2    2.002552 S    
C15   C17   1.576716 S    
C16   C18   1.570739 S    
O3    V1    2.019423 S    
O14   V4    1.707352 S    
V4    O20   2.157252 S    
C10   H2    1.113416 S    
O4    C2    1.298921 A    
C1    O11   1.290555 A    
C3    C30   1.473379 S    
C2    O12   1.290439 A    
H10   C22   1.112580 S    
C25   C27   1.345744 D    
C15   O25   1.426697 S    
H22   C32   1.087224 S    
O1    V3    2.002102 S    
C7    C17   1.525720 S    
O11   V3    2.026732 S    
N1    O22   1.301361 A    
O17   V3    2.002223 S    
C23   H13   1.109352 S    
C30   C32   1.345540 D    
O8    C4    1.299304 A    
C38   H42   1.109565 S    
C28   C32   1.469974 S    
O25   C33   1.414061 S    
C29   C31   1.345850 D    
C27   C31   1.471341 S    
C13   C17   1.561589 S    
O15   V3    2.024729 S    
C33   C34   1.527830 S    
C9    C11   1.558055 S    
C9    C17   1.577126 S    
C20   C24   1.547212 S    
C11   C19   1.556003 S    
C13   C21   1.556584 S    
H9    C21   1.112604 S    
O10   V2    2.020034 S    
C2    C26   1.473841 S    
H25   C29   1.087238 S    
C36   H37   1.109461 S    
C10   N2    1.467569 S    
C4    C29   1.474449 S    
O18   V4    2.007671 S    
C22   H20   1.113044 S    
N2    O24   1.296127 A    
C16   O26   1.423324 S    
C35   H34   1.110328 S    
O15   C5    1.299014 A    
O16   C6    1.301249 A    
C23   H15   1.113984 S    
O1    C3    1.290194 A    
V2    O20   1.711369 S    
O16   V4    2.019228 S    
C10   C12   1.549921 S    
O18   C8    1.306205 A    
C26   H28   1.087071 S    
C34   H32   1.111713 S    
C14   C22   1.555473 S    
O5    V1    2.000751 S    
O17   C7    1.302406 A    
C35   H35   1.110572 S    
O6    V2    2.004417 S    
O10   C6    1.296956 A    
C10   C18   1.574702 S    
C15   C23   1.563564 S    
C24   H16   1.113001 S    
O2    V4    2.007368 S    
C16   C24   1.567187 S    
C19   C21   1.562920 S    
V3    O19   2.157247 S    
C38   H40   1.110915 S    
C12   H4    1.113966 S    
C8    C18   1.541508 S    
C33   H30   1.107820 S    
C37   H39   1.108969 S    
C15   H11   1.113312 S    
O9    C5    1.297262 A    
C33   H29   1.109986 S    
C9    H1    1.105012 S    
C20   C22   1.555086 S    
C36   C37   1.536823 S    
O14   V2    2.163326 S    
C11   H5    1.112358 S    
O26   C36   1.423721 S    
O2    C4    1.290590 A    
H21   C31   1.087221 S    
O4    V2    2.016977 S    
C14   C18   1.556724 S    
C12   C20   1.549494 S    
N2    O23   1.301695 A    
C11   H3    1.113110 S    
C35   H33   1.111146 S    
C36   H36   1.111133 S    
C14   H18   1.105427 S    
H7    C13   1.109198 S    
C25   H27   1.087087 S    
C13   H17   1.113217 S    
H8    C14   1.108730 S    
C37   C38   1.526497 S    
