data_mof_unit_42314.cif
_audit_creation_date              2012-10-26T17:54:38-0400
_audit_creation_method            fapswitch 2.2
_symmetry_space_group_name_H-M    P1
_symmetry_Int_Tables_number       1
_space_group_crystal_system       triclinic
_cell_length_a                    18.929256
_cell_length_b                    18.945133
_cell_length_c                    18.847363
_cell_angle_alpha                 109.160933
_cell_angle_beta                  109.643346
_cell_angle_gamma                 109.956813
_cell_volume                      5180.45344741

loop_
_atom_site_label
_atom_site_type_symbol
_atom_type_description
_atom_site_fract_x
_atom_site_fract_y
_atom_site_fract_z
_atom_type_partial_charge
C1    C     C_R   0.618636 0.118730 0.000205 0.543261
C2    C     C_R   0.488997 0.753835 0.671199 -0.010890
C3    C     C_R   0.488734 0.818443 0.735136 -0.033624
C4    C     C_R   0.501825 0.118715 0.118821 0.596229
C5    C     C_R   0.506239 0.820564 0.815252 -0.050825
C6    C     C_R   0.333297 0.811304 0.082275 -0.068145
C7    C     C_R   0.271319 0.740529 0.078383 -0.071620
C8    C     C_R   0.187894 0.685389 0.003108 0.009773
C9    C     C_R   0.165880 0.699322 0.932347 0.232266
C10   C     C_R   0.226720 0.770182 0.936627 0.223311
C11   C     C_R   0.312857 0.821909 0.008077 -0.015231
C12   C     C_R   0.807687 0.229742 0.975000 0.286045
C13   C     C_R   0.618835 0.503202 0.621649 0.573979
C14   C     C_R   0.496354 0.385323 0.381332 0.515316
C15   C     C_R   0.381406 0.503616 0.385175 0.496277
C16   C     C_R   0.380839 0.884422 0.003334 0.624482
C17   C     C_R   0.498973 0.621120 0.619883 0.531622
C18   C     C_R   0.882786 0.501963 0.881314 0.628594
C19   C     C_R   0.882477 0.380852 0.001453 0.564879
C20   C     C_R   0.119450 0.500200 0.118823 0.615910
C21   C     C_R   0.119515 0.618521 0.001016 0.670047
C22   C     C_R   0.755911 0.583498 0.763610 -0.046092
C23   C     C_R   0.817063 0.312997 0.002988 -0.035566
C24   C     C_R   0.823395 0.584045 0.825636 -0.072070
C25   C     C_R   0.819079 0.504437 0.813185 -0.003128
C26   C     C_R   0.751844 0.425731 0.736231 0.232221
C27   C     C_R   0.683523 0.424612 0.674983 -0.028410
C28   C     C_R   0.502028 0.883910 0.881674 0.542929
C29   C     C_R   0.686445 0.503652 0.688384 -0.052319
C30   C     C_R   0.308105 0.476293 0.235297 -0.021784
C31   C     C_R   0.239269 0.468950 0.168239 0.249678
C32   C     C_R   0.187191 0.501567 0.187563 0.007268
C33   C     C_R   0.199971 0.535363 0.272735 0.227849
C34   C     C_R   0.764090 0.331920 0.033323 -0.157189
C35   C     C_R   0.256863 0.526074 0.334825 -0.041958
C36   C     C_R   0.314435 0.501988 0.317437 -0.121602
C37   C     C_2   0.441253 0.236031 0.268405 0.020560
C38   C     C_2   0.479464 0.322358 0.298021 0.184820
C39   C     C_2   0.433473 0.181209 0.186253 0.346094
C40   C     C_2   0.507506 0.185666 0.190601 0.284475
C41   C     C_R   0.736606 0.162421 0.965709 -0.043803
C42   C     C_2   0.425758 0.195279 0.321205 0.226500
C43   C     C_2   0.517527 0.616457 0.777361 0.273135
C44   C     C_2   0.478907 0.753943 0.589175 0.310884
C45   C     C_R   0.699180 0.268142 0.032422 0.225362
C46   C     C_2   0.472992 0.885306 0.719864 0.332200
C47   C     C_2   0.417277 0.875325 0.165426 0.258448
C48   C     C_2   0.293713 0.725495 0.153690 0.210575
C49   C     C_3   0.072888 0.589289 0.791336 0.034466
C50   C     C_3   0.982564 0.548076 0.713529 -0.251966
C51   C     C_3   0.965472 0.473350 0.633878 -0.496621
C52   C     C_3   0.162881 0.838433 0.885803 0.041579
C53   C     C_3   0.140292 0.863382 0.815472 -0.250978
C54   C     C_3   0.096800 0.917260 0.829267 -0.491425
C55   C     C_2   0.759259 0.667264 0.778402 0.223885
C56   C     C_R   0.685562 0.183714 0.998868 -0.039891
C57   C     C_2   0.897798 0.668558 0.903189 0.226377
C58   C     C_3   0.783339 0.326460 0.668744 0.040643
C59   C     C_3   0.785031 0.243882 0.659011 -0.222700
C60   C     C_3   0.822058 0.217508 0.601063 -0.489692
C61   C     C_3   0.575076 0.403153 0.266150 0.027465
C62   C     C_3   0.588698 0.486780 0.264382 -0.243031
C63   C     C_3   0.683841 0.546981 0.296001 -0.493063
C64   C     C_2   0.610322 0.340791 0.595667 0.259964
C65   C     C_2   0.371145 0.453686 0.218510 0.248848
C66   C     C_3   0.179494 0.343482 0.042946 0.041646
C67   C     C_R   0.527899 0.761316 0.832636 0.277642
C68   C     C_3   0.159894 0.305867 0.948982 -0.227007
C69   C     C_3   0.112371 0.206951 0.901717 -0.494348
C70   C     C_3   0.208532 0.662298 0.356063 0.057738
C71   C     C_3   0.196676 0.717253 0.314135 -0.269203
C72   C     C_3   0.250899 0.813751 0.381638 -0.467726
C73   C     C_2   0.256753 0.542867 0.417953 0.245096
C74   C     C_3   0.294001 0.146151 0.092906 0.000928
C75   C     C_3   0.223628 0.109246 0.114442 -0.249738
C76   C     C_3   0.155887 0.136004 0.088144 -0.501114
C77   C     C_3   0.661229 0.272429 0.266053 0.006144
C78   C     C_R   0.513736 0.689017 0.764322 0.006819
C79   C     C_3   0.723908 0.247407 0.311981 -0.237656
C80   C     C_3   0.805097 0.278468 0.303906 -0.472758
C81   C     C_2   0.713306 0.070160 0.918610 0.217751
C82   C     C_3   0.922582 0.206823 0.022767 0.028147
C83   C     C_3   0.986046 0.293506 0.108569 -0.293821
C84   C     C_3   0.054076 0.286698 0.173443 -0.477459
C85   C     C_3   0.578504 0.281905 0.008066 0.017898
C86   C     C_3   0.588097 0.371392 0.033031 -0.278579
C87   C     C_3   0.504640 0.364755 0.974620 -0.458914
C88   C     C_3   0.646669 0.793527 0.953990 0.043688
C89   C     C_R   0.498651 0.687947 0.685376 -0.082917
C90   C     C_3   0.709078 0.891095 0.996766 -0.269179
C91   C     C_3   0.803788 0.913233 0.035498 -0.484714
Cu1   Cu    Cu3+1 0.438200 0.000380 0.938580 0.966788
Cu2   Cu    Cu3+1 0.561800 0.999620 0.061420 0.963262
Cu3   Cu    Cu3+1 0.438220 0.441470 0.503160 0.955905
Cu4   Cu    Cu3+1 0.561830 0.565070 0.503150 0.969589
Cu5   Cu    Cu3+1 0.999900 0.438590 0.938490 0.984153
Cu6   Cu    Cu3+1 0.999930 0.561410 0.061340 0.986379
H1    H     H_    0.773268 0.396560 0.058361 0.151810
H2    H     H_    0.932328 0.523648 0.730857 0.171739
H3    H     H_    0.977062 0.598108 0.697441 0.174706
H4    H     H_    0.013597 0.497098 0.613975 0.168817
H5    H     H_    0.899085 0.444552 0.579055 0.140456
H6    H     H_    0.969808 0.422188 0.648343 0.140108
H7    H     H_    0.208607 0.899108 0.950372 0.155628
H8    H     H_    0.101913 0.801438 0.884499 0.184571
H9    H     H_    0.200736 0.901516 0.816815 0.183612
H10   H     H_    0.095446 0.803598 0.750560 0.173491
H11   H     H_    0.034973 0.879439 0.825867 0.153624
H12   H     H_    0.451553 0.233463 0.390204 0.132682
H13   H     H_    0.081992 0.935093 0.777744 0.152620
H14   H     H_    0.140684 0.977668 0.893591 0.146392
H15   H     H_    0.820883 0.725340 0.806550 0.097965
H16   H     H_    0.886426 0.719001 0.935540 0.088087
H17   H     H_    0.850803 0.378899 0.696370 0.124355
H18   H     H_    0.742155 0.314504 0.603060 0.134564
H19   H     H_    0.825708 0.254721 0.724241 0.190141
H20   H     H_    0.717751 0.190363 0.630051 0.210616
H21   H     H_    0.782149 0.205927 0.535286 0.157104
H22   H     H_    0.821393 0.156819 0.594463 0.164099
H23   H     H_    0.537752 0.577166 0.742573 0.160443
H24   H     H_    0.890289 0.269091 0.630233 0.136500
H25   H     H_    0.588689 0.367115 0.217832 0.144993
H26   H     H_    0.622937 0.419499 0.331612 0.149296
H27   H     H_    0.547504 0.470551 0.196833 0.199271
H28   H     H_    0.568821 0.521350 0.306665 0.203965
H29   H     H_    0.725563 0.567430 0.364976 0.151214
H30   H     H_    0.691055 0.605679 0.291277 0.161260
H31   H     H_    0.706132 0.513904 0.255630 0.147459
H32   H     H_    0.578082 0.338736 0.534791 0.090825
H33   H     H_    0.406996 0.434496 0.258611 0.144602
H34   H     H_    0.442697 0.693344 0.528258 0.082847
H35   H     H_    0.116619 0.319739 0.042285 0.116993
H36   H     H_    0.217985 0.319390 0.076107 0.127974
H37   H     H_    0.118847 0.326962 0.914133 0.175807
H38   H     H_    0.221877 0.330713 0.948279 0.195293
H39   H     H_    0.154157 0.184648 0.933220 0.139020
H40   H     H_    0.096910 0.181562 0.833048 0.153846
H41   H     H_    0.050602 0.180549 0.902491 0.159226
H42   H     H_    0.279144 0.683458 0.390179 0.128290
H43   H     H_    0.190002 0.676169 0.406922 0.189021
H44   H     H_    0.217425 0.705981 0.264951 0.200919
H45   H     H_    0.513176 0.952857 0.770990 0.115008
H46   H     H_    0.126883 0.698067 0.281187 0.179562
H47   H     H_    0.230679 0.827421 0.431162 0.169398
H48   H     H_    0.241127 0.851703 0.349041 0.163566
H49   H     H_    0.321161 0.834694 0.414381 0.189213
H50   H     H_    0.313499 0.560389 0.475313 0.110063
H51   H     H_    0.262203 0.121946 0.021830 0.141159
H52   H     H_    0.325450 0.218163 0.124706 0.152683
H53   H     H_    0.190790 0.037272 0.079498 0.183471
H54   H     H_    0.253807 0.133208 0.185379 0.197388
H55   H     H_    0.187505 0.207792 0.122659 0.135043
H56   H     H_    0.452490 0.853451 0.202826 0.103424
H57   H     H_    0.106610 0.109513 0.105846 0.155442
H58   H     H_    0.122264 0.110206 0.016799 0.143430
H59   H     H_    0.694743 0.344249 0.301613 0.121613
H60   H     H_    0.649354 0.253269 0.198799 0.160101
H61   H     H_    0.743649 0.277139 0.382032 0.157523
H62   H     H_    0.691447 0.176027 0.283836 0.204161
H63   H     H_    0.787014 0.247927 0.234368 0.171965
H64   H     H_    0.849588 0.260145 0.338443 0.145287
H65   H     H_    0.839914 0.350134 0.333424 0.157447
H66   H     H_    0.666305 0.020207 0.921074 0.082999
H67   H     H_    0.334542 0.779809 0.219807 0.105040
H68   H     H_    0.961004 0.183338 0.999092 0.155577
H69   H     H_    0.884664 0.157189 0.034746 0.139844
H70   H     H_    0.019306 0.343725 0.095160 0.172760
H71   H     H_    0.949718 0.313863 0.138325 0.161288
H72   H     H_    0.021924 0.235615 0.186882 0.153518
H73   H     H_    0.097116 0.349564 0.235441 0.188404
H74   H     H_    0.094708 0.271032 0.147522 0.124887
H75   H     H_    0.521358 0.241216 0.009748 0.168862
H76   H     H_    0.564093 0.249349 0.939457 0.141910
H77   H     H_    0.603723 0.404094 0.101515 0.170546
H78   H     H_    0.080367 0.538118 0.803950 0.144035
H79   H     H_    0.642369 0.411503 0.027540 0.165106
H80   H     H_    0.487986 0.332977 0.905618 0.162278
H81   H     H_    0.514025 0.430771 0.994271 0.175939
H82   H     H_    0.449927 0.326813 0.980941 0.159996
H83   H     H_    0.661887 0.756952 0.907470 0.148148
H84   H     H_    0.659612 0.775029 0.005141 0.164826
H85   H     H_    0.694930 0.911837 0.947514 0.172623
H86   H     H_    0.700251 0.927573 0.049532 0.183598
H87   H     H_    0.820474 0.894257 0.085970 0.146601
H88   H     H_    0.847166 0.984194 0.066054 0.148894
H89   H     H_    0.122435 0.618918 0.774838 0.167770
H90   H     H_    0.815053 0.879028 0.983791 0.164596
O1    O     O_R   0.537990 0.090490 0.948120 -0.525292
O2    O     O_R   0.909750 0.552440 0.962210 -0.491256
O3    O     O_R   0.909720 0.357980 0.948050 -0.463105
O4    O     O_R   0.642370 0.089850 0.051860 -0.549586
O5    O     O_R   0.909750 0.461690 0.051790 -0.534345
O6    O     O_R   0.090070 0.447560 0.037620 -0.491770
O7    O     O_R   0.090100 0.551270 0.141360 -0.483582
O8    O     O_R   0.090070 0.538310 0.948030 -0.511094
O9    O     O_R   0.090100 0.642020 0.051770 -0.486363
O10   O     O_R   0.447800 0.089920 0.037730 -0.512359
O11   O     O_R   0.552180 0.089280 0.141460 -0.493183
O12   O     O_R   0.642390 0.554900 0.592760 -0.482330
O13   O     O_R   0.357630 0.910150 0.948140 -0.466753
O14   O     O_R   0.462010 0.909510 0.051880 -0.474857
O15   O     O_R   0.447820 0.910720 0.858540 -0.517442
O16   O     O_R   0.552200 0.910080 0.962270 -0.483899
O17   O     O_R   0.538000 0.450530 0.592770 -0.512921
O18   O     O_2   0.385199 0.116410 0.287492 -0.455533
O19   O     O_2   0.497264 0.599334 0.827187 -0.469853
O20   O     O_2   0.514286 0.821474 0.589570 -0.450986
O21   O     O_2   0.413294 0.865045 0.651276 -0.474725
O22   O     O_2   0.445803 0.953124 0.194484 -0.445346
O23   O     O_R   0.447840 0.361480 0.413570 -0.553991
O24   O     O_2   0.269086 0.652217 0.142436 -0.494717
O25   O     O_3   0.080580 0.651463 0.864458 -0.532084
O26   O     O_3   0.201390 0.787354 0.869273 -0.547331
O27   O     O_2   0.693995 0.672904 0.762154 -0.530818
O28   O     O_2   0.972579 0.683731 0.929677 -0.466481
O29   O     O_3   0.749899 0.348666 0.724125 -0.503741
O30   O     O_3   0.487035 0.350750 0.239944 -0.611287
O31   O     O_2   0.584781 0.273331 0.597693 -0.445200
O32   O     O_2   0.384746 0.457566 0.160611 -0.469327
O33   O     O_3   0.226428 0.435144 0.084736 -0.474438
O34   O     O_R   0.552220 0.465860 0.413560 -0.520478
O35   O     O_3   0.152568 0.572458 0.293161 -0.512974
O36   O     O_2   0.191923 0.534832 0.422631 -0.475651
O37   O     O_3   0.352873 0.115888 0.112759 -0.564443
O38   O     O_3   0.584861 0.239671 0.271681 -0.618756
O39   O     O_2   0.744072 0.048090 0.873844 -0.460583
O40   O     O_3   0.868320 0.215406 0.956700 -0.500379
O41   O     O_3   0.653013 0.290075 0.070178 -0.596535
O42   O     O_3   0.558008 0.771846 0.915763 -0.499357
O43   O     O_R   0.357660 0.451630 0.413550 -0.512628
O44   O     O_R   0.462040 0.556010 0.413540 -0.517129
O45   O     O_R   0.447820 0.540680 0.592750 -0.522639
O46   O     O_R   0.552200 0.645050 0.592740 -0.468225
O47   O     O_R   0.909730 0.448730 0.858460 -0.506505

loop_
_geom_bond_atom_site_label_1
_geom_bond_atom_site_label_2
_ccdc_geom_bond_type
C8    C9    A    
C66   C68   S    
Cu1   O10   S    
C18   O2    A    
C70   H43   S    
C22   C29   A    
C55   H15   S    
C27   C29   A    
C15   C36   S    
C14   O34   A    
C35   C36   A    
C5    C67   A    
C84   H74   S    
Cu6   O5    S    
C55   O27   D    
C62   H27   S    
C65   H33   S    
C88   H84   S    
Cu3   O45   S    
C7    C8    A    
C46   H45   S    
C90   H85   S    
C53   C54   S    
C44   H34   S    
C46   O21   D    
C67   C78   A    
C12   C23   A    
C26   C27   A    
C62   C63   S    
C73   H50   S    
C83   C84   S    
Cu6   O9    S    
C13   C29   S    
C42   H12   S    
C61   O30   S    
C84   H73   S    
C77   H59   S    
C20   C32   S    
C30   C31   A    
C80   H63   S    
C87   H80   S    
C76   H55   S    
C9    O25   S    
C51   H6    S    
C72   H48   S    
C66   H36   S    
C74   O37   S    
C40   O38   S    
C54   H13   S    
C60   H22   S    
C26   O29   S    
Cu5   O3    S    
C37   C42   S    
C52   O26   S    
C66   O33   S    
C75   H53   S    
C34   H1    S    
C53   H9    S    
Cu5   O8    S    
C52   H7    S    
C77   O38   S    
C4    C40   S    
C45   C56   A    
C75   H54   S    
C59   H19   S    
C85   H76   S    
C74   H52   S    
C60   H21   S    
C70   C71   S    
Cu2   O14   S    
C9    C10   A    
C63   H31   S    
C16   O13   A    
C19   O5    A    
C71   H44   S    
C33   O35   S    
C4    O11   A    
C88   O42   S    
C91   H88   S    
C83   H71   S    
C59   C60   S    
C59   H20   S    
C91   H87   S    
C43   O19   D    
C81   H66   S    
C38   O30   S    
Cu3   Cu4   S    
C18   C25   S    
C79   H61   S    
C20   O7    A    
C17   O45   A    
C88   H83   S    
C66   H35   S    
C60   H24   S    
Cu2   O4    S    
C78   C89   A    
C69   H40   S    
C85   H75   S    
C81   O39   D    
C73   O36   D    
C43   C78   S    
C30   C65   S    
C57   O28   D    
C17   C89   S    
C24   C25   A    
C84   H72   S    
C6    C47   S    
C2    C44   S    
C6    C11   A    
C65   O32   D    
C14   O23   A    
C86   C87   S    
C68   C69   S    
C12   O40   S    
C57   H16   S    
C47   H56   S    
C25   C26   A    
C85   C86   S    
C83   H70   S    
C82   C83   S    
C44   O20   D    
C61   H25   S    
C51   H5    S    
C45   O41   S    
Cu6   O7    S    
C2    C89   A    
C19   C23   S    
C75   C76   S    
C41   C56   A    
C37   C38   D    
C14   C38   S    
C5    C28   S    
C11   C16   S    
C53   H10   S    
C64   O31   D    
C31   C32   A    
C48   O24   D    
C23   C34   A    
C41   C81   S    
Cu5   Cu6   S    
Cu1   O1    S    
C50   C51   S    
C50   H2    S    
C77   C79   S    
C85   O41   S    
Cu4   O34   S    
C21   O8    A    
C80   H65   S    
C6    C7    A    
C34   C45   A    
C1    O4    A    
C4    O10   A    
C88   C90   S    
C52   H8    S    
Cu3   O23   S    
C69   H39   S    
C17   O46   A    
C10   C11   A    
C47   O22   D    
C15   O43   A    
C58   H18   S    
C22   C24   A    
C39   O37   S    
Cu3   O17   S    
C16   O14   A    
C20   O6    A    
C49   H78   S    
Cu1   O15   S    
C52   C53   S    
Cu3   O43   S    
C12   C41   A    
C71   H46   S    
C31   O33   S    
C82   H69   S    
C1    O1    A    
C74   H51   S    
C69   H41   S    
C72   H47   S    
C91   H90   S    
C35   C73   S    
C13   O12   A    
C15   O44   A    
C28   O16   A    
C1    C56   S    
C68   H38   S    
Cu4   O44   S    
C24   C57   S    
C3    C5    A    
C8    C21   S    
C62   H28   S    
C18   O47   A    
C10   O26   S    
C22   C55   S    
C48   H67   S    
C54   H11   S    
C64   H32   S    
C51   H4    S    
C82   O40   S    
C43   H23   S    
C76   H58   S    
C50   H3    S    
C13   O17   A    
C30   C36   A    
C49   H89   S    
C61   H26   S    
C28   O15   A    
C7    C48   S    
C70   O35   S    
C68   H37   S    
Cu2   O11   S    
C58   C59   S    
C71   C72   S    
C37   C39   S    
C32   C33   A    
C87   H81   S    
C79   H62   S    
C90   C91   S    
C72   H49   S    
C49   O25   S    
Cu6   O2    S    
Cu1   Cu2   S    
C33   C35   A    
C76   H57   S    
C3    C46   S    
C54   H14   S    
C2    C3    A    
C86   H79   S    
C21   O9    A    
C61   C62   S    
Cu2   O16   S    
C80   H64   S    
C63   H29   S    
C27   C64   S    
C19   O3    A    
C87   H82   S    
C79   C80   S    
C39   C40   D    
C42   O18   D    
C70   H42   S    
C90   H86   S    
C67   O42   S    
Cu5   O6    S    
Cu4   O12   S    
C49   C50   S    
C58   H17   S    
Cu5   O47   S    
Cu4   O46   S    
C86   H77   S    
Cu1   O13   S    
C63   H30   S    
C74   C75   S    
C77   H60   S    
C82   H68   S    
C58   O29   S    
