data_mof_unit_45494.cif
_audit_creation_date              2012-10-26T18:45:50-0400
_audit_creation_method            fapswitch 2.2
_symmetry_space_group_name_H-M    P1
_symmetry_Int_Tables_number       1
_space_group_crystal_system       triclinic
_cell_length_a                    17.70378
_cell_length_b                    16.46529
_cell_length_c                    15.046263
_cell_angle_alpha                 89.999979
_cell_angle_beta                  90.069345
_cell_angle_gamma                 90.0
_cell_volume                      4385.95043066

loop_
_atom_site_label
_atom_site_type_symbol
_atom_type_description
_atom_site_fract_x
_atom_site_fract_y
_atom_site_fract_z
_atom_type_partial_charge
C1    C     C_R   0.355272 0.499957 0.500229 0.560571
C2    C     C_R   0.232717 0.425718 0.504799 -0.145345
C3    C     C_R   0.232000 0.572916 0.494990 -0.107451
C4    C     C_R   0.767283 0.425717 0.495206 -0.145345
C5    C     C_R   0.727650 0.499576 0.499963 0.024417
C6    C     C_R   0.272350 0.499576 0.500037 0.024417
C7    C     C_R   0.885547 0.498580 0.500385 0.035816
C8    C     C_R   0.114453 0.498579 0.499615 0.035815
C9    C     C_1   0.966154 0.498204 0.500136 -0.031539
C10   C     C_1   0.033846 0.498204 0.499864 -0.031539
C11   C     C_R   0.548428 0.828456 0.556727 -0.042618
C12   C     C_R   0.644728 0.499957 0.499771 0.560571
C13   C     C_R   0.448006 0.171562 0.447840 -0.043790
C14   C     C_R   0.451571 0.828456 0.443273 -0.042618
C15   C     C_R   0.551994 0.171562 0.552159 -0.043790
C16   C     C_R   0.547323 0.742704 0.555382 0.038642
C17   C     C_R   0.449321 0.257275 0.448932 0.021632
C18   C     C_R   0.452677 0.742704 0.444618 0.038643
C19   C     C_R   0.550679 0.257275 0.551068 0.021631
C20   C     C_R   0.500000 0.872969 0.500000 -0.003059
C21   C     C_R   0.500000 0.127053 0.500000 -0.002105
C22   C     C_1   0.500000 0.962821 0.500000 0.017081
C23   C     C_R   0.360925 0.519823 0.045046 0.288379
C24   C     C_1   0.500000 0.037211 0.500000 0.017966
C25   C     C_R   0.499536 0.499888 0.328686 0.620197
C26   C     C_R   0.500463 0.499888 0.671314 0.620197
C27   C     C_R   0.570263 0.501102 0.813762 0.221306
C28   C     C_R   0.429737 0.501104 0.186238 0.221305
C29   C     C_R   0.500946 0.499552 0.767773 -0.005885
C30   C     C_R   0.499054 0.499552 0.232227 -0.005884
C31   C     C_R   0.431961 0.498908 0.813071 0.215928
C32   C     C_R   0.568038 0.498906 0.186929 0.215928
C33   C     C_R   0.431783 0.508655 0.905952 -0.034809
C34   C     C_R   0.639075 0.519819 0.954954 0.288378
C35   C     C_R   0.568216 0.508653 0.094048 -0.034810
C36   C     C_R   0.500664 0.509448 0.953214 -0.076529
C37   C     C_R   0.499336 0.509448 0.046786 -0.076529
C38   C     C_R   0.570669 0.509849 0.907050 0.046054
C39   C     C_R   0.429331 0.509851 0.092950 0.046054
C40   C     C_R   0.363843 0.520521 0.951655 -0.127167
C41   C     C_R   0.636158 0.520517 0.048345 -0.127168
C42   C     C_3   0.646878 0.412093 0.737425 0.021084
C43   C     C_3   0.724955 0.380501 0.763073 -0.262483
C44   C     C_3   0.740600 0.297890 0.720900 -0.481583
C45   C     C_R   0.846705 0.572321 0.505205 -0.107951
C46   C     C_3   0.353120 0.412096 0.262574 0.021080
C47   C     C_3   0.275040 0.380509 0.236935 -0.262481
C48   C     C_3   0.259394 0.297899 0.279108 -0.481585
C49   C     C_3   0.329415 0.417264 0.779623 -0.013141
C50   C     C_3   0.360361 0.351504 0.717599 -0.255150
C51   C     C_3   0.315403 0.272810 0.725361 -0.488991
C52   C     C_3   0.670583 0.417259 0.220376 -0.013141
C53   C     C_3   0.639638 0.351501 0.282403 -0.255149
C54   C     C_3   0.684594 0.272805 0.274640 -0.488991
C55   C     C_3   0.228069 0.507487 0.053218 0.008436
C56   C     C_R   0.154034 0.425309 0.504521 -0.118581
C57   C     C_3   0.181217 0.575863 0.011505 -0.257521
C58   C     C_3   0.109539 0.542800 0.968229 -0.488751
C59   C     C_3   0.771931 0.507479 0.946782 0.008435
C60   C     C_3   0.818785 0.575853 0.988496 -0.257520
C61   C     C_3   0.890462 0.542789 0.031772 -0.488751
C62   C     C_1   0.599583 0.869102 0.616778 0.189573
C63   C     C_1   0.392840 0.130958 0.392902 0.169004
C64   C     C_1   0.400416 0.869102 0.383222 0.189573
C65   C     C_1   0.607160 0.130958 0.607097 0.169003
C66   C     C_R   0.153295 0.572321 0.494790 -0.107952
C67   C     C_R   0.845966 0.425309 0.495484 -0.118580
C68   C     C_R   0.768000 0.572916 0.505005 -0.107451
Cu1   Cu    Cu3+1 0.500000 0.580420 0.500000 0.999947
Cu2   Cu    Cu3+1 0.500000 0.419580 0.500000 0.889496
H1    H     H_    0.313002 0.530916 0.913671 0.143361
H2    H     H_    0.737595 0.368331 0.491047 0.114272
H3    H     H_    0.584542 0.708865 0.598925 0.138723
H4    H     H_    0.409499 0.290977 0.408734 0.108696
H5    H     H_    0.415458 0.708865 0.401075 0.138723
H6    H     H_    0.590501 0.290977 0.591265 0.108695
H7    H     H_    0.643021 0.412459 0.664068 0.167544
H8    H     H_    0.603685 0.368439 0.763140 0.099308
H9    H     H_    0.768819 0.424333 0.740877 0.187197
H10   H     H_    0.727940 0.374013 0.836427 0.159874
H11   H     H_    0.698062 0.252763 0.743329 0.168837
H12   H     H_    0.686998 0.530910 0.086329 0.143361
H13   H     H_    0.797559 0.276475 0.741071 0.154812
H14   H     H_    0.738795 0.302418 0.647294 0.146344
H15   H     H_    0.356983 0.412460 0.335930 0.167545
H16   H     H_    0.396308 0.368440 0.236852 0.099308
H17   H     H_    0.231179 0.424343 0.259136 0.187200
H18   H     H_    0.272048 0.374022 0.163581 0.159873
H19   H     H_    0.301926 0.252769 0.256673 0.168837
H20   H     H_    0.202431 0.276488 0.258944 0.154811
H21   H     H_    0.261205 0.302426 0.352714 0.146344
H22   H     H_    0.268260 0.425425 0.765551 0.153791
H23   H     H_    0.877239 0.629257 0.509045 0.116451
H24   H     H_    0.333512 0.395697 0.849594 0.111609
H25   H     H_    0.357097 0.373051 0.648057 0.213253
H26   H     H_    0.420267 0.338728 0.734611 0.166466
H27   H     H_    0.318015 0.249235 0.794469 0.151266
H28   H     H_    0.339695 0.226541 0.679912 0.160171
H29   H     H_    0.255496 0.283241 0.706488 0.146013
H30   H     H_    0.731739 0.425419 0.234445 0.153790
H31   H     H_    0.666483 0.395691 0.150407 0.111608
H32   H     H_    0.642904 0.373048 0.351945 0.213253
H33   H     H_    0.579731 0.338725 0.265393 0.166469
H34   H     H_    0.124115 0.368001 0.508290 0.110981
H35   H     H_    0.681979 0.249230 0.205533 0.151266
H36   H     H_    0.660302 0.226538 0.320091 0.160171
H37   H     H_    0.744502 0.283235 0.293511 0.146013
H38   H     H_    0.193881 0.481172 0.107875 0.146613
H39   H     H_    0.237808 0.456600 0.005706 0.089575
H40   H     H_    0.165285 0.620124 0.064031 0.181904
H41   H     H_    0.214760 0.608826 0.960763 0.168771
H42   H     H_    0.124171 0.500154 0.913683 0.146697
H43   H     H_    0.076117 0.593753 0.940056 0.155096
H44   H     H_    0.074378 0.510683 0.018221 0.143230
H45   H     H_    0.122761 0.629256 0.490946 0.116452
H46   H     H_    0.806119 0.481162 0.892126 0.146612
H47   H     H_    0.762191 0.456592 0.994295 0.089574
H48   H     H_    0.834718 0.620114 0.935968 0.181903
H49   H     H_    0.785242 0.608818 0.039237 0.168771
H50   H     H_    0.875828 0.500143 0.086318 0.146697
H51   H     H_    0.923885 0.593740 0.059945 0.155095
H52   H     H_    0.925622 0.510670 0.981781 0.143230
H53   H     H_    0.875885 0.368001 0.491719 0.110980
H54   H     H_    0.738857 0.630641 0.508883 0.133091
H55   H     H_    0.262405 0.368331 0.508962 0.114273
H56   H     H_    0.261142 0.630640 0.491107 0.133092
N1    N     N_R   0.500000 0.701220 0.500000 -0.243615
N2    N     N_R   0.500000 0.298780 0.500000 -0.241023
N3    N     N_1   0.640641 0.901551 0.665001 -0.253582
N4    N     N_1   0.348529 0.098528 0.348833 -0.276307
N5    N     N_1   0.359359 0.901551 0.334999 -0.253583
N6    N     N_1   0.651471 0.098527 0.651166 -0.276309
O1    O     O_R   0.391260 0.567930 0.500000 -0.494586
O2    O     O_3   0.362216 0.493167 0.232263 -0.521814
O3    O     O_3   0.365217 0.493299 0.764589 -0.569027
O4    O     O_3   0.634782 0.493295 0.235411 -0.569027
O5    O     O_3   0.295038 0.539480 0.091362 -0.509628
O6    O     O_3   0.704963 0.539473 0.908638 -0.509628
O7    O     O_R   0.608740 0.432070 0.500000 -0.536899
O8    O     O_R   0.608740 0.567930 0.500000 -0.494586
O9    O     O_R   0.391260 0.432070 0.500000 -0.536900
O10   O     O_R   0.499990 0.567920 0.370260 -0.475550
O11   O     O_R   0.500010 0.432080 0.629740 -0.535648
O12   O     O_R   0.500010 0.567920 0.629740 -0.475548
O13   O     O_R   0.499990 0.432080 0.370260 -0.535648
O14   O     O_3   0.637784 0.493164 0.767737 -0.521813

loop_
_geom_bond_atom_site_label_1
_geom_bond_atom_site_label_2
_ccdc_geom_bond_type
C51   H27   S    
C59   C60   S    
C8    C66   A    
C18   H5    S    
C40   H1    S    
C27   C29   A    
C14   C18   A    
C25   O10   A    
C44   H13   S    
C45   H23   S    
C8    C56   A    
C3    H56   S    
C53   C54   S    
Cu1   O12   S    
C15   C19   A    
Cu2   O11   S    
C54   H37   S    
C58   H42   S    
C7    C45   A    
C36   C37   A    
C35   C37   A    
C53   H33   S    
C1    O1    A    
C50   H25   S    
C27   C38   A    
C43   H9    S    
C23   C40   A    
C15   C65   S    
C55   O5    S    
C19   N2    A    
C33   C36   A    
C60   H49   S    
C61   H51   S    
C63   N4    T    
C57   H40   S    
C59   H46   S    
C48   H21   S    
C58   H43   S    
C31   C33   A    
C60   H48   S    
C49   H24   S    
C9    C10   T    
C46   H15   S    
C3    C6    A    
Cu1   O8    S    
C49   O3    S    
Cu2   O7    S    
C59   H47   S    
C48   H20   S    
C55   H39   S    
C61   H50   S    
C62   N3    T    
C68   H54   S    
C2    C6    A    
C34   C41   A    
C5    C68   A    
C26   O12   A    
C51   H29   S    
C52   H31   S    
C11   C20   A    
C33   C40   A    
C66   H45   S    
C54   H36   S    
C16   H3    S    
C32   C35   A    
C14   C20   A    
C56   H34   S    
C5    C12   S    
C31   O3    S    
C44   H11   S    
C32   O4    S    
C59   O6    S    
C43   H10   S    
C52   H30   S    
C1    C6    S    
C61   H52   S    
C47   H17   S    
C43   C44   S    
C18   N1    A    
C46   O2    S    
C11   C16   A    
C47   C48   S    
C13   C63   S    
C64   N5    T    
C53   H32   S    
C14   C64   S    
C45   C68   A    
C12   O8    A    
C50   C51   S    
C12   O7    A    
C13   C21   A    
Cu2   O13   S    
C26   C29   S    
C8    C10   S    
C20   C22   S    
C42   H8    S    
C48   H19   S    
C55   C57   S    
C17   H4    S    
C52   O4    S    
C28   O2    S    
C3    C66   A    
C42   C43   S    
C49   H22   S    
C26   O11   A    
C42   O14   S    
C4    H2    S    
C65   N6    T    
C52   C53   S    
Cu2   N2    S    
C25   C30   S    
C7    C9    S    
C46   C47   S    
C19   H6    S    
Cu2   O9    S    
Cu1   O1    S    
C54   H35   S    
C34   C38   A    
C23   O5    S    
C4    C5    A    
C44   H14   S    
C67   H53   S    
C4    C67   A    
C17   N2    A    
C11   C62   S    
C28   C39   A    
C13   C17   A    
C55   H38   S    
C47   H18   S    
C28   C30   A    
Cu1   O10   S    
C29   C31   A    
C2    C56   A    
C30   C32   A    
C50   H26   S    
C57   C58   S    
C57   H41   S    
C51   H28   S    
C27   O14   S    
C23   C39   A    
C41   H12   S    
C36   C38   A    
C34   O6    S    
C22   C24   T    
Cu1   Cu2   S    
C35   C41   A    
C16   N1    A    
C1    O9    A    
C7    C67   A    
C2    H55   S    
C15   C21   A    
Cu1   N1    S    
C42   H7    S    
C37   C39   A    
C49   C50   S    
C21   C24   S    
C58   H44   S    
C60   C61   S    
C25   O13   A    
C46   H16   S    
