data_mof_unit_48531.cif
_audit_creation_date              2013-03-05T15:55:27-0500
_audit_creation_method            fapswitch 2.2
_symmetry_space_group_name_H-M    P1
_symmetry_Int_Tables_number       1
_space_group_crystal_system       triclinic
_cell_length_a                    10.718727
_cell_length_b                    12.320137
_cell_length_c                    13.186135
_cell_angle_alpha                 116.673237
_cell_angle_beta                  77.537348
_cell_angle_gamma                 101.276158
_cell_volume                      1509.59326682

loop_
_atom_site_label
_atom_site_type_symbol
_atom_site_description
_atom_site_fract_x
_atom_site_fract_y
_atom_site_fract_z
_atom_type_partial_charge
O1    O     O_R   0.537340 0.972510 0.318130 -0.583689
O2    O     O_R   0.487200 0.806530 0.359650 -0.601531
C1    C     C_R   0.511279 0.854889 0.286579 0.764038
O3    O     O_R   0.707380 0.082980 0.479220 -0.588788
O4    O     O_R   0.657240 0.917000 0.520740 -0.604753
C2    C     C_R   0.739896 0.998557 0.498528 0.766046
Cu1   Cu    Cu3+1 0.529690 0.098270 0.475420 0.957943
Cu2   Cu    Cu3+1 0.470310 0.901730 0.524580 0.915179
O5    O     O_R   0.512800 0.193470 0.640350 -0.572367
O6    O     O_R   0.462660 0.027490 0.681870 -0.592342
O7    O     O_R   0.342760 0.083000 0.479260 -0.544252
O8    O     O_R   0.292620 0.917020 0.520780 -0.606822
C3    C     C_R   0.480542 0.145134 0.713405 0.815923
C4    C     C_R   0.260086 0.000088 0.499874 0.775856
C5    C     C_3   0.958349 0.001821 0.387299 -0.377559
H1    H     H_    0.946187 0.085985 0.380664 0.190148
H2    H     H_    0.924765 0.922035 0.310926 0.146501
C6    C     C_3   0.101892 0.000029 0.386625 -0.351044
H3    H     H_    0.136125 0.916619 0.312243 0.144053
H4    H     H_    0.159364 0.079207 0.373431 0.218227
H5    H     H_    0.908072 0.196615 0.599240 0.209437
C7    C     C_3   0.923456 0.112064 0.603462 -0.414515
C8    C     C_3   0.900455 0.881167 0.505999 -0.384134
C9    C     C_3   0.877615 0.998070 0.498770 0.104000
H6    H     H_    0.844500 0.876188 0.585729 0.183572
H7    H     H_    0.867446 0.798144 0.431739 0.172773
C10   C     C_3   0.121844 0.999988 0.499820 0.043762
C11   C     C_3   0.066801 0.111538 0.607004 0.232247
C12   C     C_3   0.043592 0.881700 0.505815 -0.442721
H8    H     H_    0.079422 0.799154 0.431209 0.187518
H9    H     H_    0.055163 0.875593 0.584977 0.173682
H10   H     H_    0.864526 0.111967 0.684078 0.122850
H11   H     H_    0.071455 0.098570 0.684514 0.076545
C13   C     C_R   0.323225 0.276633 0.020374 -0.183844
H12   H     H_    0.326992 0.095327 0.885625 0.142465
H13   H     H_    0.245015 0.459106 0.217271 0.148503
H14   H     H_    0.254496 0.246315 0.078484 0.132232
C14   C     C_R   0.452587 0.228189 0.834430 -0.036098
C15   C     C_R   0.596553 0.815130 0.085250 -0.194070
C16   C     C_R   0.621475 0.736242 0.970162 -0.149036
C17   C     C_R   0.574865 0.613134 0.932274 -0.173585
C18   C     C_R   0.497386 0.566848 0.009083 0.080364
C19   C     C_R   0.459360 0.650643 0.123556 0.081268
C20   C     C_R   0.455267 0.440362 0.975759 0.081782
C21   C     C_R   0.365733 0.401272 0.052585 0.169081
C22   C     C_R   0.317503 0.487110 0.159658 -0.234936
C23   C     C_R   0.362272 0.610063 0.194201 -0.201910
C24   C     C_R   0.500724 0.351112 0.868597 -0.225053
C25   C     C_R   0.365747 0.190397 0.911299 -0.188447
C26   C     C_R   0.518517 0.773158 0.163499 -0.102463
H15   H     H_    0.573238 0.374602 0.808907 0.140649
H16   H     H_    0.641066 0.908800 0.113434 0.149764
H17   H     H_    0.598718 0.557460 0.841834 0.131360
H18   H     H_    0.680731 0.769954 0.910344 0.139487
H19   H     H_    0.316893 0.672751 0.275857 0.170802
C27   C     C_R   0.705762 0.347058 0.328967 -0.296403
H20   H     H_    0.728956 0.169391 0.309633 0.117117
H21   H     H_    0.746782 0.547314 0.295221 0.148990
H22   H     H_    0.785633 0.346346 0.262415 0.136221
N1    N     N_R   0.574690 0.246280 0.438200 -0.187850
C28   C     C_R   0.325577 0.759463 0.645377 0.060607
C29   C     C_R   0.288437 0.663190 0.677476 -0.246311
C30   C     C_R   0.354364 0.560032 0.623008 -0.147288
C31   C     C_R   0.458764 0.551678 0.534948 -0.021887
C32   C     C_R   0.493680 0.653096 0.505351 0.292515
C33   C     C_R   0.529966 0.447275 0.475511 -0.041044
C34   C     C_R   0.634225 0.447089 0.388544 0.182064
C35   C     C_R   0.666898 0.546743 0.361458 -0.287004
C36   C     C_R   0.598422 0.647242 0.418537 -0.189055
C37   C     C_R   0.502855 0.342162 0.497998 0.039367
C38   C     C_R   0.674205 0.246965 0.355315 0.069853
N2    N     N_R   0.426100 0.754320 0.561190 -0.205108
H23   H     H_    0.425444 0.334328 0.562445 0.177622
H24   H     H_    0.274033 0.839263 0.688281 0.122292
H25   H     H_    0.321896 0.488639 0.651708 0.200071
H26   H     H_    0.208391 0.668617 0.744961 0.155510
H27   H     H_    0.631793 0.718643 0.391571 0.203945
N3    N     N_R   0.141158 0.229121 0.618805 0.116997
O9    O     O_R   0.141192 0.274410 0.546621 -0.405478
O10   O     O_R   0.202210 0.292794 0.706541 -0.409840

loop_
_geom_bond_atom_site_label_1
_geom_bond_atom_site_label_2
_geom_bond_distance
_ccdc_geom_bond_type
C5    C6    1.541124 S    
C10   C12   1.558959 S    
C13   H14   1.084003 S    
C17   C18   1.418093 A    
C36   H27   1.063524 S    
Cu1   Cu2   2.704979 S    
C14   C25   1.399133 A    
C21   C22   1.391865 A    
Cu1   O7    1.967212 S    
C12   H8    1.113996 S    
C7    H10   1.113565 S    
C8    C12   1.532459 S    
O4    C2    1.297852 A    
O7    C4    1.301504 A    
N3    O10   1.301240 A    
C5    H1    1.113139 S    
C5    H2    1.113252 S    
C6    H3    1.113498 S    
C8    H7    1.113124 S    
O5    C3    1.301109 A    
C24   H15   1.076979 S    
C35   C36   1.385113 A    
H12   C25   1.083276 S    
C8    C9    1.553903 S    
H13   C22   1.084243 S    
C4    C10   1.481699 S    
C11   N3    1.468879 S    
C14   C24   1.394585 A    
C15   H16   1.083367 S    
C7    C11   1.548590 S    
H5    C7    1.112915 S    
C29   H26   1.082572 S    
C18   C20   1.421616 A    
O3    Cu1   1.963547 S    
C1    C26   1.470688 S    
Cu2   N2    2.026740 S    
C34   C35   1.388937 A    
O3    C2    1.298430 A    
C15   C16   1.386115 A    
N3    O9    1.301494 A    
N1    C38   1.354240 A    
O1    C1    1.304453 A    
C31   C33   1.439381 A    
C29   C30   1.393941 A    
N1    C37   1.366547 A    
Cu2   O8    1.963545 S    
C27   C38   1.388015 A    
C2    C9    1.478051 S    
C37   H23   1.076083 S    
C13   C21   1.403686 A    
H20   C38   1.081930 S    
C17   H17   1.077326 S    
C3    C14   1.459805 S    
C28   N2    1.358160 A    
H21   C35   1.084640 S    
C16   C17   1.389490 A    
O8    C4    1.295884 A    
C11   H11   1.115497 S    
C16   H18   1.082968 S    
C7    C9    1.549776 S    
C18   C19   1.417858 A    
C27   C34   1.401529 A    
Cu1   N1    2.038638 S    
C20   C21   1.420151 A    
C23   H19   1.080129 S    
Cu1   O5    1.939367 S    
C22   C23   1.386707 A    
C5    C9    1.551732 S    
C13   C25   1.392721 A    
O1    Cu1   1.949404 S    
O2    Cu2   1.939369 S    
C6    C10   1.553089 S    
O6    C3    1.301943 A    
O4    Cu2   1.967214 S    
C19   C26   1.419108 A    
C28   H24   1.081678 S    
C32   N2    1.385922 A    
C27   H22   1.083924 S    
C31   C32   1.430212 A    
O2    C1    1.303029 A    
C12   H9    1.113854 S    
C33   C37   1.417680 A    
C30   H25   1.077165 S    
C32   C36   1.406740 A    
C33   C34   1.417547 A    
C6    H4    1.110146 S    
C8    H6    1.113616 S    
C28   C29   1.392058 A    
C30   C31   1.409993 A    
C15   C26   1.403222 A    
Cu2   O6    1.949404 S    
C10   C11   1.564507 S    
C19   C23   1.413127 A    
C20   C24   1.400209 A    
