data_mof_unit_29762.cif
_audit_creation_date              2012-12-10T20:28:45-0500
_audit_creation_method            fapswitch 2.2
_symmetry_space_group_name_H-M    P1
_symmetry_Int_Tables_number       1
_space_group_crystal_system       triclinic
_cell_length_a                    10.646917
_cell_length_b                    10.673768
_cell_length_c                    9.880897
_cell_angle_alpha                 89.944405
_cell_angle_beta                  87.68617
_cell_angle_gamma                 90.46963
_cell_volume                      1121.93787248

loop_
_atom_site_label
_atom_site_type_symbol
_atom_type_description
_atom_site_fract_x
_atom_site_fract_y
_atom_site_fract_z
_atom_type_partial_charge
C1    C     C_R   0.499841 0.260330 0.499823 0.904996
C2    C     C_R   0.444634 0.935005 0.393892 -0.231963
C3    C     C_R   0.504508 0.871646 0.497057 -0.038773
C4    C     C_R   0.260565 0.504717 0.503155 0.959471
C5    C     C_R   0.580874 0.936773 0.584472 0.052434
C6    C     C_3   0.595205 0.930433 0.734381 -0.340354
C7    C     C_3   0.596158 0.074237 0.733219 0.299659
C8    C     C_R   0.449775 0.401446 0.073553 0.079642
C9    C     C_R   0.559916 0.591344 0.068874 -0.119106
C10   C     C_R   0.560373 0.591038 0.925221 -0.149454
C11   C     C_R   0.448249 0.401982 0.931722 0.115975
C12   C     C_R   0.065530 0.627159 0.525412 -0.104535
C13   C     C_3   0.316299 0.351562 0.931415 0.967801
C14   C     C_3   0.318914 0.352161 0.088001 -0.664396
C15   C     C_R   0.499357 0.739717 0.499918 1.037442
C16   C     C_R   0.739689 0.506431 0.496854 0.969248
C17   C     C_R   0.126276 0.740997 0.562773 0.432522
C18   C     C_R   0.065336 0.855955 0.547217 -0.099452
C19   C     C_R   0.943259 0.857947 0.503969 -0.326233
C20   C     C_R   0.879499 0.746514 0.475231 0.505413
C21   C     C_R   0.937235 0.628953 0.497118 -0.091543
C22   C     C_1   0.715269 0.873360 0.769061 0.298638
C23   C     C_R   0.128211 0.511270 0.511588 -0.049538
C24   C     C_3   0.717531 0.160640 0.897617 -0.276026
C25   C     C_3   0.110001 0.398730 0.881265 -0.293347
C26   C     C_3   0.254323 0.137177 0.930334 -0.443729
C27   C     C_3   0.227396 0.745517 0.760404 -0.216828
C28   C     C_1   0.129098 0.973344 0.570430 0.223347
C29   C     C_3   0.776142 0.796621 0.285844 -0.313662
C30   C     C_1   0.874236 0.279931 0.459439 0.186237
C31   C     C_R   0.065629 0.399309 0.488194 -0.267021
C32   C     C_R   0.937444 0.398344 0.480646 -0.030257
C33   C     C_R   0.873200 0.512309 0.487969 -0.109477
C34   C     C_R   0.580710 0.064543 0.584117 0.097163
C35   C     C_R   0.505514 0.128623 0.496094 -0.108336
C36   C     C_R   0.445407 0.064280 0.393203 -0.203354
H1    H     H_    0.117437 0.312465 0.476397 0.154365
H2    H     H_    0.512102 0.888751 0.789929 0.116081
H3    H     H_    0.695122 0.078379 0.963901 0.145685
H4    H     H_    0.652315 0.238684 0.922467 0.159507
H5    H     H_    0.813982 0.192994 0.919117 0.181874
H6    H     H_    0.076913 0.372124 0.985612 0.136900
H7    H     H_    0.098018 0.319794 0.809519 0.217263
H8    H     H_    0.048964 0.475570 0.847844 0.179099
H9    H     H_    0.226272 0.065459 0.856293 0.218303
H10   H     H_    0.167458 0.167433 0.986792 0.169017
H11   H     H_    0.319650 0.091232 0.999402 0.165173
H12   H     H_    0.513245 0.117590 0.786183 0.138693
H13   H     H_    0.161162 0.672025 0.800355 0.186346
H14   H     H_    0.194635 0.839290 0.794339 0.126978
H15   H     H_    0.319428 0.729011 0.805647 0.197724
H16   H     H_    0.816153 0.721543 0.219575 0.168730
H17   H     H_    0.834189 0.883412 0.274436 0.155328
H18   H     H_    0.682181 0.821375 0.250475 0.188192
H19   H     H_    0.605873 0.666580 0.120183 0.133845
H20   H     H_    0.607171 0.665445 0.869044 0.150680
H21   H     H_    0.254156 0.421617 0.136372 0.221048
H22   H     H_    0.317361 0.260156 0.139968 0.176988
H23   H     H_    0.896708 0.946746 0.491140 0.203662
H24   H     H_    0.392971 0.113251 0.318066 0.154366
H25   H     H_    0.391855 0.885137 0.319077 0.155153
N1    N     N_R   0.499160 0.499140 0.142800 -0.083593
N2    N     N_R   0.499160 0.499180 0.857150 -0.111761
N3    N     N_1   0.809332 0.828634 0.797402 -0.244012
N4    N     N_1   0.179991 0.067707 0.588408 -0.215436
N5    N     N_1   0.823951 0.185296 0.441541 -0.214760
O1    O     O_R   0.500020 0.316790 0.614690 -0.596641
O2    O     O_3   0.235559 0.442133 0.877358 -0.620676
O3    O     O_3   0.316921 0.235855 0.859348 -0.620501
O4    O     O_3   0.243303 0.740320 0.617867 -0.635232
O5    O     O_3   0.762483 0.753984 0.421159 -0.631514
O6    O     O_R   0.500000 0.316760 0.385350 -0.627722
O7    O     O_R   0.316770 0.500020 0.614690 -0.537965
O8    O     O_R   0.316760 0.499980 0.385350 -0.643327
O9    O     O_R   0.500000 0.683240 0.614650 -0.622754
O10   O     O_R   0.499980 0.683210 0.385310 -0.631550
O11   O     O_R   0.683240 0.500020 0.614650 -0.621592
O12   O     O_R   0.683230 0.499980 0.385310 -0.605518
O13   O     O_3   0.714036 0.129401 0.759289 -0.568399
Zn1   Zn    Zn3+2 0.500010 0.500020 0.653130 1.018136
Zn2   Zn    Zn3+2 0.499990 0.499980 0.346870 0.961209

loop_
_geom_bond_atom_site_label_1
_geom_bond_atom_site_label_2
_ccdc_geom_bond_type
C15   O9    A    
C10   N2    A    
C25   H7    S    
C12   C23   A    
C13   O3    S    
C16   O11   A    
C11   N2    A    
C5    C6    S    
C21   C33   A    
C29   H18   S    
C6    C22   S    
C24   H3    S    
C34   C35   A    
C26   H9    S    
C24   H4    S    
C19   C20   A    
C12   C17   A    
C6    H2    S    
C20   O5    S    
C9    H19   S    
C10   H20   S    
C9    C10   A    
C4    O8    A    
O6    Zn2   S    
C27   H14   S    
C15   O10   A    
C17   O4    S    
C13   C14   S    
C24   H5    S    
C25   O2    S    
C25   H8    S    
C27   H15   S    
N2    Zn1   S    
C14   H22   S    
C1    O6    A    
C9    N1    A    
C18   C28   S    
C4    C23   S    
C18   C19   A    
C19   H23   S    
C12   C21   A    
C31   H1    S    
C35   C36   A    
C23   C31   A    
C25   H6    S    
C16   C33   S    
C24   O13   S    
C31   C32   A    
C5    C34   A    
C17   C18   A    
C4    O7    A    
C30   N5    T    
C27   O4    S    
C26   H11   S    
N1    Zn2   S    
C7    C34   S    
O8    Zn2   S    
C3    C15   S    
C1    C35   S    
C7    O13   S    
O9    Zn1   S    
O11   Zn1   S    
C2    C36   A    
C14   H21   S    
C8    C14   S    
O1    Zn1   S    
C3    C5    A    
O10   Zn2   S    
C2    H25   S    
C6    C7    S    
C7    H12   S    
C2    C3    A    
C32   C33   A    
C30   C32   S    
C11   C13   S    
O12   Zn2   S    
C29   H17   S    
C8    C11   A    
C1    O1    A    
O7    Zn1   S    
C28   N4    T    
C16   O12   A    
C26   H10   S    
C22   N3    T    
C20   C21   A    
C26   O3    S    
C36   H24   S    
C29   H16   S    
C27   H13   S    
C8    N1    A    
C29   O5    S    
C13   O2    S    
