data_mof_unit_9501.cif
_audit_creation_date              2012-12-11T15:26:57-0500
_audit_creation_method            fapswitch 2.2
_symmetry_space_group_name_H-M    P1
_symmetry_Int_Tables_number       1
_space_group_crystal_system       triclinic
_cell_length_a                    13.934317
_cell_length_b                    13.934264
_cell_length_c                    27.440535
_cell_angle_alpha                 89.999929
_cell_angle_beta                  90.000026
_cell_angle_gamma                 119.999968
_cell_volume                      4614.16443017

loop_
_atom_site_label
_atom_site_type_symbol
_atom_type_description
_atom_site_fract_x
_atom_site_fract_y
_atom_site_fract_z
_atom_type_partial_charge
C1    C     C_R   0.234180 0.787305 0.568668 0.536396
C2    C     C_R   0.212696 0.446875 0.568668 0.536393
C3    C     C_R   0.553123 0.765819 0.568669 0.536397
C4    C     C_3   0.655066 0.733263 0.788723 -0.213257
C5    C     C_3   0.266477 0.922456 0.788652 -0.213240
C6    C     C_3   0.078123 0.344813 0.788712 -0.213267
C7    C     C_3   0.633975 0.720598 0.733047 -0.212837
C8    C     C_3   0.279139 0.914032 0.732976 -0.212835
C9    C     C_3   0.086550 0.365906 0.733036 -0.212850
C10   C     C_1   0.711859 0.864173 0.857925 -0.078564
C11   C     C_1   0.135819 0.847711 0.857919 -0.078565
C12   C     C_1   0.152305 0.288114 0.857920 -0.078566
C13   C     C_1   0.631540 0.816800 0.657830 -0.071486
C14   C     C_1   0.183192 0.814754 0.657826 -0.071483
C15   C     C_1   0.185254 0.368440 0.657827 -0.071483
C16   C     C_1   0.602628 0.797826 0.615901 -0.009429
C17   C     C_1   0.202168 0.804809 0.615898 -0.009428
C18   C     C_1   0.195195 0.397360 0.615899 -0.009430
C19   C     C_R   0.106777 0.219757 0.948734 0.550037
C20   C     C_R   0.780241 0.887019 0.948735 0.550041
C21   C     C_R   0.112980 0.893224 0.948734 0.550039
C22   C     C_R   0.619825 0.809644 0.386518 0.027552
C23   C     C_R   0.190356 0.810181 0.386518 0.027552
C24   C     C_R   0.189818 0.380174 0.386518 0.027552
C25   C     C_R   0.633450 0.906257 0.362884 0.153723
C26   C     C_R   0.093745 0.727191 0.362884 0.153725
C27   C     C_R   0.272805 0.366546 0.362885 0.153723
C28   C     C_R   0.662248 0.922658 0.313897 -0.087511
C29   C     C_R   0.077345 0.739587 0.313897 -0.087511
C30   C     C_R   0.260408 0.337747 0.313898 -0.087511
C31   C     C_R   0.682511 0.847535 0.288441 -0.001477
C32   C     C_R   0.152466 0.834973 0.288440 -0.001478
C33   C     C_R   0.165023 0.317487 0.288442 -0.001477
C34   C     C_R   0.232412 0.787854 0.431743 0.558155
C35   C     C_R   0.212146 0.444558 0.431743 0.558155
C36   C     C_R   0.555442 0.767588 0.431743 0.558157
C37   C     C_R   0.683947 0.760887 0.313606 -0.124244
C38   C     C_R   0.239110 0.923059 0.313606 -0.124244
C39   C     C_R   0.076940 0.316052 0.313606 -0.124245
C40   C     C_R   0.652401 0.741784 0.362158 -0.130852
C41   C     C_R   0.258213 0.910617 0.362157 -0.130852
C42   C     C_R   0.089383 0.347599 0.362158 -0.130852
C43   C     C_R   0.652699 0.761113 0.206289 -0.116184
C44   C     C_R   0.238889 0.891590 0.206289 -0.116185
C45   C     C_R   0.108414 0.347300 0.206289 -0.116183
C46   C     C_R   0.672076 0.769869 0.156372 -0.134696
C47   C     C_R   0.230133 0.902212 0.156372 -0.134696
C48   C     C_R   0.097792 0.327922 0.156372 -0.134696
C49   C     C_R   0.771518 0.970362 0.163505 -0.123263
C50   C     C_R   0.029640 0.801146 0.163504 -0.123264
C51   C     C_R   0.198841 0.228479 0.163505 -0.123263
C52   C     C_R   0.755043 0.961640 0.213438 -0.119786
C53   C     C_R   0.038362 0.793392 0.213436 -0.119786
C54   C     C_R   0.206594 0.244954 0.213438 -0.119787
C55   C     C_R   0.697350 0.856952 0.235392 0.034136
C56   C     C_R   0.143049 0.840395 0.235391 0.034136
C57   C     C_R   0.159601 0.302647 0.235392 0.034136
C58   C     C_R   0.733754 0.874521 0.135017 0.021777
C59   C     C_R   0.125481 0.859232 0.135016 0.021774
C60   C     C_R   0.140765 0.266245 0.135017 0.021776
C61   C     C_R   0.106672 0.221492 0.086217 0.543727
C62   C     C_R   0.778507 0.885179 0.086217 0.543726
C63   C     C_R   0.114821 0.893328 0.086217 0.543728
C64   C     C_3   0.575827 0.864798 0.735753 -0.214008
C65   C     C_3   0.136083 0.711319 0.735803 -0.214029
C66   C     C_3   0.288935 0.424211 0.735756 -0.214020
C67   C     C_3   0.775727 0.921724 0.721008 -0.215559
C68   C     C_3   0.077631 0.853129 0.721013 -0.215554
C69   C     C_3   0.146083 0.224273 0.721003 -0.215548
C70   C     C_3   0.796740 0.934533 0.776826 -0.213981
C71   C     C_3   0.064838 0.861359 0.776832 -0.213977
C72   C     C_3   0.137874 0.203255 0.776822 -0.213955
C73   C     C_1   0.737193 0.873679 0.900331 -0.026316
C74   C     C_1   0.126315 0.863528 0.900327 -0.026309
C75   C     C_1   0.136479 0.262791 0.900328 -0.026313
C76   C     C_3   0.654467 0.831267 0.710436 0.070802
C77   C     C_3   0.168724 0.823222 0.710431 0.070804
C78   C     C_3   0.176792 0.345506 0.710432 0.070800
C79   C     C_3   0.596839 0.877378 0.791548 -0.216135
C80   C     C_3   0.123490 0.719753 0.791595 -0.216141
C81   C     C_3   0.280504 0.403192 0.791549 -0.216139
C82   C     C_3   0.690215 0.852767 0.805196 0.073748
C83   C     C_3   0.147225 0.837479 0.805190 0.073745
C84   C     C_3   0.162542 0.309753 0.805191 0.073738
Cr1   Cr    Cr6+3 0.164410 0.584450 0.499910 1.088940
Cr2   Cr    Cr6+3 0.415550 0.579960 0.499910 1.088939
Cr3   Cr    Cr6+3 0.420040 0.835590 0.499910 1.088939
Cr4   Cr    Cr6+3 0.156760 0.076070 0.017830 1.020699
Cr5   Cr    Cr6+3 0.923930 0.080690 0.017830 1.020699
Cr6   Cr    Cr6+3 0.919310 0.843240 0.017830 1.020699
H1    H     H_    0.620222 0.963020 0.802906 0.111784
H2    H     H_    0.038039 0.657055 0.802995 0.111762
H3    H     H_    0.342807 0.379871 0.802910 0.111783
H4    H     H_    0.487888 0.800981 0.728714 0.105859
H5    H     H_    0.200377 0.687846 0.728762 0.105820
H6    H     H_    0.312982 0.512131 0.728719 0.105822
H7    H     H_    0.519166 0.819435 0.811157 0.107518
H8    H     H_    0.181888 0.700654 0.811202 0.107504
H9    H     H_    0.300170 0.480847 0.811160 0.107506
H10   H     H_    0.721043 0.713524 0.798082 0.112187
H11   H     H_    0.285590 0.007996 0.797975 0.112129
H12   H     H_    0.992426 0.278789 0.798067 0.112187
H13   H     H_    0.604813 0.679411 0.222204 0.114721
H14   H     H_    0.320591 0.925412 0.222204 0.114720
H15   H     H_    0.074598 0.395186 0.222205 0.114719
H16   H     H_    0.642887 0.695280 0.134785 0.117548
H17   H     H_    0.304721 0.947618 0.134785 0.117551
H18   H     H_    0.052392 0.357112 0.134785 0.117548
H19   H     H_    0.663193 0.991604 0.295267 0.136432
H20   H     H_    0.008403 0.671585 0.295266 0.136431
H21   H     H_    0.328407 0.336801 0.295268 0.136431
H22   H     H_    0.791549 0.036861 0.234934 0.111072
H23   H     H_    0.963140 0.754671 0.234932 0.111070
H24   H     H_    0.245308 0.208445 0.234934 0.111070
H25   H     H_    0.821132 0.052167 0.147823 0.137071
H26   H     H_    0.947835 0.768948 0.147821 0.137068
H27   H     H_    0.231032 0.178864 0.147823 0.137071
H28   H     H_    0.704718 0.704888 0.295220 0.125934
H29   H     H_    0.295107 0.999829 0.295220 0.125934
H30   H     H_    0.000170 0.295283 0.295220 0.125934
H31   H     H_    0.588934 0.944397 0.720385 0.115112
H32   H     H_    0.056690 0.644375 0.720480 0.115045
H33   H     H_    0.355477 0.411177 0.720392 0.115112
H34   H     H_    0.646906 0.669449 0.379586 0.181027
H35   H     H_    0.330546 0.977457 0.379586 0.181028
H36   H     H_    0.022545 0.353097 0.379586 0.181030
H37   H     H_    0.833951 0.899278 0.703555 0.111511
H38   H     H_    0.099423 0.933583 0.703515 0.111479
H39   H     H_    0.065436 0.166007 0.703545 0.111497
H40   H     H_    0.792618 0.002281 0.705232 0.114610
H41   H     H_    0.997244 0.788984 0.705288 0.114671
H42   H     H_    0.209803 0.207455 0.705233 0.114628
H43   H     H_    0.823793 0.021330 0.787777 0.110118
H44   H     H_    0.978210 0.801174 0.787834 0.110176
H45   H     H_    0.197661 0.176261 0.787778 0.110136
H46   H     H_    0.865443 0.918730 0.786005 0.105919
H47   H     H_    0.080029 0.945672 0.785968 0.105886
H48   H     H_    0.053387 0.134510 0.785995 0.105911
H49   H     H_    0.547155 0.653962 0.725980 0.109805
H50   H     H_    0.346227 0.894506 0.725897 0.109897
H51   H     H_    0.106668 0.452706 0.725970 0.109839
H52   H     H_    0.689673 0.694607 0.715775 0.115856
H53   H     H_    0.304484 0.995543 0.715667 0.115823
H54   H     H_    0.004880 0.310159 0.715761 0.115852
H55   H     H_    0.578430 0.672673 0.808278 0.110082
H56   H     H_    0.327511 0.907052 0.808196 0.110134
H57   H     H_    0.094105 0.421429 0.808267 0.110105
O1    O     O_R   0.137310 0.468260 0.552980 -0.504737
O2    O     O_R   0.531740 0.669050 0.552980 -0.504740
O3    O     O_R   0.330950 0.862690 0.552980 -0.504741
O4    O     O_R   0.180530 0.983530 0.965090 -0.511572
O5    O     O_R   0.016470 0.197000 0.965090 -0.511570
O6    O     O_R   0.803000 0.819470 0.965090 -0.511572
O7    O     O_R   0.174120 0.688790 0.549730 -0.495883
O8    O     O_R   0.311210 0.485330 0.549730 -0.495884
O9    O     O_R   0.514670 0.825880 0.549730 -0.495884
O10   O     O_R   0.139940 0.470480 0.446230 -0.493856
O11   O     O_R   0.529520 0.669460 0.446230 -0.493858
O12   O     O_R   0.330540 0.860060 0.446230 -0.493857
O13   O     O_R   0.176560 0.690850 0.450770 -0.450739
O14   O     O_R   0.309150 0.485710 0.450770 -0.450739
O15   O     O_R   0.514290 0.823440 0.450770 -0.450738
O16   O     O_3   0.333333 0.666667 0.499990 -0.297661
O17   O     O_3   0.000000 0.000000 0.017910 -0.216689
O18   O     O_R   0.149710 0.171070 0.967700 -0.496244
O19   O     O_R   0.828930 0.978640 0.967700 -0.496245
O20   O     O_R   0.021360 0.850290 0.967700 -0.496246
O21   O     O_R   0.178510 0.985930 0.071830 -0.518531
O22   O     O_R   0.014070 0.192580 0.071830 -0.518529
O23   O     O_R   0.807420 0.821490 0.071830 -0.518529
O24   O     O_R   0.147830 0.173300 0.066650 -0.501424
O25   O     O_R   0.826700 0.974530 0.066650 -0.501424
O26   O     O_R   0.025470 0.852170 0.066650 -0.501424
Br1   Br    Br    0.610422 0.018132 0.392892 -0.479823
Br2   Br    Br    0.981871 0.592288 0.392892 -0.479827
Br3   Br    Br    0.407706 0.389571 0.392893 -0.479825

loop_
_geom_bond_atom_site_label_1
_geom_bond_atom_site_label_2
_ccdc_geom_bond_type
C58   C62   S    
C15   C18   T    
Cr3   O16   S    
C2    O8    A    
Cr6   O20   S    
C2    C18   S    
C24   C42   A    
C24   C27   A    
C6    C9    S    
C44   H14   S    
C71   H47   S    
C25   C28   A    
Cr6   O26   S    
C45   C57   A    
C35   O14   A    
C50   C59   A    
C21   O4    A    
C29   C32   A    
C80   C83   S    
C5    C83   S    
C10   C73   T    
C14   C77   S    
C15   C78   S    
C52   H22   S    
C2    O1    A    
C39   H30   S    
C54   H24   S    
C12   C84   S    
C23   C26   A    
C51   H27   S    
C25   Br1   S    
Cr5   O5    S    
C37   H28   S    
C53   H23   S    
Cr4   O21   S    
Cr3   O3    S    
C70   H43   S    
Cr1   O1    S    
C48   C60   A    
C61   O24   A    
Cr1   O13   S    
C32   C38   A    
C68   H38   S    
Cr5   O17   S    
C79   H1    S    
C44   C47   A    
C36   O11   A    
Cr1   O7    S    
C34   O12   A    
C49   C52   A    
C72   H48   S    
C65   C80   S    
C46   C58   A    
C27   C30   A    
C70   H46   S    
C14   C17   T    
C69   C78   S    
Cr1   O10   S    
C71   H44   S    
C4    C7    S    
C40   H34   S    
C9    H54   S    
C45   H15   S    
C63   O26   A    
C39   C42   A    
C71   C83   S    
C62   O23   A    
C5    H11   S    
C3    O2    A    
C24   C35   S    
C6    C84   S    
C20   O6    A    
C50   C53   A    
C41   H35   S    
C29   H20   S    
C65   C77   S    
C38   C41   A    
Cr2   O2    S    
C9    H51   S    
C72   H45   S    
C81   H9    S    
C11   C83   S    
Cr4   O17   S    
C47   C59   A    
C21   C74   S    
C10   C82   S    
C49   C58   A    
C31   C37   A    
Cr6   O17   S    
C60   C61   S    
C80   H2    S    
C68   H41   S    
Cr2   O8    S    
C35   O10   A    
C67   H37   S    
C5    C8    S    
C81   H3    S    
C44   C56   A    
C13   C76   S    
C23   C34   S    
C22   C40   A    
Cr6   O23   S    
C19   O5    A    
C64   C76   S    
C1    O3    A    
Cr2   O14   S    
C33   C39   A    
C65   H32   S    
Cr6   O6    S    
Cr2   O11   S    
C72   C84   S    
C38   H29   S    
C66   C78   S    
C43   C55   A    
C63   O21   A    
C49   H25   S    
C22   C25   A    
C47   H17   S    
C4    H10   S    
C8    C77   S    
Cr1   O16   S    
Cr4   O4    S    
C13   C16   T    
C67   H40   S    
C61   O22   A    
C69   H42   S    
C81   C84   S    
C62   O25   A    
C66   H6    S    
C45   C48   A    
C68   C77   S    
C33   C57   S    
C5    H56   S    
C30   C33   A    
C80   H8    S    
Cr3   O9    S    
C59   C63   S    
C20   O19   A    
C79   H7    S    
C28   C31   A    
Cr5   O25   S    
C69   C72   S    
C11   C74   T    
C21   O20   A    
C27   Br3   S    
C79   C82   S    
C52   C55   A    
C7    C76   S    
Cr2   O16   S    
C28   H19   S    
C37   C40   A    
C22   C36   S    
C1    C17   S    
C23   C41   A    
C30   H21   S    
C8    H50   S    
C67   C70   S    
C51   C54   A    
C51   C60   A    
C19   C75   S    
Cr5   O22   S    
C66   C81   S    
C7    H49   S    
C6    H57   S    
C48   H18   S    
C26   Br2   S    
C36   O15   A    
C68   C71   S    
C4    H55   S    
C46   H16   S    
C3    O9    A    
C64   C79   S    
Cr3   O12   S    
C20   C73   S    
C8    H53   S    
C50   H26   S    
C9    C78   S    
C6    H12   S    
C1    O7    A    
C70   C82   S    
C43   C46   A    
C43   H13   S    
Cr5   O19   S    
C42   H36   S    
C64   H4    S    
C65   H5    S    
Cr3   O15   S    
C4    C82   S    
C26   C29   A    
C69   H39   S    
Cr4   O18   S    
C12   C75   T    
C53   C56   A    
Cr4   O24   S    
C66   H33   S    
C67   C76   S    
C19   O18   A    
C31   C55   S    
C32   C56   S    
C7    H52   S    
C3    C16   S    
C64   H31   S    
C54   C57   A    
C34   O13   A    
