data_mof_unit_35003.cif
_audit_creation_date              2012-12-10T18:07:30-0500
_audit_creation_method            fapswitch 2.2
_symmetry_space_group_name_H-M    P1
_symmetry_Int_Tables_number       1
_space_group_crystal_system       triclinic
_cell_length_a                    11.528105
_cell_length_b                    12.682597
_cell_length_c                    13.096306
_cell_angle_alpha                 82.519189
_cell_angle_beta                  91.003798
_cell_angle_gamma                 101.939597
_cell_volume                      1857.30667532

loop_
_atom_site_label
_atom_site_type_symbol
_atom_type_description
_atom_site_fract_x
_atom_site_fract_y
_atom_site_fract_z
_atom_type_partial_charge
C1    C     C_R   0.485148 0.438824 0.691249 0.892271
C2    C     C_R   0.544136 0.594896 0.201223 -0.040111
C3    C     C_R   0.376524 0.307825 0.836128 -0.012263
C4    C     C_R   0.352786 0.281567 0.941477 -0.179408
C5    C     C_R   0.407444 0.350448 0.010049 -0.201372
C6    C     C_R   0.493774 0.444198 0.975345 0.095935
C7    C     C_R   0.535013 0.458733 0.873095 0.041420
C8    C     C_R   0.541245 0.523817 0.039022 0.089026
C9    C     C_R   0.643431 0.604347 0.007191 0.127464
C10   C     C_R   0.695935 0.605000 0.912043 -0.172342
C11   C     C_R   0.641691 0.533710 0.845132 -0.127273
C12   C     C_R   0.717531 0.500542 0.500388 0.888772
C13   C     C_R   0.488471 0.526153 0.133154 -0.234613
C14   C     C_R   0.644387 0.675232 0.170278 -0.190056
C15   C     C_R   0.467858 0.398720 0.801108 -0.178822
C16   C     C_R   0.321023 0.085789 0.357926 -0.285189
C17   C     C_R   0.636029 0.798305 0.632911 0.711101
C18   C     C_R   0.646557 0.895024 0.676119 -0.188194
C19   C     C_R   0.581851 0.970622 0.632049 -0.301659
C20   C     C_R   0.518905 0.956338 0.539876 0.000575
C21   C     C_R   0.500689 0.852675 0.507133 0.130526
C22   C     C_R   0.468032 0.038745 0.482776 -0.023239
C23   C     C_R   0.515261 0.560520 0.309078 0.827361
C24   C     C_R   0.381087 0.008966 0.407986 0.182724
C25   C     C_R   0.357620 0.903534 0.381887 -0.248323
C26   C     C_R   0.420299 0.827819 0.427920 -0.148587
C27   C     C_R   0.503287 0.150610 0.492908 0.048547
C28   C     C_R   0.349879 0.192113 0.380044 -0.003417
C29   C     C_R   0.282459 0.499430 0.499698 0.914220
C30   C     C_1   0.838464 0.501368 0.500901 -0.145072
C31   C     C_1   0.940650 0.500496 0.500841 0.029118
C32   C     C_1   0.059215 0.498900 0.500335 0.018119
C33   C     C_1   0.161455 0.498287 0.499864 -0.148886
C34   C     C_R   0.692823 0.681205 0.072297 -0.171989
H1    H     H_    0.689191 0.728218 0.223664 0.160591
H2    H     H_    0.293473 0.880547 0.323032 0.153199
H3    H     H_    0.252344 0.063750 0.302424 0.151812
H4    H     H_    0.578430 0.038484 0.672409 0.238033
H5    H     H_    0.402869 0.749921 0.401245 0.201381
H6    H     H_    0.777635 0.661748 0.888590 0.215630
H7    H     H_    0.771554 0.742400 0.049257 0.159803
H8    H     H_    0.406692 0.470802 0.158287 0.135628
H9    H     H_    0.382352 0.327238 0.090120 0.141696
H10   H     H_    0.285509 0.211258 0.970227 0.165425
H11   H     H_    0.684564 0.536477 0.771738 0.202012
H12   H     H_    0.302317 0.251853 0.343680 0.138609
N1    N     N_R   0.440320 0.222190 0.444690 -0.137774
N2    N     N_R   0.559060 0.776980 0.554780 -0.183606
O1    O     O_R   0.471500 0.366730 0.627160 -0.551531
O2    O     O_R   0.509620 0.544830 0.662520 -0.573812
O3    O     O_R   0.646490 0.410960 0.482310 -0.595877
O4    O     O_R   0.684610 0.589050 0.517670 -0.560853
O5    O     O_R   0.490380 0.455170 0.337480 -0.616526
O6    O     O_R   0.528500 0.633270 0.372840 -0.643967
O7    O     O_R   0.315390 0.410950 0.482330 -0.597938
O8    O     O_R   0.353510 0.589040 0.517690 -0.633748
Zn1   Zn    Zn3+2 0.474550 0.381080 0.476390 0.994756
Zn2   Zn    Zn3+2 0.525450 0.618920 0.523610 0.991181
C35   C     C_2   0.618614 0.194212 0.537978 0.943621
O9    O     O_2   0.710092 0.189431 0.494579 -0.621621
O10   O     O_R   0.623503 0.236675 0.631572 -0.781096
H13   H     H_    0.707805 0.262143 0.654952 0.341838
F1    F     F_    0.697114 0.722202 0.672048 -0.648043
C36   C     C_2   0.722464 0.918029 0.766850 0.979729
O11   O     O_2   0.790762 0.859314 0.798093 -0.601878
O12   O     O_R   0.717343 0.008446 0.816169 -0.796806
H14   H     H_    0.773393 0.015744 0.876562 0.345831
C37   C     C_2   0.299284 0.241909 0.766187 0.943053
O13   O     O_2   0.282760 0.142718 0.781593 -0.606287
O14   O     O_R   0.240906 0.292686 0.685865 -0.801190
H15   H     H_    0.189935 0.238889 0.644223 0.352363

loop_
_geom_bond_atom_site_label_1
_geom_bond_atom_site_label_2
_ccdc_geom_bond_type
C14   C34   A    
C7    C11   A    
C21   C26   A    
C28   N1    A    
C16   C28   A    
C6    C7    A    
O3    Zn1   S    
C19   H4    S    
C8    C9    A    
N1    Zn1   S    
C4    H10   S    
C9    C10   A    
C19   C20   A    
C17   N2    A    
C16   H3    S    
C21   N2    A    
C18   C36   S    
C32   C33   T    
C12   O3    A    
C7    C15   A    
C17   C18   A    
C5    H9    S    
O1    Zn1   S    
C35   O9    D    
C16   C24   A    
C36   O12   S    
C27   C35   S    
O12   H14   S    
C36   O11   D    
N2    Zn2   S    
C1    O2    A    
C30   C31   T    
C28   H12   S    
C8    C13   A    
C34   H7    S    
O4    Zn2   S    
C1    C15   S    
C5    C6    A    
C10   H6    S    
C13   H8    S    
C29   O8    A    
C3    C37   S    
O8    Zn2   S    
C9    C34   A    
C23   O5    A    
C22   C27   A    
O7    Zn1   S    
O10   H13   S    
C2    C14   A    
C22   C24   A    
C26   H5    S    
C35   O10   S    
C11   H11   S    
C10   C11   A    
C25   H2    S    
C3    C4    A    
O2    Zn2   S    
C20   C21   A    
C29   C33   S    
C14   H1    S    
O14   H15   S    
C3    C15   A    
C24   C25   A    
C23   O6    A    
C37   O14   S    
C18   C19   A    
O6    Zn2   S    
C27   N1    A    
C2    C23   S    
C2    C13   A    
O5    Zn1   S    
C37   O13   D    
C6    C8    A    
C29   O7    A    
C12   O4    A    
C25   C26   A    
C12   C30   S    
C17   F1    S    
C31   C32   S    
C20   C22   A    
C4    C5    A    
C1    O1    A    
