data_mof_unit_24778.cif
_audit_creation_date              2012-12-11T15:32:09-0500
_audit_creation_method            fapswitch 2.2
_symmetry_space_group_name_H-M    P1
_symmetry_Int_Tables_number       1
_space_group_crystal_system       triclinic
_cell_length_a                    8.190068
_cell_length_b                    16.485842
_cell_length_c                    19.01852
_cell_angle_alpha                 107.899938
_cell_angle_beta                  86.026351
_cell_angle_gamma                 97.299132
_cell_volume                      2422.53782976

loop_
_atom_site_label
_atom_site_type_symbol
_atom_type_description
_atom_site_fract_x
_atom_site_fract_y
_atom_site_fract_z
_atom_type_partial_charge
Ba1   Ba    Ba6+2 0.640410 0.457420 0.526150 1.629946
Ba2   Ba    Ba6+2 0.169770 0.542590 0.473910 1.628625
C1    C     C_3   0.790150 0.235773 0.750700 -0.370457
C2    C     C_3   0.809392 0.265725 0.682318 0.354892
C3    C     C_3   0.950245 0.280917 0.327324 0.310615
C4    C     C_3   0.939438 0.184387 0.291308 -0.393805
C5    C     C_3   0.482365 0.779036 0.359533 0.359700
C6    C     C_3   0.489823 0.868464 0.351497 -0.361729
C7    C     C_3   0.995235 0.732320 0.314279 0.363277
C8    C     C_3   0.023022 0.759864 0.244740 -0.367364
C9    C     C_2   0.712648 0.752431 0.519251 -0.275495
C10   C     C_R   0.103267 0.249111 0.479071 -0.299771
C11   C     C_2   0.525271 0.859659 0.578442 -0.143900
C12   C     C_3   0.317071 0.223618 0.640346 0.356042
C13   C     C_2   0.556996 0.777443 0.558421 0.059137
C14   C     C_2   0.821782 0.808901 0.497876 0.044237
C15   C     C_3   0.769591 0.894439 0.499040 -0.052623
C16   C     C_3   0.648357 0.929059 0.563553 0.005831
C17   C     C_2   0.908316 0.962243 0.494599 -0.080807
C18   C     C_2   0.876268 0.034326 0.482039 -0.083908
C19   C     C_R   0.156816 0.076818 0.436277 -0.008885
C20   C     C_R   0.007271 0.101103 0.472432 -0.038656
C21   C     C_R   0.276533 0.137596 0.420360 -0.130008
C22   C     C_R   0.248714 0.223930 0.440943 0.064855
C23   C     C_3   0.300047 0.134107 0.648671 -0.380649
C24   C     C_R   0.980783 0.188436 0.493584 0.012488
C25   C     C_R   0.099215 0.464081 0.694417 -0.285814
C26   C     C_R   0.964537 0.508596 0.724274 0.072861
C27   C     C_R   0.912984 0.517753 0.797976 -0.116143
C28   C     C_R   0.000547 0.485655 0.843133 -0.022974
C29   C     C_R   0.139915 0.443282 0.812465 -0.142799
C30   C     C_R   0.189655 0.433547 0.738586 0.018042
C31   C     C_R   0.940790 0.427308 0.950061 -0.108739
C32   C     C_R   0.890644 0.434619 0.023208 -0.085689
C33   C     C_R   0.846009 0.512492 0.071081 0.028685
C34   C     C_3   0.331568 0.648105 0.704861 0.312600
C35   C     C_R   0.853363 0.583296 0.044153 -0.079798
C36   C     C_R   0.908301 0.577847 0.970646 0.204007
C37   C     C_R   0.949334 0.497721 0.922449 0.035419
C38   C     C_R   0.659543 0.563764 0.183558 -0.137706
C39   C     C_R   0.613197 0.570078 0.257344 0.020942
C40   C     C_R   0.836224 0.490170 0.264725 0.035681
C41   C     C_R   0.882901 0.482885 0.190971 -0.115299
C42   C     C_R   0.796281 0.520541 0.149695 -0.003114
C43   C     C_R   0.705583 0.536120 0.298087 -0.279269
C44   C     C_3   0.308800 0.671847 0.788510 -0.406116
C45   C     C_3   0.472344 0.353305 0.295329 0.311500
C46   C     C_3   0.490778 0.330617 0.211574 -0.399357
C47   C     C_3   0.878767 0.724319 0.665372 0.294180
C48   C     C_3   0.964893 0.814758 0.699646 -0.071846
H1    H     H_    0.743376 0.323372 0.693122 0.096581
H2    H     H_    0.221806 0.721236 0.808238 0.119470
H3    H     H_    0.258995 0.614665 0.805222 0.060888
H4    H     H_    0.429100 0.697455 0.814918 0.129189
H5    H     H_    0.594290 0.376508 0.319790 0.006407
H6    H     H_    0.390138 0.404716 0.315241 0.071551
H7    H     H_    0.581079 0.283124 0.190542 0.129754
H8    H     H_    0.534173 0.388653 0.194938 0.064870
H9    H     H_    0.370034 0.302962 0.186264 0.123895
H10   H     H_    0.746129 0.727191 0.659648 -0.006031
H11   H     H_    0.937207 0.696565 0.610138 0.062959
H12   H     H_    0.657891 0.218191 0.762374 0.143651
H13   H     H_    0.930525 0.837745 0.759580 0.091482
H14   H     H_    0.100341 0.811910 0.694217 0.115689
H15   H     H_    0.942562 0.283045 0.672418 -0.054322
H16   H     H_    0.840464 0.288114 0.798844 0.070364
H17   H     H_    0.077966 0.304632 0.345493 0.017909
H18   H     H_    0.863547 0.293941 0.376034 0.060666
H19   H     H_    0.027517 0.169159 0.243209 0.125845
H20   H     H_    0.970108 0.152614 0.331544 0.059155
H21   H     H_    0.812523 0.159059 0.272348 0.124369
H22   H     H_    0.858169 0.179162 0.742074 0.106220
H23   H     H_    0.246069 0.086832 0.598278 0.070561
H24   H     H_    0.406361 0.777363 0.409804 0.093771
H25   H     H_    0.609429 0.766533 0.366196 -0.065556
H26   H     H_    0.364845 0.882292 0.342826 0.151592
H27   H     H_    0.538538 0.917072 0.402284 0.071225
H28   H     H_    0.571884 0.873267 0.303612 0.104717
H29   H     H_    0.860507 0.723167 0.325641 -0.068056
H30   H     H_    0.046683 0.670391 0.303933 0.091417
H31   H     H_    0.962998 0.709601 0.197733 0.065748
H32   H     H_    0.156916 0.769325 0.231453 0.148199
H33   H     H_    0.398805 0.223805 0.591334 0.095480
H34   H     H_    0.969264 0.820788 0.252903 0.107739
H35   H     H_    0.415023 0.878572 0.611280 0.087059
H36   H     H_    0.388419 0.116853 0.390292 0.094029
H37   H     H_    0.741809 0.687980 0.512112 0.064352
H38   H     H_    0.082504 0.315923 0.494559 0.077137
H39   H     H_    0.034302 0.953476 0.502197 0.104444
H40   H     H_    0.748910 0.043856 0.478116 0.106469
H41   H     H_    0.985480 0.447455 0.165883 0.076882
H42   H     H_    0.884611 0.378658 0.042116 0.069597
H43   H     H_    0.972089 0.365759 0.914596 0.072581
H44   H     H_    0.193058 0.238078 0.631032 -0.058617
H45   H     H_    0.806989 0.551568 0.820421 0.114472
H46   H     H_    0.821558 0.643328 0.081970 0.061140
H47   H     H_    0.586805 0.590145 0.152258 0.074991
H48   H     H_    0.212183 0.420121 0.846342 0.079730
H49   H     H_    0.668900 0.540481 0.354790 0.064520
H50   H     H_    0.139936 0.457915 0.637849 0.071551
H51   H     H_    0.422713 0.116699 0.656442 0.145963
H52   H     H_    0.218084 0.131790 0.697196 0.105503
H53   H     H_    0.209994 0.626513 0.679613 0.006381
H54   H     H_    0.411311 0.595373 0.686109 0.068316
O1    O     O_2   0.558990 0.288510 0.428270 -0.457490
O2    O     O_3   0.893722 0.677519 0.714304 -0.655758
O3    O     O_3   0.385363 0.283025 0.704388 -0.601669
O4    O     O_2   0.251320 0.711540 0.571760 -0.466074
O5    O     O_3   0.469110 0.603410 0.553990 -0.493731
O6    O     O_3   0.001220 0.659660 0.436740 -0.485159
O7    O     O_3   0.404350 0.720630 0.686444 -0.640953
O8    O     O_3   0.861890 0.456640 0.409240 -0.480581
O9    O     O_3   0.404240 0.616350 0.394030 -0.489797
O10   O     O_2   0.271738 0.561480 0.260975 -0.487053
O11   O     O_3   0.411513 0.718921 0.296594 -0.601166
O12   O     O_3   0.341190 0.396600 0.446070 -0.496206
O13   O     O_3   0.948410 0.543360 0.590820 -0.494201
O14   O     O_2   0.117990 0.459640 0.323300 -0.458219
O15   O     O_3   0.908566 0.319342 0.275639 -0.643482
O16   O     O_2   0.161661 0.810690 0.507127 -0.488791
O17   O     O_3   0.074987 0.795443 0.373093 -0.604958
O18   O     O_3   0.809080 0.340350 0.563320 -0.491258
O19   O     O_2   0.640238 0.190880 0.492662 -0.497925
O20   O     O_3   0.405852 0.279704 0.313619 -0.636217
O21   O     O_3   0.741711 0.199726 0.622073 -0.603485
O22   O     O_2   0.692320 0.540420 0.676730 -0.460257
O23   O     O_3   0.406060 0.383660 0.606030 -0.492006
O24   O     O_2   0.531606 0.440002 0.740255 -0.490431
P1    P     P_3+3 0.391560 0.302240 0.409860 0.981516
P2    P     P_3+3 0.873530 0.566630 0.670640 0.981628
P3    P     P_3+3 0.379091 0.386560 0.698624 0.943085
P4    P     P_3+3 0.418740 0.697770 0.590200 0.973683
P5    P     P_3+3 0.424845 0.615686 0.301497 0.946397
P6    P     P_3+3 0.791273 0.228763 0.541435 0.941591
P7    P     P_3+3 0.928420 0.430693 0.316188 0.943897
P8    P     P_3+3 0.016872 0.770463 0.454897 0.953566
N1    N     N_2   0.918711 0.873939 0.663973 -0.440975
H55   H     H_    0.795517 0.882335 0.672228 0.190214
C49   C     C_3   0.022868 0.954622 0.679260 -0.233994
H56   H     H_    0.977590 0.995687 0.649931 0.114314
H57   H     H_    0.151248 0.943526 0.659440 0.126805
H58   H     H_    0.020655 0.988857 0.739543 0.096107
N2    N     N_2   0.929898 0.651922 0.945104 -0.435684
H59   H     H_    0.035371 0.657317 0.913203 0.194242
C50   C     C_3   0.881650 0.733111 0.991978 -0.248643
H60   H     H_    0.897096 0.780363 0.960474 0.111736
H61   H     H_    0.960568 0.758146 0.040929 0.105638
H62   H     H_    0.749819 0.725676 0.009519 0.117000

loop_
_geom_bond_atom_site_label_1
_geom_bond_atom_site_label_2
_ccdc_geom_bond_type
O21   P6    S    
C4    H19   S    
Ba2   O5    S    
C4    H20   S    
C48   H14   S    
C36   N2    S    
O6    P8    S    
C17   C18   D    
C3    H17   S    
C39   P5    S    
C50   H60   S    
Ba2   O14   S    
C48   N1    S    
C46   H7    S    
N1    C49   S    
Ba2   O8    S    
C31   C37   A    
C47   H10   S    
C11   C16   S    
C3    O15   S    
C34   H53   S    
C24   P6    S    
C26   C27   A    
C33   C35   A    
C35   C36   A    
C32   C33   A    
Ba1   P1    S    
Ba1   O8    S    
C28   C29   A    
C49   H58   S    
C23   H52   S    
O22   P2    D    
N2    H59   S    
C44   H2    S    
C6    H26   S    
O2    P2    S    
Ba1   Ba2   S    
C7    H29   S    
C29   H48   S    
C5    O11   S    
C2    H15   S    
O18   P6    S    
C8    H34   S    
Ba1   O5    S    
Ba1   O18   S    
C9    C13   S    
C22   P1    S    
O12   P1    S    
C45   C46   S    
C9    H37   S    
C14   C15   S    
C21   H36   S    
O20   P1    S    
Ba2   P4    S    
C21   C22   A    
C34   C44   S    
Ba1   O12   S    
C7    C8    S    
C23   H23   S    
C12   C23   S    
O9    P5    S    
C19   C20   A    
C6    H28   S    
C48   H13   S    
Ba2   O12   S    
C12   H33   S    
O5    P4    S    
C3    H18   S    
C50   H61   S    
Ba2   O13   S    
C31   C32   A    
C5    H24   S    
O23   P3    S    
C4    H21   S    
C25   H50   S    
C47   H11   S    
C13   P4    S    
C2    H1    S    
C5    C6    S    
C36   C37   A    
Ba1   O22   S    
O3    P3    S    
Ba1   P2    S    
C43   H49   S    
C38   H47   S    
C27   H45   S    
C10   H38   S    
C15   C17   S    
O1    P1    D    
O11   P5    S    
C18   H40   S    
C8    H32   S    
C41   H41   S    
C35   H46   S    
C10   C24   A    
C40   P7    S    
O16   P8    D    
C40   C43   A    
C41   C42   A    
C27   C28   A    
C17   H39   S    
C9    C14   D    
C7    O17   S    
C29   C30   A    
C44   H4    S    
C34   O7    S    
O15   P7    S    
C15   C16   S    
Ba1   O13   S    
O13   P2    S    
C33   C42   S    
C2    O21   S    
C12   O3    S    
C18   C20   S    
C11   C13   D    
C6    H27   S    
C1    H16   S    
C40   C41   A    
O8    P7    S    
C1    C2    S    
C14   P8    S    
O24   P3    D    
C50   H62   S    
C46   H9    S    
C45   H5    S    
C1    H12   S    
N2    C50   S    
Ba2   O6    S    
C25   C30   A    
Ba1   O23   S    
C31   H43   S    
C5    H25   S    
C49   H56   S    
C46   H8    S    
C47   O2    S    
N1    H55   S    
C10   C22   A    
C8    H31   S    
C34   H54   S    
C19   C21   A    
C1    H22   S    
C49   H57   S    
C23   H51   S    
C45   O20   S    
C3    C4    S    
C44   H3    S    
Ba2   O4    S    
Ba2   O9    S    
O10   P5    D    
C12   H44   S    
C28   C37   S    
C26   P2    S    
O17   P8    S    
C32   H42   S    
O4    P4    D    
O7    P4    S    
C38   C42   A    
C47   C48   S    
C20   C24   A    
C11   H35   S    
C25   C26   A    
C39   C43   A    
C38   C39   A    
C7    H30   S    
C30   P3    S    
O19   P6    D    
O14   P7    D    
Ba1   O1    S    
C45   H6    S    
