data_mof_unit_8042.cif
_audit_creation_date              2012-12-11T14:13:30-0500
_audit_creation_method            fapswitch 2.2
_symmetry_space_group_name_H-M    P1
_symmetry_Int_Tables_number       1
_space_group_crystal_system       triclinic
_cell_length_a                    11.605514
_cell_length_b                    18.606373
_cell_length_c                    9.93516
_cell_angle_alpha                 90.000017
_cell_angle_beta                  110.794511
_cell_angle_gamma                 89.999933
_cell_volume                      2005.61423359

loop_
_atom_site_label
_atom_site_type_symbol
_atom_type_description
_atom_site_fract_x
_atom_site_fract_y
_atom_site_fract_z
_atom_type_partial_charge
C1    C     C_R   0.074092 0.645839 0.140608 0.578484
C2    C     C_2   0.595563 0.076173 0.084031 -0.088493
C3    C     C_2   0.595565 0.423828 0.084030 -0.088494
C4    C     C_2   0.404435 0.576172 0.915970 -0.088494
C5    C     C_2   0.504410 0.960508 0.994921 0.069578
C6    C     C_2   0.495589 0.039492 0.005079 0.069578
C7    C     C_2   0.495590 0.460508 0.005080 0.069578
C8    C     C_2   0.504410 0.539492 0.994920 0.069579
C9    C     C_2   0.013555 0.923259 0.115281 -0.084075
C10   C     C_2   0.986445 0.076741 0.884719 -0.084075
C11   C     C_2   0.986445 0.423259 0.884718 -0.084075
C12   C     C_R   0.925908 0.354160 0.859392 0.578484
C13   C     C_2   0.013555 0.576741 0.115281 -0.084075
C14   C     C_2   0.020719 0.963257 0.007444 -0.144943
C15   C     C_2   0.979281 0.036742 0.992556 -0.144943
C16   C     C_2   0.979281 0.463257 0.992557 -0.144942
C17   C     C_2   0.020718 0.536743 0.007443 -0.144943
C18   C     C_R   0.470044 0.647048 0.443886 0.528846
C19   C     C_R   0.529956 0.352952 0.556114 0.528846
C20   C     C_R   0.529957 0.147047 0.556115 0.528846
C21   C     C_R   0.470043 0.852952 0.443884 0.528846
C22   C     C_R   0.377741 0.646501 0.960161 0.555698
C23   C     C_R   0.925908 0.145840 0.859392 0.578484
C24   C     C_R   0.622259 0.353499 0.039839 0.555698
C25   C     C_R   0.622258 0.146501 0.039839 0.555700
C26   C     C_R   0.377742 0.853499 0.960161 0.555699
C27   C     C_R   0.503777 0.424722 0.487962 -0.031222
C28   C     C_R   0.496222 0.575278 0.512039 -0.031223
C29   C     C_R   0.496219 0.924722 0.512036 -0.031221
C30   C     C_R   0.503781 0.075277 0.487964 -0.031221
C31   C     C_R   0.283649 0.419168 0.455708 -0.055584
C32   C     C_R   0.716352 0.580832 0.544297 -0.055584
C33   C     C_R   0.716351 0.919164 0.544311 -0.055584
C34   C     C_R   0.074092 0.854160 0.140608 0.578484
C35   C     C_R   0.283649 0.080836 0.455689 -0.055583
C36   C     C_R   0.181002 0.450538 0.473366 -0.104114
C37   C     C_R   0.819000 0.549462 0.526643 -0.104113
C38   C     C_R   0.819005 0.950531 0.526667 -0.104115
C39   C     C_R   0.180995 0.049469 0.473334 -0.104116
C40   C     C_R   0.187284 0.521048 0.521488 -0.112804
C41   C     C_R   0.812717 0.478953 0.478518 -0.112802
C42   C     C_R   0.812729 0.021042 0.478548 -0.112804
C43   C     C_R   0.187271 0.978958 0.521452 -0.112804
C44   C     C_R   0.293209 0.561714 0.542516 -0.066393
C45   C     C_R   0.393916 0.458619 0.483846 0.024553
C46   C     C_R   0.706792 0.438287 0.457486 -0.066393
C47   C     C_R   0.706804 0.061710 0.457509 -0.066391
C48   C     C_R   0.293196 0.938290 0.542491 -0.066391
C49   C     C_R   0.394863 0.532669 0.513513 0.015102
C50   C     C_R   0.605136 0.467331 0.486488 0.015101
C51   C     C_R   0.605142 0.032667 0.486499 0.015100
C52   C     C_R   0.394857 0.967333 0.513501 0.015100
C53   C     C_R   0.606083 0.541381 0.516155 0.024553
C54   C     C_R   0.606084 0.958617 0.516164 0.024552
C55   C     C_R   0.393916 0.041382 0.483836 0.024551
C56   C     C_2   0.404436 0.923827 0.915968 -0.088493
Cr1   Cr    Cr6+3 0.187610 0.750000 0.979860 1.017462
Cr2   Cr    Cr6+3 0.812390 0.250000 0.020140 1.017462
Cr3   Cr    Cr6+3 0.245810 0.750000 0.341640 1.019278
Cr4   Cr    Cr6+3 0.754190 0.250000 0.658360 1.019278
Cr5   Cr    Cr6+3 0.485760 0.750000 0.219910 1.096721
Cr6   Cr    Cr6+3 0.514240 0.250000 0.780090 1.096720
H1    H     H_    0.097935 0.419368 0.453893 0.109186
H2    H     H_    0.722977 0.636327 0.579202 0.125296
H3    H     H_    0.722970 0.863668 0.579210 0.125296
H4    H     H_    0.277029 0.136332 0.420790 0.125296
H5    H     H_    0.295770 0.615227 0.585864 0.137314
H6    H     H_    0.704232 0.384774 0.414137 0.137314
H7    H     H_    0.704249 0.115223 0.414161 0.137318
H8    H     H_    0.295751 0.884777 0.585839 0.137318
H9    H     H_    0.674926 0.048570 0.157948 0.122177
H10   H     H_    0.325074 0.951430 0.842052 0.122177
H11   H     H_    0.325072 0.548569 0.842057 0.122179
H12   H     H_    0.902069 0.580631 0.546123 0.109184
H13   H     H_    0.674929 0.451431 0.157941 0.122179
H14   H     H_    0.937489 0.057230 0.067183 0.163615
H15   H     H_    0.062511 0.942770 0.932817 0.163615
H16   H     H_    0.062509 0.557230 0.932816 0.163614
H17   H     H_    0.937490 0.442770 0.067184 0.163614
H18   H     H_    0.022500 0.054902 0.806049 0.121088
H19   H     H_    0.977500 0.945098 0.193951 0.121088
H20   H     H_    0.977502 0.554902 0.193952 0.121087
H21   H     H_    0.022498 0.445098 0.806048 0.121086
H22   H     H_    0.902071 0.919360 0.546147 0.109185
H23   H     H_    0.097929 0.080640 0.453853 0.109185
H24   H     H_    0.109827 0.544469 0.542060 0.106424
H25   H     H_    0.890176 0.455532 0.457949 0.106423
H26   H     H_    0.890192 0.044461 0.457987 0.106423
H27   H     H_    0.109808 0.955538 0.542012 0.106424
H28   H     H_    0.277023 0.363673 0.420805 0.125297
I1    I     I_    0.321057 0.094357 0.912016 -0.399703
I2    I     I_    0.678943 0.905643 0.087984 -0.399703
I3    I     I_    0.678943 0.594358 0.087975 -0.399706
I4    I     I_    0.321057 0.405642 0.912027 -0.399707
O1    O     O_R   0.267710 0.668200 0.902110 -0.540880
O2    O     O_R   0.883280 0.330790 0.732340 -0.511706
O3    O     O_R   0.883280 0.169210 0.732340 -0.511708
O4    O     O_R   0.116720 0.830790 0.267660 -0.511708
O5    O     O_R   0.366710 0.675440 0.427590 -0.515511
O6    O     O_R   0.633290 0.324560 0.572410 -0.515511
O7    O     O_R   0.633290 0.175440 0.572410 -0.515515
O8    O     O_R   0.366710 0.824560 0.427590 -0.515515
O9    O     O_R   0.534870 0.669390 0.371760 -0.493273
O10   O     O_R   0.465130 0.330610 0.628240 -0.493275
O11   O     O_R   0.465130 0.169390 0.628240 -0.493272
O12   O     O_R   0.732290 0.331800 0.097890 -0.540880
O13   O     O_R   0.534870 0.830610 0.371760 -0.493272
O14   O     O_R   0.453080 0.674480 0.075160 -0.446747
O15   O     O_R   0.546920 0.325520 0.924840 -0.446747
O16   O     O_R   0.546920 0.174480 0.924840 -0.446748
O17   O     O_R   0.453080 0.825520 0.075160 -0.446748
O18   O     O_3   0.306390 0.750000 0.180470 -0.254206
O19   O     O_3   0.693610 0.250000 0.819530 -0.254206
O20   O     O_R   0.732290 0.168200 0.097890 -0.540879
O21   O     O_R   0.267710 0.831800 0.902110 -0.540879
O22   O     O_R   0.099480 0.674460 0.038850 -0.501537
O23   O     O_R   0.900520 0.325540 0.961150 -0.501537
O24   O     O_R   0.900520 0.174460 0.961150 -0.501536
O25   O     O_R   0.099480 0.825540 0.038850 -0.501537
O26   O     O_R   0.116720 0.669210 0.267660 -0.511705

loop_
_geom_bond_atom_site_label_1
_geom_bond_atom_site_label_2
_ccdc_geom_bond_type
C44   C49   A    
C37   H12   S    
Cr3   O26   S    
Cr3   O5    S    
C22   O1    A    
C5    C56   D    
C4    C8    D    
C23   O24   A    
C3    C24   S    
C33   H3    S    
C7    C8    S    
Cr1   O21   S    
Cr6   O11   S    
C20   C30   S    
C43   H27   S    
Cr5   O9    S    
C30   C51   A    
C38   C42   A    
C48   C52   A    
C3    C7    D    
C10   C15   D    
C5    C6    S    
Cr1   O18   S    
C29   C54   A    
C6    I1    S    
Cr2   O24   S    
C11   C16   D    
C14   H15   S    
C40   H24   S    
Cr5   O14   S    
C26   O21   A    
C47   H7    S    
C16   C17   S    
C56   H10   S    
Cr2   O19   S    
C41   C46   A    
C1    O22   A    
C36   H1    S    
C3    H13   S    
C43   C48   A    
C27   C50   A    
Cr1   O25   S    
C27   C45   A    
C15   H14   S    
Cr4   O19   S    
C2    C6    D    
Cr1   O22   S    
Cr6   O10   S    
C41   H25   S    
C50   C53   A    
C8    I3    S    
C35   C55   A    
C36   C40   A    
C18   C28   S    
C32   H2    S    
Cr6   O19   S    
Cr4   O3    S    
C10   H18   S    
C47   C51   A    
C20   O7    A    
C35   H4    S    
C11   H21   S    
C21   C29   S    
C13   H20   S    
Cr2   O23   S    
Cr2   O12   S    
C1    O26   A    
C35   C39   A    
C9    C14   D    
C46   H6    S    
C4    C22   S    
C19   O10   A    
Cr6   O16   S    
C45   C49   A    
C28   C53   A    
C31   H28   S    
Cr3   O18   S    
C32   C37   A    
C4    H11   S    
C21   O13   A    
C25   O16   A    
C21   O8    A    
Cr4   O2    S    
C23   O3    A    
C42   H26   S    
Cr1   O1    S    
C9    C34   S    
C1    C13   S    
C18   O5    A    
C39   H23   S    
C2    H9    S    
Cr5   O17   S    
C32   C53   A    
C19   C27   S    
C20   O11   A    
C33   C54   A    
C7    I4    S    
C38   H22   S    
C31   C36   A    
Cr3   O8    S    
C24   O15   A    
C48   H8    S    
Cr4   O6    S    
C26   C56   S    
C39   C43   A    
C19   O6    A    
C52   C55   A    
C10   C23   S    
C30   C55   A    
C46   C50   A    
C33   C38   A    
C13   C17   D    
C16   H17   S    
C51   C54   A    
C34   O25   A    
C25   O20   A    
C18   O9    A    
Cr6   O15   S    
C22   O14   A    
C17   H16   S    
C34   O4    A    
C28   C49   A    
C2    C25   S    
C42   C47   A    
C37   C41   A    
Cr5   O13   S    
C5    I2    S    
C12   O23   A    
C40   C44   A    
C24   O12   A    
C31   C45   A    
Cr2   O20   S    
Cr3   O4    S    
C14   C15   S    
C12   O2    A    
C44   H5    S    
Cr5   O18   S    
C26   O17   A    
Cr4   O7    S    
C11   C12   S    
C9    H19   S    
C29   C52   A    
