data_mof_unit_60436.cif
_audit_creation_date              2012-12-10T20:39:35-0500
_audit_creation_method            fapswitch 2.2
_symmetry_space_group_name_H-M    P1
_symmetry_Int_Tables_number       1
_space_group_crystal_system       triclinic
_cell_length_a                    21.643378
_cell_length_b                    21.659313
_cell_length_c                    24.553096
_cell_angle_alpha                 116.31558
_cell_angle_beta                  115.533448
_cell_angle_gamma                 89.4493
_cell_volume                      9072.19381533

loop_
_atom_site_label
_atom_site_type_symbol
_atom_type_description
_atom_site_fract_x
_atom_site_fract_y
_atom_site_fract_z
_atom_type_partial_charge
C1    C     C_R   0.069277 0.567119 0.634603 0.904895
C2    C     C_R   0.418442 0.217189 0.599749 0.019443
C3    C     C_R   0.439229 0.698613 0.456488 0.037465
C4    C     C_R   0.679921 0.882038 0.589969 0.376232
C5    C     C_R   0.044834 0.301621 0.273939 -0.009310
C6    C     C_R   0.737083 0.939504 0.642654 0.335762
C7    C     C_R   0.742556 0.977841 0.708241 -0.303410
C8    C     C_R   0.691719 0.959474 0.722298 0.356127
C9    C     C_R   0.633336 0.903069 0.669669 -0.015260
C10   C     C_R   0.626802 0.864642 0.602943 -0.046827
C11   C     C_R   0.478078 0.240408 0.279104 0.364744
C12   C     C_R   0.465054 0.242629 0.331148 0.324780
C13   C     C_R   0.414305 0.211490 0.653118 0.421656
C14   C     C_R   0.521911 0.258602 0.395845 -0.161628
C15   C     C_R   0.591474 0.271484 0.407527 0.287190
C16   C     C_R   0.603799 0.268620 0.354743 0.025384
C17   C     C_R   0.475363 0.228854 0.714525 -0.140149
C18   C     C_R   0.257150 0.445430 0.447338 -0.131773
C19   C     C_R   0.540624 0.252233 0.723615 -0.240026
C20   C     C_R   0.545996 0.257711 0.670846 0.067036
C21   C     C_R   0.484559 0.239504 0.608308 0.033650
C22   C     C_R   0.314679 0.499853 0.503544 -0.158078
C23   C     C_R   0.309432 0.549992 0.562011 0.070326
C24   C     C_R   0.243436 0.551043 0.558133 0.347624
C25   C     C_R   0.029351 0.253820 0.292808 0.397803
C26   C     C_R   0.185697 0.497682 0.499996 -0.141588
C27   C     C_R   0.193295 0.441541 0.446846 0.093113
C28   C     C_R   0.401296 0.572431 0.678731 0.301300
C29   C     C_R   0.460425 0.615534 0.742960 0.252030
C30   C     C_R   0.490430 0.682378 0.758630 0.270359
C31   C     C_R   0.118845 0.498408 0.497854 0.950516
C32   C     C_R   0.461460 0.706043 0.709974 0.299654
C33   C     C_R   0.402405 0.662786 0.645412 -0.025012
C34   C     C_R   0.372142 0.596062 0.629801 -0.012026
C35   C     C_R   0.111688 0.674587 0.747874 -0.213182
C36   C     C_R   0.547028 0.252710 0.290929 -0.291386
C37   C     C_R   0.151277 0.710640 0.819340 -0.169507
C38   C     C_R   0.193247 0.677098 0.854324 0.089792
C39   C     C_R   0.198497 0.607565 0.816776 0.071580
C40   C     C_R   0.158554 0.570981 0.744073 0.051525
C41   C     C_R   0.113326 0.604283 0.709917 -0.017482
C42   C     C_R   0.294328 0.785138 0.069591 0.430346
C43   C     C_R   0.932120 0.432888 0.365410 0.966920
C44   C     C_R   0.229933 0.714990 0.930062 0.311182
C45   C     C_R   0.306207 0.880597 0.180659 0.339703
C46   C     C_R   0.340173 0.916605 0.253158 -0.024143
C47   C     C_R   0.507120 0.190331 0.449311 0.091035
C48   C     C_R   0.397088 0.894384 0.289891 -0.133498
C49   C     C_R   0.420315 0.836406 0.254570 -0.017761
C50   C     C_R   0.386799 0.800790 0.182134 0.340549
C51   C     C_R   0.329682 0.822835 0.145165 -0.152314
C52   C     C_R   0.953277 0.439862 0.672328 0.347697
C53   C     C_R   0.895021 0.433907 0.612860 0.079379
C54   C     C_R   0.871491 0.495572 0.613939 -0.032942
C55   C     C_R   0.881267 0.501251 0.502259 0.890565
C56   C     C_R   0.905208 0.560951 0.674351 -0.295264
C57   C     C_R   0.961618 0.566247 0.733885 0.108819
C58   C     C_R   0.499270 0.186280 0.501287 -0.079325
C59   C     C_R   0.986278 0.505959 0.732964 0.060845
C60   C     C_R   0.742923 0.490746 0.551515 0.092490
C61   C     C_R   0.686725 0.499049 0.499259 -0.116326
C62   C     C_R   0.695709 0.507724 0.449126 -0.004213
C63   C     C_R   0.760841 0.508599 0.452137 -0.175051
C64   C     C_R   0.816246 0.501768 0.503731 -0.104977
C65   C     C_R   0.808963 0.493643 0.554425 -0.007300
C66   C     C_R   0.615826 0.469181 0.323898 0.090245
C67   C     C_R   0.069520 0.265155 0.360006 -0.262535
C68   C     C_R   0.571102 0.484901 0.272482 -0.177832
C69   C     C_R   0.489691 0.243963 0.551578 -0.001951
C70   C     C_R   0.552242 0.550223 0.289728 0.186983
C71   C     C_R   0.577592 0.600699 0.360038 0.166376
C72   C     C_R   0.620603 0.584024 0.411609 -0.209295
C73   C     C_R   0.640401 0.518948 0.394107 0.090923
C74   C     C_R   0.904760 0.421077 0.251353 0.294685
C75   C     C_R   0.864415 0.386483 0.179233 -0.011560
C76   C     C_R   0.809757 0.327174 0.145651 -0.018442
C77   C     C_R   0.794277 0.303205 0.184029 0.025263
C78   C     C_R   0.834374 0.337866 0.256231 0.318769
C79   C     C_R   0.124120 0.325045 0.409554 0.357792
C80   C     C_R   0.487915 0.307226 0.549419 0.022560
C81   C     C_R   0.890558 0.396140 0.289964 -0.260816
C82   C     C_R   0.702211 0.218837 0.930902 0.437311
C83   C     C_R   0.769923 0.289083 0.070089 0.367395
C84   C     C_R   0.702530 0.187259 0.821421 0.406120
C85   C     C_R   0.671052 0.148793 0.749472 -0.032580
C86   C     C_R   0.603050 0.103836 0.711184 -0.305790
C87   C     C_R   0.568805 0.097031 0.746926 0.311289
C88   C     C_R   0.601172 0.135867 0.819033 0.345388
C89   C     C_R   0.667661 0.180825 0.855901 -0.218028
C90   C     C_R   0.499506 0.620273 0.499920 0.916640
C91   C     C_R   0.499333 0.312773 0.499335 -0.072087
C92   C     C_R   0.137085 0.376377 0.392858 -0.120098
C93   C     C_R   0.379969 0.500399 0.500973 0.906611
C94   C     C_R   0.500538 0.379574 0.499852 0.919590
C95   C     C_R   0.620188 0.500384 0.499468 0.887869
C96   C     C_R   0.500467 0.120596 0.501803 0.912679
C97   C     C_R   0.433287 0.932476 0.365471 0.955997
C98   C     C_R   0.501515 0.880970 0.502179 0.894612
C99   C     C_R   0.566897 0.066403 0.634940 0.916582
C100  C     C_R   0.277715 0.552121 0.307534 0.051030
C101  C     C_R   0.346975 0.593466 0.347192 0.401236
C102  C     C_R   0.508615 0.254302 0.448773 0.091205
C103  C     C_R   0.369263 0.649439 0.414774 0.015394
C104  C     C_R   0.098619 0.363309 0.324140 0.293372
C105  C     C_R   0.321040 0.664942 0.440385 -0.247920
C106  C     C_R   0.252697 0.623955 0.400991 -0.144143
C107  C     C_R   0.231077 0.568055 0.334718 -0.063429
C108  C     C_R   0.441754 0.762995 0.458058 -0.201203
C109  C     C_R   0.503222 0.815459 0.503046 -0.124546
C110  C     C_R   0.564587 0.805087 0.547896 0.046310
C111  C     C_R   0.563619 0.739505 0.545300 0.328598
C112  C     C_R   0.500761 0.686580 0.499953 -0.189349
Cl1   Cl    Cl    0.960833 0.177943 0.232025 -0.465325
Cl2   Cl    Cl    0.787656 0.242069 0.868269 -0.496441
Cl3   Cl    Cl    0.486360 0.038190 0.703587 -0.465187
Cl4   Cl    Cl    0.118760 0.422676 0.300086 -0.610813
Cl5   Cl    Cl    0.557639 0.128960 0.863530 -0.424986
Cl6   Cl    Cl    0.403335 0.577336 0.310297 -0.628117
Cl7   Cl    Cl    0.642533 0.723976 0.597386 -0.565011
Cl8   Cl    Cl    0.675605 0.832020 0.508379 -0.543188
Cl9   Cl    Cl    0.803226 0.964539 0.628176 -0.445775
Cl10  Cl    Cl    0.703145 0.006991 0.806794 -0.521763
Cl11  Cl    Cl    0.408857 0.221200 0.197903 -0.454566
Cl12  Cl    Cl    0.564687 0.736539 0.839353 -0.350128
Cl13  Cl    Cl    0.377623 0.223676 0.314740 -0.501932
Cl14  Cl    Cl    0.663107 0.287072 0.486565 -0.660619
Cl15  Cl    Cl    0.333148 0.182563 0.644183 -0.501878
Cl16  Cl    Cl    0.234442 0.615560 0.629117 -0.567476
Cl17  Cl    Cl    0.363993 0.488178 0.659133 -0.493349
Cl18  Cl    Cl    0.497074 0.585619 0.803931 -0.402322
Cl19  Cl    Cl    0.499084 0.789978 0.729591 -0.481899
Cl20  Cl    Cl    0.232715 0.907139 0.135020 -0.526504
Cl21  Cl    Cl    0.418799 0.730095 0.138545 -0.553947
Cl22  Cl    Cl    0.983644 0.363666 0.671365 -0.538312
Cl23  Cl    Cl    0.176926 0.333116 0.491725 -0.505483
Cl24  Cl    Cl    0.974866 0.493963 0.291680 -0.550936
Cl25  Cl    Cl    0.809945 0.310108 0.303509 -0.583059
H1    H     H_    0.078141 0.701243 0.722356 0.181138
H2    H     H_    0.215919 0.636615 0.421229 0.194498
H3    H     H_    0.394841 0.772819 0.424760 0.175148
H4    H     H_    0.787032 0.021696 0.748776 0.240830
H5    H     H_    0.556619 0.249904 0.250168 0.215507
H6    H     H_    0.262797 0.403779 0.405240 0.200350
H7    H     H_    0.472325 0.224376 0.755554 0.210501
H8    H     H_    0.587109 0.265813 0.771885 0.172902
H9    H     H_    0.358047 0.732657 0.615844 0.257343
H10   H     H_    0.413131 0.695786 0.584508 0.210561
H11   H     H_    0.217373 0.528864 0.841380 0.201515
H12   H     H_    0.147193 0.764253 0.847543 0.183418
H13   H     H_    0.282979 0.562930 0.835189 0.230179
H14   H     H_    0.217576 0.503371 0.714442 0.243013
H15   H     H_    0.152350 0.467763 0.720117 0.206396
H16   H     H_    0.322604 0.014977 0.275823 0.248577
H17   H     H_    0.265762 0.961449 0.275820 0.251879
H18   H     H_    0.459445 0.760638 0.277639 0.227872
H19   H     H_    0.517628 0.815914 0.280855 0.252344
H20   H     H_    0.026387 0.480095 0.809149 0.245093
H21   H     H_    0.083743 0.493668 0.783590 0.205797
H22   H     H_    0.893877 0.347649 0.532347 0.238079
H23   H     H_    0.058833 0.226737 0.373570 0.226188
H24   H     H_    0.814337 0.366175 0.514943 0.209658
H25   H     H_    0.007369 0.670015 0.785621 0.192429
H26   H     H_    0.953871 0.648462 0.810901 0.220677
H27   H     H_    0.776335 0.474105 0.636568 0.219365
H28   H     H_    0.694571 0.432522 0.573662 0.228469
H29   H     H_    0.615855 0.372838 0.251781 0.201992
H30   H     H_    0.618301 0.376020 0.322076 0.211144
H31   H     H_    0.491563 0.610874 0.252781 0.244106
H32   H     H_    0.537542 0.569605 0.212421 0.195936
H33   H     H_    0.580808 0.698234 0.431967 0.232130
H34   H     H_    0.886391 0.607912 0.675712 0.190878
H35   H     H_    0.587450 0.696026 0.365785 0.216794
H36   H     H_    0.876111 0.462109 0.154864 0.252238
H37   H     H_    0.932236 0.407051 0.149334 0.246122
H38   H     H_    0.754771 0.205283 0.161128 0.271233
H39   H     H_    0.700107 0.261870 0.167372 0.232309
H40   H     H_    0.722362 0.109374 0.693146 0.246020
H41   H     H_    0.678584 0.172007 0.680344 0.222185
H42   H     H_    0.258357 0.514398 0.208888 0.240211
H43   H     H_    0.285465 0.458646 0.241338 0.243252
H44   H     H_    0.042416 0.282227 0.184524 0.255147
H45   H     H_    0.768671 0.515027 0.413959 0.174485
H46   H     H_    0.983625 0.328146 0.201829 0.226179
H47   H     H_    0.605924 0.869718 0.722676 0.298607
H48   H     H_    0.560469 0.926948 0.702069 0.270488
H49   H     H_    0.700312 0.331908 0.406311 0.215433
H50   H     H_    0.699271 0.244636 0.377437 0.260013
H51   H     H_    0.560412 0.138456 0.398074 0.238768
H52   H     H_    0.471615 0.117320 0.348376 0.211374
H53   H     H_    0.510721 0.380554 0.647211 0.217672
H54   H     H_    0.423654 0.349113 0.590107 0.243289
H55   H     H_    0.323030 0.233027 0.548620 0.254694
H56   H     H_    0.551870 0.446720 0.218484 0.170028
H57   H     H_    0.330565 0.147869 0.514311 0.240209
H58   H     H_    0.614277 0.329923 0.680980 0.212305
H59   H     H_    0.653250 0.290823 0.728303 0.218073
H60   H     H_    0.641506 0.622995 0.465585 0.182744
H61   H     H_    0.177297 0.538189 0.303599 0.233775
H62   H     H_    0.335730 0.710579 0.490073 0.182968
N1    N     N_R   0.237227 0.679802 0.965660 -0.113342
N2    N     N_3   0.245841 0.575426 0.852613 -0.411091
N3    N     N_3   0.165409 0.501273 0.704662 -0.386724
N4    N     N_3   0.318413 0.976997 0.290125 -0.406791
N5    N     N_3   0.477256 0.813260 0.292895 -0.406510
N6    N     N_3   0.043648 0.512348 0.794691 -0.397047
N7    N     N_3   0.860036 0.364897 0.553383 -0.344865
N8    N     N_3   0.992654 0.632703 0.796373 -0.398558
N9    N     N_3   0.731594 0.479950 0.600875 -0.394056
N10   N     N_3   0.638227 0.403682 0.305461 -0.426970
N11   N     N_3   0.507773 0.563717 0.234585 -0.384402
N12   N     N_R   0.268926 0.714268 0.034268 -0.097767
N13   N     N_3   0.561046 0.669051 0.378636 -0.404097
N14   N     N_3   0.880447 0.409574 0.139312 -0.390476
N15   N     N_3   0.736129 0.244739 0.149164 -0.389645
N16   N     N_3   0.709356 0.157152 0.716935 -0.350880
N17   N     N_3   0.253232 0.494657 0.238984 -0.394040
N18   N     N_3   0.006667 0.286032 0.203358 -0.353716
N19   N     N_3   0.581161 0.883185 0.683657 -0.366501
N20   N     N_3   0.673666 0.281163 0.364683 -0.385173
N21   N     N_3   0.512465 0.128397 0.396647 -0.431983
N22   N     N_3   0.472755 0.365588 0.596613 -0.392479
N23   N     N_R   0.286723 0.820537 0.034139 -0.083556
N24   N     N_3   0.356187 0.200227 0.536650 -0.409918
N25   N     N_3   0.613414 0.281255 0.680098 -0.438162
N26   N     N_R   0.254768 0.786054 0.965462 -0.133211
N27   N     N_R   0.756248 0.217502 0.035146 -0.099529
N28   N     N_R   0.722769 0.182861 0.966546 -0.051638
N29   N     N_R   0.715429 0.290303 0.965566 -0.125296
N30   N     N_R   0.748731 0.324904 0.034191 -0.126789
N31   N     N_3   0.373405 0.685547 0.594804 -0.430852
O1    O     O_R   0.050920 0.499230 0.601880 -0.599000
O2    O     O_R   0.448240 0.091390 0.499970 -0.628304
O3    O     O_R   0.500800 0.948920 0.398140 -0.591074
O4    O     O_R   0.050930 0.602630 0.601850 -0.607492
O5    O     O_R   0.397350 0.948880 0.398140 -0.609227
O6    O     O_R   0.551760 0.908280 0.500030 -0.595075
O7    O     O_R   0.448310 0.908240 0.500020 -0.607671
O8    O     O_R   0.602650 0.050790 0.601860 -0.651048
O9    O     O_R   0.499200 0.050750 0.601860 -0.559459
O10   O     O_R   0.091620 0.448300 0.500020 -0.591049
O11   O     O_R   0.091620 0.551700 0.499990 -0.572638
O12   O     O_R   0.528760 0.620350 0.557510 -0.573911
O13   O     O_R   0.949070 0.397370 0.398150 -0.582309
O14   O     O_R   0.949080 0.500770 0.398120 -0.575016
O15   O     O_R   0.908380 0.448300 0.500010 -0.624737
O16   O     O_R   0.908380 0.551700 0.499980 -0.624149
O17   O     O_R   0.471270 0.562870 0.442500 -0.592173
O18   O     O_R   0.379630 0.471280 0.442490 -0.612132
O19   O     O_R   0.437130 0.528760 0.557500 -0.630727
O20   O     O_R   0.471240 0.379700 0.442490 -0.606026
O21   O     O_R   0.528730 0.437170 0.557500 -0.602392
O22   O     O_R   0.562870 0.471280 0.442500 -0.630529
O23   O     O_R   0.620370 0.528760 0.557510 -0.572853
O24   O     O_R   0.551690 0.091430 0.499980 -0.593749
Zn1   Zn    Zn3+2 0.000000 0.430960 0.500020 1.084546
Zn2   Zn    Zn3+2 0.000000 0.569040 0.499980 1.096084
Zn3   Zn    Zn3+2 0.461610 0.461640 0.423210 1.066213
Zn4   Zn    Zn3+2 0.538390 0.538400 0.576790 1.075200
Zn5   Zn    Zn3+2 0.569070 0.999860 0.500000 1.077243
Zn6   Zn    Zn3+2 0.430930 0.999810 0.500000 1.069032

loop_
_geom_bond_atom_site_label_1
_geom_bond_atom_site_label_2
_ccdc_geom_bond_type
C9    N19   S    
C66   C68   A    
C87   C88   A    
C35   H1    S    
C40   C41   A    
H25   N8    S    
C52   Cl22  S    
H40   N16   S    
C105  C106  A    
C111  C112  A    
C25   C67   A    
C90   C112  S    
O19   Zn4   S    
C31   O10   A    
C94   O21   A    
H17   N4    S    
C3    C112  A    
C7    C8    A    
O3    Zn5   S    
C98   O7    A    
H50   N20   S    
C77   C78   A    
C56   C57   A    
C48   C97   S    
O15   Zn1   S    
C26   C27   A    
C19   H8    S    
C82   C89   S    
H41   N16   S    
C17   H7    S    
C101  Cl6   S    
C28   C29   A    
C52   C59   A    
C37   C38   A    
C24   C26   A    
C85   N16   S    
H29   N10   S    
C38   C39   A    
H10   N31   S    
C57   C59   A    
C47   C102  A    
C106  C107  A    
C45   C51   A    
C15   C16   A    
C97   O5    A    
C9    C10   A    
C100  N17   S    
O13   Zn1   S    
C108  C109  A    
C16   N20   S    
C111  Cl7   S    
C28   Cl17  S    
C55   O15   A    
C49   C50   A    
C2    C13   A    
C58   C96   S    
C110  C111  A    
C100  C101  A    
C36   H5    S    
C72   H60   S    
C104  Cl4   S    
C99   O8    A    
O23   Zn4   S    
C5    N18   S    
C62   C63   A    
C19   C20   A    
C24   Cl16  S    
C8    C9    A    
C100  C107  A    
C15   Cl14  S    
C74   Cl24  S    
H42   N17   S    
H11   N2    S    
C23   C24   A    
C62   C73   S    
C67   H23   S    
O1    Zn1   S    
C44   N26   A    
C95   O23   A    
O20   Zn3   S    
C87   Cl3   S    
H52   N21   S    
C42   C51   S    
C99   O9    A    
C88   C89   A    
C59   N6    S    
H47   N19   S    
C80   N22   S    
C5    C104  A    
C28   C34   A    
C26   C31   S    
H46   N18   S    
C63   H45   S    
C55   C64   S    
O12   Zn4   S    
H15   N3    S    
C70   N11   S    
C2    C21   A    
C94   O20   A    
C76   C83   S    
N29   N30   A    
O17   Zn3   S    
C93   O19   A    
C77   N15   S    
C50   C51   A    
C54   C56   A    
H51   N21   S    
C46   C48   A    
N1    N12   A    
C74   C81   A    
H48   N19   S    
H38   N15   S    
H31   N11   S    
O9    Zn6   S    
H43   N17   S    
C67   C79   A    
C76   C77   A    
H30   N10   S    
C4    C6    A    
C74   C75   A    
H53   N22   S    
C39   C40   A    
C54   C65   S    
C86   C87   A    
C60   N9    S    
C12   Cl13  S    
C83   N30   A    
N23   N26   A    
C43   O13   A    
C85   C86   A    
C66   C73   A    
C82   N29   A    
C75   N14   S    
O18   Zn3   S    
C43   O14   A    
C21   C69   S    
C60   C61   A    
C44   N1    A    
H36   N14   S    
C75   C76   A    
C38   C44   S    
C29   C30   A    
C93   O18   A    
C25   Cl1   S    
C1    O1    A    
C29   Cl18  S    
C1    O4    A    
C23   C34   S    
C97   O3    A    
C90   O17   A    
O7    Zn6   S    
C53   N7    S    
C20   N25   S    
H20   N6    S    
C27   C92   S    
C103  C105  A    
O11   Zn2   S    
H59   N25   S    
C84   C85   A    
C66   N10   S    
C86   C99   S    
C79   C92   A    
C68   H56   S    
C5    C25   A    
C68   C70   A    
C46   N4    S    
C40   N3    S    
C60   C65   A    
N27   N28   A    
C47   N21   S    
C90   O12   A    
C56   H34   S    
H44   N18   S    
C43   C81   S    
C22   C93   S    
H39   N15   S    
H24   N7    S    
C45   C46   A    
C30   Cl12  S    
C84   C89   A    
C91   C102  A    
C4    C10   A    
C33   N31   S    
H19   N5    S    
C78   Cl25  S    
O4    Zn2   S    
C7    H4    S    
C70   C71   A    
C52   C53   A    
H22   N7    S    
C108  H3    S    
H9    N31   S    
C3    C103  S    
O5    Zn6   S    
H54   N22   S    
C11   C36   A    
O10   Zn1   S    
C84   Cl2   S    
C35   C37   A    
C18   C22   A    
H21   N6    S    
O14   Zn2   S    
C31   O11   A    
C22   C23   A    
C11   Cl11  S    
C18   C27   A    
C1    C41   S    
H55   N24   S    
C37   H12   S    
C72   C73   A    
H35   N13   S    
C50   Cl21  S    
C95   O22   A    
C107  H61   S    
C11   C12   A    
C61   C95   S    
C58   C69   A    
C53   C54   A    
C6    C7    A    
C3    C108  A    
C79   Cl23  S    
C82   N28   A    
C57   N8    S    
C6    Cl9   S    
C13   C17   A    
H49   N20   S    
H37   N14   S    
C32   C33   A    
C80   C91   A    
C39   N2    S    
C12   C14   A    
C18   H6    S    
C96   O24   A    
C71   C72   A    
O21   Zn4   S    
C109  C110  A    
C64   C65   A    
C47   C58   A    
C30   C32   A    
O6    Zn5   S    
C78   C81   A    
C8    Cl10  S    
C106  H2    S    
H58   N25   S    
O16   Zn2   S    
O24   Zn5   S    
C48   C49   A    
H32   N11   S    
H26   N8    S    
C2    N24   S    
C17   C19   A    
C33   C34   A    
H27   N9    S    
C10   C110  S    
C96   O2    A    
C61   C62   A    
C35   C41   A    
H28   N9    S    
C49   N5    S    
C14   C102  S    
C92   C104  A    
C63   C64   A    
C13   Cl15  S    
O8    Zn5   S    
C105  H62   S    
H33   N13   S    
C20   C21   A    
C45   Cl20  S    
C101  C103  A    
C71   N13   S    
O2    Zn6   S    
C55   O16   A    
C98   C109  S    
C14   C15   A    
C4    Cl8   S    
C69   C80   A    
O22   Zn3   S    
H14   N3    S    
H13   N2    S    
H16   N4    S    
C88   Cl5   S    
C42   N23   A    
C83   N27   A    
C32   Cl19  S    
C16   C36   A    
C42   N12   A    
H18   N5    S    
H57   N24   S    
C91   C94   S    
C98   O6    A    
