data_mof_unit_42940.cif
_audit_creation_date              2012-12-11T15:41:11-0500
_audit_creation_method            fapswitch 2.2
_symmetry_space_group_name_H-M    P1
_symmetry_Int_Tables_number       1
_space_group_crystal_system       triclinic
_cell_length_a                    19.065025
_cell_length_b                    10.981216
_cell_length_c                    18.786092
_cell_angle_alpha                 89.911698
_cell_angle_beta                  89.953367
_cell_angle_gamma                 90.026331
_cell_volume                      3932.99643193

loop_
_atom_site_label
_atom_site_type_symbol
_atom_type_description
_atom_site_fract_x
_atom_site_fract_y
_atom_site_fract_z
_atom_type_partial_charge
C1    C     C_R   0.724398 0.962057 0.856169 0.550538
C2    C     C_R   0.275621 0.962226 0.143811 0.550342
C3    C     C_R   0.224400 0.462053 0.856168 0.550051
C4    C     C_R   0.775623 0.462232 0.143809 0.550026
C5    C     C_R   0.703735 0.482606 0.034577 0.029976
C6    C     C_R   0.296331 0.482404 0.965258 0.030028
C7    C     C_R   0.203785 0.982815 0.034549 0.029948
C8    C     C_R   0.796341 0.982370 0.965252 0.030030
C9    C     C_R   0.696055 0.469862 0.961623 0.019495
C10   C     C_R   0.304014 0.469930 0.038239 0.017229
C11   C     C_R   0.196113 0.970073 0.961594 0.019392
C12   C     C_R   0.804026 0.969892 0.038234 0.017329
C13   C     C_R   0.817173 0.409445 0.951853 -0.151444
C14   C     C_R   0.182816 0.409770 0.048193 -0.151659
C15   C     C_R   0.317177 0.909239 0.951879 -0.151383
C16   C     C_R   0.682815 0.909816 0.048199 -0.151741
C17   C     C_R   0.823437 0.414898 0.025393 -0.149466
C18   C     C_R   0.176571 0.414821 0.974642 -0.149202
C19   C     C_R   0.323419 0.914657 0.025420 -0.149465
C20   C     C_R   0.676562 0.914882 0.974649 -0.149216
C21   C     C_3   0.630335 0.442955 0.048944 -0.287103
C22   C     C_3   0.369675 0.442572 0.950985 -0.286132
C23   C     C_3   0.130312 0.943467 0.048895 -0.286893
C24   C     C_3   0.869670 0.942445 0.950973 -0.286125
C25   C     C_3   0.621980 0.426942 0.969226 -0.260726
C26   C     C_3   0.378030 0.426816 0.030742 -0.261365
C27   C     C_3   0.121967 0.927451 0.969174 -0.260822
C28   C     C_3   0.878027 0.926685 0.030728 -0.261287
C29   C     C_R   0.751182 0.424644 0.919903 0.017732
C30   C     C_R   0.248837 0.424950 0.080080 0.015952
C31   C     C_R   0.251209 0.924645 0.919900 0.017837
C32   C     C_R   0.748842 0.924953 0.080080 0.015866
C33   C     C_R   0.504061 0.157561 0.422220 0.043377
C34   C     C_R   0.513986 0.170888 0.569753 0.035324
C35   C     C_R   0.003147 0.657731 0.422687 0.035193
C36   C     C_R   0.012845 0.671219 0.570195 0.029174
C37   C     C_R   0.544598 0.248259 0.453080 0.007138
C38   C     C_R   0.546403 0.256349 0.525533 0.020096
C39   C     C_R   0.043281 0.748959 0.453631 0.007759
C40   C     C_R   0.044923 0.757247 0.526077 0.024078
C41   C     C_R   0.486021 0.065892 0.539038 -0.170754
C42   C     C_R   0.481134 0.059017 0.465117 -0.155273
C43   C     C_R   0.984764 0.566236 0.539483 -0.173673
C44   C     C_R   0.979872 0.559249 0.465548 -0.157314
C45   C     C_R   0.529615 0.177565 0.850646 0.543892
C46   C     C_R   0.470353 0.177696 0.149335 0.541179
C47   C     C_R   0.029620 0.677565 0.850650 0.543571
C48   C     C_R   0.970361 0.677697 0.149340 0.541682
C49   C     C_3   0.548132 0.383771 0.444359 -0.250055
C50   C     C_3   0.544114 0.391781 0.524911 -0.231574
C51   C     C_3   0.045532 0.884553 0.444904 -0.251550
C52   C     C_3   0.041025 0.892772 0.525380 -0.235621
C53   C     C_R   0.759701 0.433551 0.428145 -0.044157
C54   C     C_R   0.248583 0.396679 0.581398 -0.025891
C55   C     C_R   0.250904 0.919006 0.423307 -0.038846
C56   C     C_R   0.749216 0.896311 0.581769 -0.037891
C57   C     C_R   0.806102 0.356540 0.462789 -0.006195
C58   C     C_R   0.195941 0.340024 0.541610 0.108863
C59   C     C_R   0.276888 0.813361 0.454740 -0.009709
C60   C     C_R   0.697793 0.834412 0.542928 0.108438
C61   C     C_R   0.804163 0.343983 0.535101 -0.039690
C62   C     C_R   0.205356 0.312218 0.471435 -0.026138
C63   C     C_R   0.275635 0.800794 0.527456 -0.030308
C64   C     C_R   0.706865 0.807937 0.472433 -0.029365
C65   C     C_R   0.717906 0.503079 0.544173 0.313331
C66   C     C_R   0.325356 0.376922 0.479064 0.327590
C67   C     C_R   0.215411 0.991843 0.540711 0.309511
C68   C     C_R   0.824177 0.887088 0.477616 0.331127
C69   C     C_R   0.718413 0.512982 0.469647 -0.147336
C70   C     C_R   0.315700 0.405941 0.551414 -0.139660
C71   C     C_R   0.215667 0.004237 0.466660 -0.146589
C72   C     C_R   0.815008 0.914275 0.550155 -0.144207
C73   C     C_3   0.819451 0.224701 0.450153 -0.238489
C74   C     C_3   0.121404 0.376915 0.529624 -0.235619
C75   C     C_3   0.345968 0.749594 0.448457 -0.249975
C76   C     C_3   0.621951 0.864268 0.532173 -0.232751
C77   C     C_3   0.816759 0.209735 0.530112 -0.238673
C78   C     C_3   0.131803 0.345310 0.452076 -0.272111
C79   C     C_3   0.345550 0.739744 0.528888 -0.252474
C80   C     C_3   0.632127 0.834789 0.454363 -0.273943
C81   C     C_R   0.756212 0.409535 0.576571 0.035434
C82   C     C_R   0.268174 0.337769 0.437080 0.014495
C83   C     C_R   0.248437 0.891537 0.571790 0.036795
C84   C     C_R   0.768057 0.839983 0.436982 0.012506
C85   C     C_R   0.738264 0.364832 0.852271 0.548079
C86   C     C_R   0.261730 0.364993 0.147748 0.551280
C87   C     C_R   0.238267 0.864832 0.852271 0.548567
C88   C     C_R   0.761731 0.864993 0.147748 0.550735
C89   C     C_R   0.728125 0.953331 0.648278 0.544907
C90   C     C_R   0.272080 0.956092 0.352580 0.549804
C91   C     C_R   0.228097 0.453354 0.648229 0.550841
C92   C     C_R   0.773146 0.458584 0.353782 0.545456
C93   C     C_R   0.530936 0.176737 0.643991 0.537353
C94   C     C_R   0.470994 0.174982 0.354346 0.565035
C95   C     C_R   0.030586 0.676735 0.644227 0.538298
C96   C     C_R   0.970721 0.674990 0.354529 0.558404
C97   C     C_R   0.740315 0.362808 0.646922 0.573799
C98   C     C_R   0.273874 0.312750 0.360971 0.584020
C99   C     C_R   0.239629 0.860986 0.646047 0.585477
C100  C     C_R   0.773671 0.813747 0.361054 0.581586
C101  C     C_2   0.497880 0.169197 0.921305 -0.123246
C102  C     C_2   0.502035 0.169478 0.078652 -0.123231
C103  C     C_2   0.997906 0.669194 0.921319 -0.123242
C104  C     C_2   0.002064 0.669493 0.078666 -0.123240
C105  C     C_2   0.494421 0.068799 0.038877 -0.164437
C106  C     C_2   0.505606 0.068685 0.961329 -0.165219
C107  C     C_2   0.994496 0.568801 0.038898 -0.164539
C108  C     C_2   0.005667 0.568696 0.961348 -0.165190
C109  C     C_R   0.765124 0.443601 0.068071 0.021060
C110  C     C_R   0.234906 0.443312 0.931897 0.021807
C111  C     C_R   0.265120 0.943581 0.068073 0.021119
C112  C     C_R   0.734902 0.943326 0.931899 0.021568
Cr1   Cr    Cr6+3 0.769260 0.163750 0.750730 1.012186
Cr2   Cr    Cr6+3 0.230740 0.163750 0.249270 1.006384
Cr3   Cr    Cr6+3 0.269260 0.663750 0.750730 1.014910
Cr4   Cr    Cr6+3 0.730740 0.663750 0.249270 1.004696
Cr5   Cr    Cr6+3 0.612640 0.009910 0.748780 1.022489
Cr6   Cr    Cr6+3 0.387360 0.009910 0.251220 1.003662
Cr7   Cr    Cr6+3 0.112640 0.509910 0.748780 1.024122
Cr8   Cr    Cr6+3 0.887360 0.509910 0.251220 1.008076
Cr9   Cr    Cr6+3 0.614190 0.322400 0.747710 1.047277
Cr10  Cr    Cr6+3 0.385810 0.322400 0.252290 1.042677
Cr11  Cr    Cr6+3 0.114190 0.822400 0.747710 1.046205
Cr12  Cr    Cr6+3 0.885810 0.822400 0.252290 1.045658
H1    H     H_    0.478953 0.983601 0.063473 0.139877
H2    H     H_    0.521122 0.983502 0.936941 0.139534
H3    H     H_    0.979074 0.483586 0.063502 0.139810
H4    H     H_    0.021198 0.483523 0.936958 0.139557
H5    H     H_    0.001001 0.927182 0.417199 0.243818
H6    H     H_    0.086623 0.935415 0.551002 0.199826
H7    H     H_    0.503675 0.427762 0.416994 0.239464
H8    H     H_    0.590576 0.431283 0.550298 0.206693
H9    H     H_    0.599610 0.411783 0.422394 0.113357
H10   H     H_    0.493250 0.427954 0.544672 0.181455
H11   H     H_    0.096628 0.914040 0.422934 0.119662
H12   H     H_    0.989505 0.926838 0.544663 0.177892
H13   H     H_    0.685415 0.579822 0.444240 0.148724
H14   H     H_    0.358908 0.442511 0.582031 0.128361
H15   H     H_    0.191620 0.083666 0.443414 0.153667
H16   H     H_    0.856821 0.958412 0.579321 0.133984
H17   H     H_    0.872442 0.207991 0.427460 0.171960
H18   H     H_    0.113963 0.475897 0.538646 0.144091
H19   H     H_    0.389222 0.807568 0.428306 0.150906
H20   H     H_    0.611321 0.962167 0.541745 0.141050
H21   H     H_    0.775516 0.178595 0.422054 0.143603
H22   H     H_    0.083589 0.315983 0.557316 0.171963
H23   H     H_    0.340892 0.659862 0.421598 0.177114
H24   H     H_    0.586530 0.799444 0.560107 0.180197
H25   H     H_    0.770600 0.156126 0.548097 0.146396
H26   H     H_    0.100635 0.264926 0.434999 0.149741
H27   H     H_    0.342080 0.645095 0.548501 0.160890
H28   H     H_    0.602859 0.752314 0.437284 0.148301
H29   H     H_    0.867945 0.182893 0.553669 0.152642
H30   H     H_    0.128683 0.425888 0.416252 0.151857
H31   H     H_    0.386569 0.796328 0.554885 0.133924
H32   H     H_    0.626166 0.915567 0.419069 0.148090
H33   H     H_    0.521222 0.253192 0.055049 0.101283
H34   H     H_    0.478609 0.252853 0.944718 0.101445
H35   H     H_    0.021226 0.753222 0.055059 0.101210
H36   H     H_    0.978622 0.752841 0.944731 0.101460
H37   H     H_    0.862180 0.379483 0.921287 0.139028
H38   H     H_    0.137779 0.379988 0.078854 0.138529
H39   H     H_    0.362170 0.879122 0.921338 0.139012
H40   H     H_    0.637775 0.880059 0.078864 0.138409
H41   H     H_    0.873501 0.392335 0.048755 0.133782
H42   H     H_    0.126508 0.392149 0.951334 0.133663
H43   H     H_    0.373454 0.891903 0.048799 0.133750
H44   H     H_    0.626491 0.892255 0.951345 0.133695
H45   H     H_    0.097811 0.018614 0.070837 0.141788
H46   H     H_    0.902373 0.017246 0.928764 0.142357
H47   H     H_    0.597742 0.517940 0.070914 0.141653
H48   H     H_    0.402346 0.517415 0.928783 0.142316
H49   H     H_    0.628144 0.356162 0.079394 0.132857
H50   H     H_    0.371745 0.355681 0.920791 0.134366
H51   H     H_    0.127990 0.856690 0.079363 0.133071
H52   H     H_    0.871700 0.855543 0.920782 0.134294
H53   H     H_    0.615349 0.330130 0.953522 0.155726
H54   H     H_    0.384534 0.330043 0.046717 0.157137
H55   H     H_    0.115210 0.830645 0.953485 0.155805
H56   H     H_    0.884491 0.829902 0.046705 0.156947
H57   H     H_    0.583749 0.491443 0.945273 0.141963
H58   H     H_    0.416353 0.491295 0.054492 0.140467
H59   H     H_    0.083829 0.992108 0.945195 0.141860
H60   H     H_    0.916382 0.991118 0.054472 0.140619
H61   H     H_    0.466421 0.991993 0.571742 0.119158
H62   H     H_    0.452990 0.982959 0.442580 0.135742
H63   H     H_    0.965240 0.492272 0.572201 0.129238
H64   H     H_    0.951671 0.482847 0.443005 0.151656
O1    O     O_R   0.784290 0.290360 0.830540 -0.523228
O2    O     O_R   0.215710 0.290360 0.169460 -0.520009
O3    O     O_R   0.284290 0.790360 0.830540 -0.523582
O4    O     O_R   0.715710 0.790360 0.169460 -0.520292
O5    O     O_R   0.554690 0.080440 0.673480 -0.512458
O6    O     O_R   0.445310 0.080440 0.326520 -0.523701
O7    O     O_R   0.054690 0.580440 0.673480 -0.511065
O8    O     O_R   0.945310 0.580440 0.326520 -0.521083
O9    O     O_R   0.543980 0.282110 0.666770 -0.516118
O10   O     O_R   0.456020 0.282110 0.333230 -0.480252
O11   O     O_R   0.043980 0.782110 0.666770 -0.517356
O12   O     O_R   0.956020 0.782110 0.333230 -0.485784
O13   O     O_R   0.679070 0.374030 0.674430 -0.456225
O14   O     O_R   0.320930 0.374030 0.325570 -0.445716
O15   O     O_R   0.179070 0.874030 0.674430 -0.458597
O16   O     O_R   0.820930 0.874030 0.325570 -0.438844
O17   O     O_3   0.665360 0.165350 0.749070 -0.261625
O18   O     O_3   0.334640 0.165350 0.250930 -0.273084
O19   O     O_3   0.165360 0.665350 0.749070 -0.261754
O20   O     O_3   0.834640 0.665350 0.250930 -0.274666
O21   O     O_R   0.762610 0.041070 0.825230 -0.494941
O22   O     O_R   0.237390 0.041070 0.174770 -0.494404
O23   O     O_R   0.262610 0.541070 0.825230 -0.495885
O24   O     O_R   0.737390 0.541070 0.174770 -0.494318
O25   O     O_R   0.667390 0.924160 0.829970 -0.521744
O26   O     O_R   0.332610 0.924160 0.170030 -0.524723
O27   O     O_R   0.167390 0.424160 0.829970 -0.522211
O28   O     O_R   0.832610 0.424160 0.170030 -0.524790
O29   O     O_R   0.553980 0.081420 0.821780 -0.498313
O30   O     O_R   0.446020 0.081420 0.178220 -0.498409
O31   O     O_R   0.053980 0.581420 0.821780 -0.498593
O32   O     O_R   0.946020 0.581420 0.178220 -0.498220
O33   O     O_R   0.543210 0.283170 0.826740 -0.523425
O34   O     O_R   0.456790 0.283170 0.173260 -0.528933
O35   O     O_R   0.043210 0.783170 0.826740 -0.523848
O36   O     O_R   0.956790 0.783170 0.173260 -0.528019
O37   O     O_R   0.678350 0.375000 0.822720 -0.497240
O38   O     O_R   0.321650 0.375000 0.177280 -0.500607
O39   O     O_R   0.178350 0.875000 0.822720 -0.497431
O40   O     O_R   0.821650 0.875000 0.177280 -0.500413
O41   O     O_R   0.785060 0.289300 0.670580 -0.534360
O42   O     O_R   0.214940 0.289300 0.329420 -0.538431
O43   O     O_R   0.285060 0.789300 0.670580 -0.534506
O44   O     O_R   0.714940 0.789300 0.329420 -0.538423
O45   O     O_R   0.763330 0.040090 0.676940 -0.515638
O46   O     O_R   0.236670 0.040090 0.323060 -0.525825
O47   O     O_R   0.263330 0.540090 0.676940 -0.511538
O48   O     O_R   0.736670 0.540090 0.323060 -0.525205
O49   O     O_R   0.668160 0.923110 0.670000 -0.495690
O50   O     O_R   0.331840 0.923110 0.330000 -0.516208
O51   O     O_R   0.168160 0.423110 0.670000 -0.495987
O52   O     O_R   0.831840 0.423110 0.330000 -0.507778
F1    F     F_    0.676600 0.577640 0.583614 -0.657331
F2    F     F_    0.388699 0.395366 0.449351 -0.669743
F3    F     F_    0.184244 0.077892 0.581721 -0.652654
F4    F     F_    0.885145 0.917531 0.446149 -0.669138

loop_
_geom_bond_atom_site_label_1
_geom_bond_atom_site_label_2
_ccdc_geom_bond_type
C58   C62   A    
C39   C51   S    
C4    C109  S    
C67   C83   A    
Cr2   O2    S    
Cr3   O19   S    
Cr9   O33   S    
C6    C110  A    
C41   C42   A    
C14   C18   A    
C93   O9    A    
C36   C95   S    
C34   C93   S    
Cr9   O17   S    
C53   C69   A    
C33   C94   S    
C49   C50   S    
C75   H19   S    
Cr3   O47   S    
C51   H5    S    
C9    C25   S    
Cr2   O46   S    
C73   H17   S    
C35   C96   S    
C16   H40   S    
C21   H49   S    
Cr7   O27   S    
C49   H7    S    
C78   H26   S    
Cr12  O12   S    
Cr8   O8    S    
C89   O45   A    
C12   C28   S    
C46   O30   A    
C33   C42   A    
C13   C29   A    
Cr6   O18   S    
C74   H22   S    
C27   H55   S    
C55   C90   S    
Cr5   O17   S    
C8    C112  A    
C1    C112  S    
C54   C58   A    
C25   H53   S    
C103  H36   S    
C67   F3    S    
C67   C71   A    
C23   H51   S    
C3    C110  S    
C85   O1    A    
C48   C104  S    
C91   O47   A    
C65   C69   A    
Cr9   O37   S    
Cr8   O32   S    
C90   O46   A    
C102  C105  D    
C96   O12   A    
C96   O8    A    
C57   C73   S    
C57   C61   A    
C18   H42   S    
Cr10  O18   S    
C64   C84   A    
C7    C11   A    
C49   H9    S    
C81   C97   S    
C77   H29   S    
C15   C19   A    
C51   H11   S    
C97   O41   A    
Cr8   O28   S    
Cr12  O36   S    
C61   C77   S    
C56   C72   A    
C23   H45   S    
Cr6   O30   S    
C107  C108  S    
Cr5   O29   S    
C103  C108  D    
C23   C27   S    
C30   C86   S    
C24   H46   S    
Cr3   O43   S    
Cr2   O22   S    
C8    C12   A    
C8    C24   S    
Cr1   O45   S    
C19   C111  A    
Cr6   O50   S    
C74   H18   S    
Cr10  O34   S    
C11   C31   A    
Cr4   O44   S    
C98   O42   A    
Cr12  O20   S    
Cr7   O31   S    
C64   C80   S    
C47   C103  S    
C34   C41   A    
C19   H43   S    
C14   C30   A    
Cr6   O6    S    
C100  O16   A    
C102  H33   S    
C7    C111  A    
C34   C38   A    
Cr12  O40   S    
C25   H57   S    
C80   H32   S    
C3    O27   A    
C26   H54   S    
C69   H13   S    
C20   H44   S    
C2    C111  S    
C2    O22   A    
C86   O2    A    
C90   O50   A    
C1    O21   A    
C51   C52   S    
C68   C84   A    
C89   O49   A    
C36   C40   A    
C31   C87   S    
Cr10  O38   S    
C22   H50   S    
C77   H25   S    
C39   C40   A    
C53   C57   A    
Cr1   O21   S    
C78   H30   S    
C63   C79   S    
C48   O36   A    
C3    O23   A    
C75   H23   S    
C40   C52   S    
C47   O31   A    
C92   O48   A    
Cr7   O51   S    
C108  H4    S    
Cr2   O18   S    
C76   H24   S    
C73   H21   S    
C68   C72   A    
C94   O10   A    
Cr8   O20   S    
C55   C71   A    
C14   H38   S    
C35   C39   A    
C43   C44   A    
C5    C9    A    
C37   C38   A    
C86   O38   A    
C66   C82   A    
C37   C49   S    
C10   C30   A    
C83   C99   S    
C65   C81   A    
C54   C70   A    
C11   C27   S    
C16   C20   A    
Cr4   O48   S    
C53   C92   S    
C10   C26   S    
C85   O37   A    
C5    C21   S    
Cr6   O26   S    
Cr10  O10   S    
C15   C31   A    
C35   C44   A    
C28   H56   S    
Cr9   O9    S    
Cr4   O20   S    
C22   C26   S    
C50   H8    S    
C44   H64   S    
C76   H20   S    
C95   O11   A    
C56   C89   S    
Cr8   O52   S    
C101  H34   S    
C2    O26   A    
C87   O39   A    
C45   C101  S    
C50   H10   S    
C52   H12   S    
C82   C98   S    
C59   C63   A    
C32   C88   S    
C12   C32   A    
C72   H16   S    
C91   O51   A    
C13   H37   S    
C24   H52   S    
Cr5   O5    S    
C59   C75   S    
C41   H61   S    
Cr11  O11   S    
Cr1   O1    S    
C55   C59   A    
C58   C74   S    
C24   C28   S    
C87   O3    A    
C48   O32   A    
C79   H27   S    
C15   H39   S    
C101  C106  D    
C80   H28   S    
C21   C25   S    
C52   H6    S    
C92   O52   A    
C95   O7    A    
C99   O43   A    
C99   O15   A    
C94   O6    A    
C29   C85   S    
C62   C78   S    
C93   O5    A    
C76   C80   S    
C97   O13   A    
C36   C43   A    
C17   C109  A    
C43   H63   S    
Cr2   O42   S    
Cr7   O19   S    
C71   H15   S    
Cr1   O41   S    
C38   C50   S    
Cr11  O15   S    
C88   O4    A    
C16   C32   A    
C79   H31   S    
C66   F2    S    
C105  C106  S    
C106  H2    S    
C98   O14   A    
Cr11  O35   S    
C4    O24   A    
Cr3   O23   S    
C107  H3    S    
C60   C64   A    
C45   O33   A    
C105  H1    S    
C28   H60   S    
Cr3   O3    S    
C54   C91   S    
Cr4   O24   S    
C61   C81   A    
C1    O25   A    
C9    C29   A    
Cr9   O13   S    
C70   H14   S    
C42   H62   S    
C88   O40   A    
C65   F1    S    
C68   F4    S    
C7    C23   S    
C5    C109  A    
C74   C78   S    
C26   H58   S    
C60   C76   S    
C33   C37   A    
Cr7   O7    S    
C62   C82   A    
C46   O34   A    
Cr5   O25   S    
C27   H59   S    
C84   C100  S    
C6    C10   A    
Cr5   O49   S    
C13   C17   A    
C56   C60   A    
Cr10  O14   S    
Cr11  O19   S    
Cr11  O39   S    
C66   C70   A    
C47   O35   A    
C18   C110  A    
Cr12  O16   S    
C21   H47   S    
C20   C112  A    
C63   C83   A    
C4    O28   A    
C73   C77   S    
Cr4   O4    S    
C100  O44   A    
C17   H41   S    
C104  H35   S    
C75   C79   S    
C104  C107  D    
C22   H48   S    
C45   O29   A    
Cr1   O17   S    
C46   C102  S    
C6    C22   S    
