data_mof_unit_68077.cif
_audit_creation_date              2013-03-05T15:51:45-0500
_audit_creation_method            fapswitch 2.2
_symmetry_space_group_name_H-M    P1
_symmetry_Int_Tables_number       1
_space_group_crystal_system       triclinic
_cell_length_a                    7.622733
_cell_length_b                    13.217916
_cell_length_c                    28.470156
_cell_angle_alpha                 90.380377
_cell_angle_beta                  90.81211
_cell_angle_gamma                 89.811404
_cell_volume                      2868.19136772

loop_
_atom_site_label
_atom_site_type_symbol
_atom_site_description
_atom_site_fract_x
_atom_site_fract_y
_atom_site_fract_z
_atom_type_partial_charge
O1    O     O_R   0.647170 0.849180 0.201220 -0.563103
O2    O     O_R   0.352830 0.150820 0.798780 -0.571234
O3    O     O_R   0.352830 0.150820 0.701220 -0.563422
O4    O     O_R   0.647170 0.849180 0.298780 -0.599515
O5    O     O_R   0.147170 0.650820 0.298780 -0.559215
O6    O     O_R   0.852830 0.349180 0.701220 -0.599437
O7    O     O_R   0.852830 0.349180 0.798780 -0.561389
O8    O     O_R   0.147170 0.650820 0.201220 -0.567078
O9    O     O_R   0.317430 0.862210 0.298450 -0.566145
O10   O     O_R   0.682570 0.137790 0.701550 -0.594238
O11   O     O_R   0.682570 0.137790 0.798450 -0.591231
O12   O     O_R   0.317430 0.862210 0.201550 -0.592733
O13   O     O_R   0.817430 0.637790 0.201550 -0.588953
O14   O     O_R   0.182570 0.362210 0.798450 -0.596265
O15   O     O_R   0.182570 0.362210 0.701550 -0.565814
O16   O     O_R   0.817430 0.637790 0.298450 -0.591079
C1    C     C_R   0.487637 0.885237 0.312905 0.938355
C2    C     C_R   0.515977 0.115365 0.686939 0.911554
C3    C     C_R   0.515065 0.116917 0.813697 0.923132
C4    C     C_R   0.484637 0.884181 0.187073 0.915706
C5    C     C_R   0.984999 0.617574 0.185559 0.923741
C6    C     C_R   0.015119 0.387871 0.812075 0.932941
C7    C     C_R   0.012316 0.384892 0.687017 0.937281
C8    C     C_R   0.984026 0.614284 0.312894 0.907435
H1    H     H_    0.145654 0.568198 0.692455 0.124540
H2    H     H_    0.982564 0.414017 0.304033 0.111295
H3    H     H_    0.135468 0.442365 0.191465 0.114352
H4    H     H_    0.861933 0.571880 0.807323 0.113180
H5    H     H_    0.351398 0.944041 0.810647 0.114759
H6    H     H_    0.606696 0.067420 0.198362 0.108060
H7    H     H_    0.376706 0.073825 0.306697 0.116551
H8    H     H_    0.489813 0.918289 0.694968 0.104821
H9    H     H_    0.825234 0.386573 0.603734 0.199655
H10   H     H_    0.866088 0.639707 0.399464 0.195828
H11   H     H_    0.867319 0.626200 0.094028 0.206876
H12   H     H_    0.196473 0.398510 0.894073 0.193744
H13   H     H_    0.673473 0.119272 0.898792 0.196295
H14   H     H_    0.384318 0.869709 0.096548 0.179602
H15   H     H_    0.669579 0.882205 0.395986 0.200021
H16   H     H_    0.645390 0.140068 0.601818 0.193369
O17   O     O_3   0.480630 0.680630 0.250000 -0.310609
O18   O     O_3   0.519370 0.319370 0.750000 -0.309906
O19   O     O_3   0.980630 0.819370 0.250000 -0.307699
O20   O     O_3   0.019370 0.180630 0.750000 -0.307897
V1    V     V_3+5 0.205800 0.762860 0.250000 1.254831
V2    V     V_3+5 0.794200 0.237140 0.750000 1.232718
V3    V     V_3+5 0.705800 0.737140 0.250000 1.233151
V4    V     V_3+5 0.294200 0.262860 0.750000 1.251557
C9    C     C_R   0.976935 0.537142 0.351164 -0.128569
C10   C     C_R   0.998497 0.465036 0.650804 -0.100104
C11   C     C_R   0.010624 0.469447 0.848696 -0.122953
C12   C     C_R   0.997579 0.540529 0.147063 -0.136026
C13   C     C_R   0.492586 0.962824 0.150876 -0.120185
C14   C     C_R   0.504009 0.042213 0.852184 -0.146053
C15   C     C_R   0.522269 0.039363 0.648578 -0.114342
C16   C     C_R   0.503093 0.965107 0.349509 -0.107908
C17   C     C_R   0.943130 0.360713 0.375614 0.201545
C18   C     C_R   0.073868 0.634395 0.625483 0.195999
C19   C     C_R   0.936786 0.640328 0.874840 0.184784
C20   C     C_R   0.087143 0.371044 0.122966 0.148579
C21   C     C_R   0.566361 0.135216 0.129637 0.183083
C22   C     C_R   0.422396 0.874273 0.877722 0.146787
C23   C     C_R   0.563779 0.863556 0.625311 0.197132
C24   C     C_R   0.439919 0.136776 0.375383 0.182084
C25   C     C_R   0.972775 0.434478 0.340651 -0.236571
C26   C     C_R   0.081388 0.556173 0.658697 -0.268039
C27   C     C_R   0.922622 0.560553 0.841342 -0.218868
C28   C     C_R   0.084372 0.451013 0.156152 -0.199697
C29   C     C_R   0.564436 0.056008 0.162342 -0.209644
C30   C     C_R   0.412440 0.953589 0.844835 -0.191510
C31   C     C_R   0.514444 0.937348 0.658857 -0.244632
C32   C     C_R   0.432574 0.059494 0.341215 -0.264491
C33   C     C_R   0.919497 0.564857 0.395705 -0.049560
C34   C     C_R   0.910063 0.451045 0.607888 -0.106454
C35   C     C_R   0.099941 0.457965 0.891314 -0.123370
C36   C     C_R   0.941220 0.558137 0.100949 -0.097489
C37   C     C_R   0.442289 0.942606 0.104581 -0.104649
C38   C     C_R   0.577724 0.060064 0.896381 -0.115977
C39   C     C_R   0.589908 0.065814 0.605113 -0.065383
C40   C     C_R   0.588277 0.948462 0.392526 -0.107926
C41   C     C_R   0.939153 0.499746 0.434873 0.058165
C42   C     C_R   0.953010 0.511706 0.568594 0.095052
C43   C     C_R   0.043459 0.512409 0.931250 0.092297
C44   C     C_R   0.999128 0.495072 0.063236 0.089201
C45   C     C_R   0.492016 0.008531 0.068139 0.103771
C46   C     C_R   0.529727 0.000919 0.935607 0.076918
C47   C     C_R   0.572311 0.000422 0.565904 0.060446
C48   C     C_R   0.548950 0.009743 0.432202 0.093004
C49   C     C_R   0.941974 0.393343 0.425381 -0.011870
C50   C     C_R   0.012299 0.611640 0.578046 -0.008946
C51   C     C_R   0.989891 0.614337 0.923375 -0.030026
C52   C     C_R   0.048985 0.393165 0.073432 -0.028365
C53   C     C_R   0.528491 0.111328 0.080211 -0.052061
C54   C     C_R   0.477334 0.898197 0.925972 0.005338
C55   C     C_R   0.571653 0.894631 0.575599 -0.016906
C56   C     C_R   0.494340 0.111082 0.423160 -0.006587
C57   C     C_R   0.957365 0.539107 0.482446 -0.164001
C58   C     C_R   0.946867 0.472372 0.521034 -0.131602
C59   C     C_R   0.039127 0.468844 0.977628 -0.167253
C60   C     C_R   0.014636 0.534805 0.016641 -0.132363
C61   C     C_R   0.508597 0.972014 0.020652 -0.138061
C62   C     C_R   0.525880 0.040853 0.983240 -0.172813
C63   C     C_R   0.551584 0.038666 0.518472 -0.162288
C64   C     C_R   0.559722 0.970901 0.479781 -0.126909
C65   C     C_R   0.962980 0.366734 0.512172 0.348207
C66   C     C_R   0.998475 0.642722 0.492662 0.305058
C67   C     C_R   0.030493 0.641181 0.009523 0.345332
C68   C     C_R   0.053595 0.361920 0.986043 0.368360
C69   C     C_R   0.533684 0.146485 0.994995 0.394693
C70   C     C_R   0.530913 0.866962 0.010691 0.284069
C71   C     C_R   0.550176 0.864911 0.489052 0.351287
C72   C     C_R   0.508289 0.142064 0.508719 0.290620
C73   C     C_R   0.952516 0.326444 0.465496 -0.102497
C74   C     C_R   0.011769 0.679996 0.539599 -0.047302
C75   C     C_R   0.000367 0.682657 0.963607 -0.094537
C76   C     C_R   0.064274 0.323819 0.033713 -0.000472
C77   C     C_R   0.530530 0.182535 0.042290 -0.079930
C78   C     C_R   0.488424 0.828209 0.964852 -0.059925
C79   C     C_R   0.563773 0.826542 0.535918 -0.093264
C80   C     C_R   0.496273 0.179207 0.462017 -0.045702
C81   C     C_3   0.969779 0.213867 0.455902 -0.478449
C82   C     C_3   0.976836 0.129213 0.490727 -0.235727
C83   C     C_3   0.985604 0.029112 0.463145 -0.877131
H17   H     H_    0.913936 0.031901 0.428957 0.264972
H18   H     H_    0.124312 0.010297 0.455386 0.284806
H19   H     H_    0.922288 0.969028 0.483400 0.279722
H20   H     H_    0.096538 0.137165 0.512366 0.269689
H21   H     H_    0.858003 0.129291 0.512329 0.242894
H22   H     H_    0.848084 0.194553 0.437296 0.216235
H23   H     H_    0.093303 0.203120 0.436763 0.206101
C84   C     C_3   0.981829 0.792456 0.547099 -0.413670
C85   C     C_3   0.139409 0.857801 0.537258 -0.299640
C86   C     C_3   0.135391 0.957950 0.563844 -0.842001
H24   H     H_    0.221999 0.010269 0.545656 0.281223
H25   H     H_    0.000776 0.989953 0.565595 0.274946
H26   H     H_    0.190009 0.950076 0.599624 0.270350
H27   H     H_    0.254436 0.816843 0.547339 0.210605
H28   H     H_    0.153889 0.870800 0.499567 0.276181
H29   H     H_    0.878139 0.817889 0.522961 0.222366
H30   H     H_    0.931294 0.807696 0.582307 0.200942
C87   C     C_3   0.993647 0.796198 0.954305 -0.424175
C88   C     C_3   0.048378 0.880443 0.987655 -0.238055
C89   C     C_3   0.065643 0.979417 0.960150 -0.888980
H31   H     H_    0.127923 0.968770 0.925491 0.274835
H32   H     H_    0.934755 0.014392 0.954058 0.267008
H33   H     H_    0.151432 0.031022 0.980047 0.267285
H34   H     H_    0.944608 0.893034 0.013703 0.279442
H35   H     H_    0.175667 0.863164 0.004782 0.224311
H36   H     H_    0.090757 0.805448 0.927049 0.196321
H37   H     H_    0.858184 0.816570 0.944347 0.201895
C90   C     C_3   0.105089 0.210701 0.039808 -0.363627
C91   C     C_3   0.953105 0.141768 0.052796 -0.252008
C92   C     C_3   0.014640 0.049034 0.080717 -0.885361
H38   H     H_    0.109496 0.004063 0.060385 0.267746
H39   H     H_    0.082255 0.068902 0.114005 0.260671
H40   H     H_    0.899970 0.002123 0.089340 0.310893
H41   H     H_    0.857133 0.184384 0.073071 0.202177
H42   H     H_    0.886223 0.114032 0.020590 0.243211
H43   H     H_    0.164068 0.177576 0.009084 0.217529
H44   H     H_    0.214279 0.199016 0.063049 0.173348
C93   C     C_3   0.533529 0.297476 0.052900 -0.370814
C94   C     C_3   0.494495 0.381466 0.017437 -0.268295
C95   C     C_3   0.464895 0.481053 0.043773 -0.829220
H45   H     H_    0.377868 0.472566 0.074301 0.280631
H46   H     H_    0.592300 0.511478 0.056727 0.279313
H47   H     H_    0.402354 0.535598 0.019934 0.282385
H48   H     H_    0.606125 0.396883 0.994270 0.276093
H49   H     H_    0.379752 0.362247 0.995595 0.229290
H50   H     H_    0.424825 0.308266 0.076972 0.178707
H51   H     H_    0.663254 0.318764 0.067063 0.203294
C96   C     C_3   0.435213 0.716817 0.961642 -0.361065
C97   C     C_3   0.580946 0.642190 0.948898 -0.262957
C98   C     C_3   0.514831 0.547383 0.923060 -0.894230
H52   H     H_    0.411277 0.509605 0.943031 0.259762
H53   H     H_    0.459160 0.565366 0.888031 0.262788
H54   H     H_    0.625425 0.493630 0.918166 0.291987
H55   H     H_    0.671232 0.680822 0.926266 0.201541
H56   H     H_    0.655436 0.618310 0.980571 0.247334
H57   H     H_    0.378737 0.693738 0.994661 0.239924
H58   H     H_    0.320286 0.704696 0.940281 0.175430
C99   C     C_3   0.550135 0.715048 0.547114 -0.476210
C100  C     C_3   0.528525 0.627583 0.513790 -0.230947
C101  C     C_3   0.515870 0.530634 0.543115 -0.875879
H59   H     H_    0.578946 0.537703 0.578396 0.260884
H60   H     H_    0.376017 0.511818 0.548803 0.287305
H61   H     H_    0.585977 0.468398 0.525383 0.279322
H62   H     H_    0.406100 0.637323 0.493156 0.262929
H63   H     H_    0.644279 0.621598 0.491201 0.242721
H64   H     H_    0.675394 0.696702 0.564731 0.213313
H65   H     H_    0.432431 0.707446 0.568930 0.203950
C102  C     C_3   0.535272 0.290224 0.455128 -0.392823
C103  C     C_3   0.382925 0.361330 0.463589 -0.293276
C104  C     C_3   0.404990 0.459536 0.437060 -0.836062
H66   H     H_    0.302685 0.512611 0.448440 0.288612
H67   H     H_    0.537607 0.491566 0.442860 0.269942
H68   H     H_    0.388094 0.446977 0.399227 0.270155
H69   H     H_    0.262732 0.326347 0.452744 0.206126
H70   H     H_    0.364993 0.375824 0.501068 0.273302
H71   H     H_    0.638309 0.312980 0.480204 0.219911
H72   H     H_    0.592119 0.302763 0.420502 0.193903
C105  C     C_3   0.904801 0.251713 0.358042 -0.504638
C106  C     C_3   0.902534 0.226493 0.305772 -0.351183
C107  C     C_3   0.876193 0.112316 0.298334 -0.863616
H73   H     H_    0.999115 0.070718 0.307061 0.269480
H74   H     H_    0.771941 0.083888 0.321221 0.268146
H75   H     H_    0.836905 0.094604 0.261733 0.238214
H76   H     H_    0.796198 0.267885 0.288776 0.218985
H77   H     H_    0.025950 0.249102 0.289589 0.217512
H78   H     H_    0.001832 0.198002 0.371029 0.219386
H79   H     H_    0.774469 0.229153 0.370147 0.196056
C108  C     C_3   0.164740 0.729638 0.643068 -0.451120
C109  C     C_3   0.081031 0.779169 0.686626 -0.317627
C110  C     C_3   0.027245 0.889570 0.679574 -0.836092
H80   H     H_    0.145366 0.937734 0.677016 0.260753
H81   H     H_    0.942070 0.899163 0.648185 0.265380
H82   H     H_    0.952574 0.916961 0.710059 0.251029
H83   H     H_    0.968835 0.734494 0.698348 0.222578
H84   H     H_    0.176445 0.777944 0.716213 0.189517
H85   H     H_    0.294288 0.703623 0.654493 0.179832
H86   H     H_    0.194416 0.784980 0.616931 0.229176
C111  C     C_3   0.894585 0.748051 0.857568 -0.483382
C112  C     C_3   0.840666 0.766401 0.806655 -0.324439
C113  C     C_3   0.827971 0.881432 0.798589 -0.873522
H87   H     H_    0.737895 0.900906 0.769254 0.224240
H88   H     H_    0.777460 0.921010 0.830042 0.273949
H89   H     H_    0.960302 0.912471 0.791813 0.256493
H90   H     H_    0.937212 0.732967 0.782211 0.207753
H91   H     H_    0.712368 0.730907 0.800357 0.226521
H92   H     H_    0.785773 0.780468 0.877475 0.194187
H93   H     H_    0.011877 0.795191 0.860709 0.215978
C114  C     C_3   0.123946 0.266387 0.143017 -0.445513
C115  C     C_3   0.149290 0.255474 0.196077 -0.344237
C116  C     C_3   0.159116 0.144052 0.209617 -0.902477
H94   H     H_    0.031568 0.106471 0.202678 0.270437
H95   H     H_    0.258123 0.104246 0.188696 0.270381
H96   H     H_    0.196762 0.136787 0.247074 0.249818
H97   H     H_    0.273626 0.292564 0.206639 0.219760
H98   H     H_    0.039467 0.291909 0.214695 0.212042
H99   H     H_    0.010385 0.219798 0.134463 0.230611
H100  H     H_    0.245869 0.235839 0.129484 0.196583
C117  C     C_3   0.615973 0.240692 0.148498 -0.465956
C118  C     C_3   0.653639 0.257772 0.200565 -0.326510
C119  C     C_3   0.672771 0.372188 0.209618 -0.900176
H101  H     H_    0.717902 0.390149 0.245678 0.236357
H102  H     H_    0.768794 0.404617 0.185384 0.271726
H103  H     H_    0.545392 0.411133 0.203264 0.267526
H104  H     H_    0.545278 0.227989 0.221800 0.213956
H105  H     H_    0.776405 0.218283 0.209992 0.223107
H106  H     H_    0.735501 0.266230 0.131372 0.192601
H107  H     H_    0.506827 0.292931 0.142661 0.212899
C120  C     C_3   0.387324 0.768006 0.858485 -0.426894
C121  C     C_3   0.349902 0.755866 0.805701 -0.335251
C122  C     C_3   0.339782 0.644057 0.792174 -0.918940
H108  H     H_    0.462892 0.604090 0.801973 0.268826
H109  H     H_    0.231426 0.607631 0.810677 0.272318
H110  H     H_    0.315235 0.635614 0.754004 0.249212
H111  H     H_    0.222960 0.792310 0.796672 0.207880
H112  H     H_    0.453201 0.792962 0.785304 0.206987
H113  H     H_    0.504766 0.722587 0.865977 0.224053
H114  H     H_    0.270712 0.735690 0.874011 0.193297
C123  C     C_3   0.625558 0.759846 0.644958 -0.485673
C124  C     C_3   0.611715 0.738928 0.697497 -0.323816
C125  C     C_3   0.647765 0.626666 0.707518 -0.917956
H115  H     H_    0.536241 0.579558 0.694736 0.274516
H116  H     H_    0.767201 0.600886 0.689652 0.266246
H117  H     H_    0.666962 0.613237 0.745340 0.245366
H118  H     H_    0.706189 0.786493 0.716592 0.227283
H119  H     H_    0.478897 0.756730 0.709805 0.209125
H120  H     H_    0.552732 0.695950 0.630919 0.210022
H121  H     H_    0.763683 0.748420 0.635676 0.211259
C126  C     C_3   0.355162 0.234810 0.358266 -0.466569
C127  C     C_3   0.469280 0.299220 0.326304 -0.285114
C128  C     C_3   0.366796 0.384160 0.302215 -0.899740
H122  H     H_    0.261867 0.353206 0.279439 0.237630
H123  H     H_    0.308168 0.436286 0.327837 0.276041
H124  H     H_    0.455288 0.430437 0.280838 0.266145
H125  H     H_    0.577125 0.335851 0.346047 0.218540
H126  H     H_    0.521225 0.248791 0.298835 0.215333
H127  H     H_    0.243282 0.212537 0.336026 0.208105
H128  H     H_    0.296397 0.279985 0.385467 0.215294
N1    N     N_R   0.040501 0.306873 0.548914 0.233383
O21   O     O_R   0.945816 0.242120 0.571570 -0.444968
O22   O     O_R   0.179911 0.342794 0.569912 -0.365206
N2    N     N_R   0.057204 0.707395 0.455972 0.230146
O23   O     O_R   0.962777 0.784627 0.442707 -0.435569
O24   O     O_R   0.181515 0.675194 0.428828 -0.382462
N3    N     N_R   0.112185 0.700329 0.046876 0.202641
O25   O     O_R   0.249260 0.664274 0.068745 -0.416701
O26   O     O_R   0.025670 0.770243 0.068618 -0.401649
N4    N     N_R   0.058314 0.290947 0.946375 0.238429
O27   O     O_R   0.197254 0.237450 0.938095 -0.428897
O28   O     O_R   0.938475 0.292546 0.913214 -0.356468
N5    N     N_R   0.607333 0.214682 0.963106 0.222220
O29   O     O_R   0.517757 0.258823 0.929845 -0.388794
O30   O     O_R   0.754689 0.252215 0.976523 -0.451762
N6    N     N_R   0.620983 0.804955 0.045533 0.237591
O31   O     O_R   0.587828 0.709862 0.051493 -0.426204
O32   O     O_R   0.730306 0.846996 0.074985 -0.401454
N7    N     N_R   0.477152 0.801759 0.452714 0.230327
O33   O     O_R   0.574936 0.735187 0.431600 -0.444483
O34   O     O_R   0.337828 0.834828 0.430731 -0.366109
N8    N     N_R   0.449685 0.207372 0.545734 0.233295
O35   O     O_R   0.544551 0.284131 0.559365 -0.439639
O36   O     O_R   0.324893 0.176341 0.572734 -0.377751

loop_
_geom_bond_atom_site_label_1
_geom_bond_atom_site_label_2
_geom_bond_distance
_ccdc_geom_bond_type
C97   H55   1.081119 S    
C89   H33   1.095967 S    
C107  H73   1.110785 S    
C48   C56   1.425357 A    
O9    V1    2.073952 S    
C61   C62   1.413301 A    
C125  H117  1.100132 S    
C20   C114  1.523679 S    
C74   C84   1.517322 S    
C13   C37   1.391849 A    
C113  H87   1.104822 S    
C68   C76   1.451838 A    
C81   H23   1.102877 S    
C96   C97   1.529114 S    
C9    C33   1.393746 A    
C13   C29   1.384791 A    
O13   V3    2.086412 S    
C36   C44   1.428875 A    
C75   C87   1.526263 S    
C57   C58   1.416768 A    
C113  H89   1.110117 S    
C121  H112  1.103147 S    
C83   H17   1.110163 S    
C98   H52   1.102190 S    
C59   C68   1.438650 A    
C107  H74   1.103275 S    
O11   C3    1.383658 A    
N5    O29   1.299910 A    
C58   C65   1.422491 A    
C9    C25   1.388047 A    
O12   C4    1.377558 A    
C66   C74   1.423540 A    
C78   C96   1.530314 S    
C65   C73   1.429612 A    
N2    O23   1.302090 A    
C24   C126  1.525763 S    
C128  H122  1.100696 S    
C11   C35   1.391814 A    
N4    O27   1.295072 A    
C10   C34   1.398559 A    
C22   C54   1.463282 A    
C124  H119  1.100262 S    
C123  C124  1.528111 S    
C21   C53   1.465032 A    
C83   H18   1.110290 S    
C110  H80   1.107957 S    
C109  H83   1.097975 S    
C85   H28   1.095021 S    
C89   H31   1.108969 S    
C23   C55   1.478406 A    
O3    V4    2.075461 S    
C128  H124  1.104019 S    
C22   C30   1.411385 A    
O3    C2    1.392661 A    
C71   C79   1.432821 A    
C117  C118  1.521401 S    
C105  C106  1.522720 S    
C33   C41   1.419082 A    
C82   H20   1.098638 S    
C100  C101  1.538110 S    
H3    C28   1.079676 S    
C46   C54   1.440068 A    
C120  H113  1.095486 S    
O8    V1    2.069073 S    
C76   C90   1.536664 S    
C99   H64   1.099337 S    
C18   C26   1.406225 A    
C89   H32   1.110123 S    
C108  C109  1.543545 S    
C85   C86   1.520944 S    
C16   C32   1.377362 A    
C47   C55   1.427154 A    
C111  H93   1.093761 S    
O10   V2    2.073954 S    
C86   H26   1.100434 S    
C72   N8    1.433171 S    
C90   C91   1.527310 S    
N3    O26   1.293079 A    
C84   H30   1.096101 S    
C103  H70   1.093234 S    
C92   H39   1.102950 S    
C19   C111  1.540945 S    
C116  H94   1.107932 S    
C123  H120  1.083303 S    
C12   C28   1.377943 A    
C19   C27   1.420417 A    
O15   C7    1.388973 A    
C38   C46   1.420298 A    
C24   C32   1.406605 A    
C126  C127  1.532062 S    
C123  H121  1.098877 S    
C37   C45   1.415911 A    
O16   C8    1.364781 A    
N6    O31   1.295629 A    
C106  H77   1.096623 S    
C39   C47   1.412409 A    
C115  H98   1.104660 S    
C42   C58   1.447394 A    
C96   H57   1.085485 S    
C68   N4    1.464131 S    
O15   V4    2.081988 S    
C34   C42   1.423228 A    
C23   C123  1.553160 S    
O16   V3    2.081986 S    
C105  H78   1.086317 S    
C48   C64   1.452939 A    
O20   V2    1.869639 S    
C87   H37   1.100011 S    
C118  C119  1.539506 S    
H8    C31   1.079305 S    
C49   C73   1.450184 A    
C93   H50   1.091161 S    
C20   C52   1.467045 A    
C21   C117  1.537158 S    
C107  H75   1.103955 S    
N8    O36   1.300582 A    
H11   C36   1.077672 S    
C82   C83   1.535870 S    
C111  H92   1.095700 S    
C106  C107  1.536016 S    
H1    C26   1.083563 S    
C87   H36   1.087735 S    
C102  C103  1.512530 S    
C44   C60   1.436546 A    
O7    V2    2.069071 S    
C88   H35   1.103637 S    
C120  C121  1.533108 S    
C95   H47   1.096716 S    
C117  H106  1.094834 S    
C102  H72   1.096264 S    
C24   C56   1.458367 A    
C60   C67   1.427692 A    
C80   C102  1.512763 S    
C17   C25   1.418898 A    
C124  H118  1.093972 S    
C72   C80   1.422062 A    
C84   H29   1.093598 S    
N1    O22   1.301406 A    
O1    V3    2.080136 S    
C7    C10   1.485572 S    
O14   V4    2.086411 S    
C119  H102  1.102658 S    
N1    O21   1.301594 A    
C18   C108  1.517525 S    
C70   N6    1.454279 S    
C6    C11   1.495553 S    
C118  H105  1.100791 S    
C63   C72   1.432966 A    
C90   H43   1.078763 S    
C99   C100  1.498694 S    
O18   V4    1.874148 S    
C67   N3    1.450282 S    
N7    O33   1.301006 A    
C101  H59   1.110950 S    
H15   C40   1.075465 S    
C111  C112  1.521817 S    
C108  H86   1.073828 S    
H12   C35   1.077307 S    
C120  H114  1.088180 S    
C64   C71   1.429623 A    
C101  H60   1.109841 S    
C15   C39   1.394420 A    
C99   H65   1.103665 S    
C65   N1    1.435224 S    
C59   C60   1.421489 A    
C14   C30   1.378847 A    
C112  H91   1.098015 S    
C16   C40   1.396437 A    
C102  H71   1.095378 S    
C104  H68   1.094610 S    
H4    C27   1.078534 S    
C104  H67   1.107063 S    
O8    C5    1.380371 A    
O17   V3    1.874149 S    
H16   C39   1.075199 S    
O13   C5    1.386679 A    
C127  H125  1.100956 S    
C11   C27   1.392141 A    
C103  H69   1.068385 S    
C109  C110  1.528230 S    
C92   H40   1.104744 S    
C44   C52   1.428918 A    
C70   C78   1.432013 A    
C10   C26   1.377777 A    
C1    C16   1.482286 S    
C67   C75   1.436079 A    
C81   C82   1.500251 S    
C23   C31   1.414332 A    
C98   H53   1.105264 S    
C17   C49   1.478479 A    
C2    C15   1.480152 S    
C18   C50   1.453366 A    
C91   H42   1.103873 S    
C47   C63   1.451405 A    
O4    C1    1.369386 A    
C4    C13   1.470595 S    
C3    C14   1.483321 S    
O9    C1    1.389665 A    
H7    C32   1.083085 S    
C77   C93   1.547229 S    
C71   N7    1.432544 S    
N2    O24   1.300011 A    
N7    O34   1.300925 A    
N3    O25   1.299521 A    
C12   C36   1.396363 A    
C86   H24   1.095281 S    
C126  H127  1.094891 S    
C96   H58   1.071218 S    
C101  H61   1.102892 S    
C93   H51   1.099384 S    
C127  C128  1.526576 S    
C17   C105  1.549336 S    
C84   C85   1.512272 S    
C46   C62   1.452617 A    
C105  H79   1.098973 S    
C63   C64   1.417023 A    
H6    C29   1.080289 S    
C45   C61   1.439615 A    
C97   C98   1.531956 S    
N4    O28   1.304587 A    
C122  H109  1.099928 S    
H5    C30   1.079715 S    
C19   C51   1.476754 A    
C98   H54   1.110400 S    
C21   C29   1.405989 A    
C8    C9    1.498838 S    
C125  H116  1.101133 S    
C110  H82   1.103093 S    
C91   H41   1.091168 S    
C126  H128  1.076494 S    
O1    C4    1.376881 A    
C127  H126  1.101270 S    
O6    V2    2.090662 S    
C95   H46   1.109669 S    
O2    C3    1.376427 A    
H2    C25   1.078825 S    
C88   H34   1.103397 S    
C56   C80   1.421715 A    
C97   H56   1.106020 S    
C22   C120  1.527262 S    
C117  H107  1.091053 S    
C62   C69   1.434855 A    
C81   H22   1.091849 S    
C114  H99   1.087849 S    
C83   H19   1.101226 S    
C42   C50   1.420311 A    
C122  H110  1.105069 S    
C69   C77   1.425835 A    
C113  H88   1.107271 S    
C79   C99   1.514082 S    
C124  C125  1.536066 S    
O12   V1    2.101411 S    
H14   C37   1.083061 S    
N8    O35   1.301761 A    
C94   C95   1.528260 S    
O7    C6    1.386916 A    
C108  H85   1.090579 S    
H13   C38   1.073085 S    
C118  H104  1.105556 S    
C53   C77   1.437287 A    
C106  H76   1.086261 S    
C69   N5    1.407336 S    
O2    V4    2.080134 S    
C90   H44   1.067397 S    
O14   C6    1.379944 A    
C125  H115  1.111106 S    
C61   C70   1.425511 A    
C110  H81   1.104862 S    
C41   C49   1.430537 A    
N5    O30   1.281692 A    
C93   C94   1.531211 S    
C87   C88   1.514377 S    
C103  C104  1.517176 S    
C54   C78   1.448657 A    
C35   C43   1.413131 A    
C122  H108  1.108531 S    
O5    C8    1.400691 A    
O5    V1    2.090660 S    
C112  H90   1.108834 S    
O10   C2    1.363600 A    
C119  H103  1.110623 S    
O6    C7    1.372788 A    
C43   C51   1.424756 A    
N6    O32   1.297465 A    
C115  C116  1.526188 S    
C128  H123  1.098677 S    
C51   C75   1.455320 A    
C66   N2    1.431755 S    
C100  H62   1.103284 S    
C50   C74   1.423900 A    
C82   H21   1.102068 S    
C112  C113  1.541743 S    
C116  H96   1.105117 S    
C95   H45   1.107321 S    
C55   C79   1.440427 A    
C115  H97   1.105482 S    
C94   H49   1.095527 S    
H10   C33   1.073872 S    
C94   H48   1.104278 S    
C57   C66   1.432995 A    
H9    C34   1.076321 S    
C45   C53   1.426612 A    
C73   C81   1.516736 S    
C91   C92   1.533946 S    
C20   C28   1.413338 A    
C40   C48   1.420482 A    
C104  H66   1.098107 S    
C116  H95   1.098702 S    
C114  C115  1.527924 S    
C86   H25   1.110273 S    
C41   C57   1.452641 A    
C88   C89   1.536106 S    
C114  H100  1.086675 S    
O11   V2    2.101410 S    
C43   C59   1.444840 A    
C121  H111  1.107234 S    
C85   H27   1.065875 S    
C14   C38   1.389827 A    
C92   H38   1.102581 S    
C100  H63   1.101525 S    
O19   V1    1.869640 S    
C5    C12   1.494972 S    
C15   C31   1.383371 A    
C119  H101  1.102730 S    
C121  C122  1.526667 S    
C109  H84   1.105233 S    
O4    V3    2.075459 S    
C52   C76   1.456615 A    
