data_mof_unit_29202.cif
_audit_creation_date              2012-12-10T16:48:49-0500
_audit_creation_method            fapswitch 2.2
_symmetry_space_group_name_H-M    P1
_symmetry_Int_Tables_number       1
_space_group_crystal_system       triclinic
_cell_length_a                    17.277794
_cell_length_b                    8.737842
_cell_length_c                    7.478434
_cell_angle_alpha                 103.006216
_cell_angle_beta                  90.666221
_cell_angle_gamma                 93.86183
_cell_volume                      1097.14502681

loop_
_atom_site_label
_atom_site_type_symbol
_atom_type_description
_atom_site_fract_x
_atom_site_fract_y
_atom_site_fract_z
_atom_type_partial_charge
C1    C     C_R   0.495358 0.200119 0.454595 0.774903
C2    C     C_R   0.504638 0.799881 0.545406 0.774941
C3    C     C_2   0.485461 0.032026 0.433837 0.214734
C4    C     C_2   0.514531 0.967975 0.566169 0.214760
C5    C     C_R   0.351883 0.503363 0.525444 0.791248
C6    C     C_R   0.648117 0.496652 0.474559 0.791191
C7    C     C_R   0.268565 0.510575 0.539929 -0.191410
C8    C     C_R   0.731438 0.489509 0.460088 -0.191411
C9    C     C_R   0.220731 0.369957 0.484148 -0.172727
C10   C     C_R   0.779242 0.630193 0.515656 -0.172727
C11   C     C_R   0.140154 0.377686 0.457703 0.412703
C12   C     C_R   0.859828 0.622581 0.542097 0.412679
C13   C     C_R   0.109436 0.526534 0.492076 -0.012939
C14   C     C_R   0.890580 0.473770 0.508061 -0.012809
C15   C     C_R   0.157178 0.664348 0.550903 -0.195770
C16   C     C_R   0.842865 0.335889 0.449446 -0.195785
C17   C     C_R   0.236406 0.658767 0.577060 0.410151
C18   C     C_R   0.763634 0.341358 0.423219 0.410155
C19   C     C_2   0.026798 0.542725 0.464944 -0.062483
C20   C     C_2   0.973225 0.457671 0.535270 -0.062433
Cu1   Cu    Cu3+1 0.508700 0.517250 0.683000 1.093155
Cu2   Cu    Cu3+1 0.491300 0.482750 0.317000 1.093171
H1    H     H_    0.989963 0.369057 0.606710 0.179642
H2    H     H_    0.010073 0.631327 0.393474 0.179731
H3    H     H_    0.132516 0.777925 0.576460 0.191917
H4    H     H_    0.867552 0.222341 0.424110 0.191852
N1    N     N_2   0.478180 0.456750 0.041980 0.155024
N2    N     N_2   0.521820 0.543250 0.958020 0.155025
O1    O     O_R   0.505650 0.286040 0.618880 -0.486899
O2    O     O_R   0.494350 0.713960 0.381120 -0.486910
O3    O     O_R   0.490960 0.256910 0.309800 -0.629093
O4    O     O_R   0.509040 0.743090 0.690200 -0.629130
O5    O     O_R   0.394600 0.516230 0.672450 -0.546620
O6    O     O_R   0.605400 0.483770 0.327550 -0.546565
O7    O     O_R   0.379910 0.487100 0.363380 -0.587190
O8    O     O_R   0.620090 0.512900 0.636620 -0.587187
C21   C     C_1   0.255130 0.219469 0.450127 0.246328
N3    N     N_1   0.282548 0.099432 0.423249 -0.224523
C22   C     C_1   0.744794 0.780629 0.549627 0.246406
N4    N     N_1   0.717337 0.900626 0.576473 -0.224420
O9    O     O_3   0.720142 0.199215 0.368768 -0.694364
H5    H     H_    0.666196 0.217226 0.338188 0.324736
O10   O     O_3   0.279929 0.800854 0.631705 -0.694381
H6    H     H_    0.333863 0.782743 0.662314 0.324758
O11   O     O_3   0.909550 0.754921 0.609130 -0.733911
H7    H     H_    0.881519 0.851863 0.626406 0.339807
O12   O     O_3   0.090403 0.245442 0.390428 -0.733908
H8    H     H_    0.118477 0.148507 0.372119 0.339835
O13   O     O_3   0.443138 0.939896 0.284273 -0.698261
H9    H     H_    0.421500 0.007816 0.209285 0.346255
O14   O     O_3   0.556850 0.060106 0.715740 -0.698252
H10   H     H_    0.578484 0.992189 0.790737 0.346255
O15   O     O_3   0.426530 0.353774 0.935728 -0.579961
H11   H     H_    0.399118 0.298450 0.021026 0.335344
O16   O     O_3   0.573470 0.646225 0.064272 -0.579979
H12   H     H_    0.600882 0.701548 0.978974 0.335341

loop_
_geom_bond_atom_site_label_1
_geom_bond_atom_site_label_2
_ccdc_geom_bond_type
O11   H7    S    
C2    C4    S    
O10   H6    S    
N1    O15   S    
C15   C17   A    
C21   N3    T    
C14   C20   S    
C11   C13   A    
O9    H5    S    
C11   O12   S    
C19   C20   D    
C20   H1    S    
C2    O2    A    
C16   C18   A    
O16   H12   S    
C9    C21   S    
C19   H2    S    
C3    O13   S    
Cu1   O8    S    
O15   H11   S    
Cu2   O7    S    
C9    C11   A    
C10   C12   A    
C5    O7    A    
C1    O1    A    
N2    O16   S    
C6    O8    A    
Cu2   N1    S    
C13   C15   A    
C16   H4    S    
Cu2   O6    S    
Cu1   O4    S    
C14   C16   A    
C15   H3    S    
Cu1   O5    S    
Cu2   O3    S    
C13   C19   S    
C4    O14   S    
O14   H10   S    
C22   N4    T    
O12   H8    S    
C7    C9    A    
C1    O3    A    
C17   O10   S    
C2    O4    A    
O13   H9    S    
C18   O9    S    
N1    N2    D    
C5    C7    S    
C10   C22   S    
C6    C8    S    
Cu2   O2    S    
C1    C3    S    
Cu1   Cu2   S    
Cu1   O1    S    
Cu1   N2    S    
C8    C10   A    
C8    C18   A    
C3    C4    D    
C6    O6    A    
C12   C14   A    
C12   O11   S    
C7    C17   A    
C5    O5    A    
