data_mof_unit_8511.cif
_audit_creation_date              2012-12-11T17:05:36-0500
_audit_creation_method            fapswitch 2.2
_symmetry_space_group_name_H-M    P1
_symmetry_Int_Tables_number       1
_space_group_crystal_system       triclinic
_cell_length_a                    6.959138
_cell_length_b                    14.52604
_cell_length_c                    16.020146
_cell_angle_alpha                 90.187969
_cell_angle_beta                  90.01717
_cell_angle_gamma                 89.871005
_cell_volume                      1619.44311612

loop_
_atom_site_label
_atom_site_type_symbol
_atom_type_description
_atom_site_fract_x
_atom_site_fract_y
_atom_site_fract_z
_atom_type_partial_charge
O1    O     O_R   0.494380 0.415640 0.412830 -0.543251
O2    O     O_R   0.823960 0.405540 0.586560 -0.546534
O3    O     O_R   0.994270 0.584360 0.587170 -0.552936
C1    C     C_R   0.655350 0.383579 0.615283 0.689492
O4    O     O_R   0.824090 0.404620 0.413450 -0.546089
O5    O     O_R   0.994400 0.583430 0.412820 -0.529368
C2    C     C_R   0.655071 0.383811 0.383433 0.708351
O6    O     O_R   0.494250 0.416570 0.587180 -0.536804
O7    O     O_3   0.660800 0.558670 0.500000 -0.363447
V1    V     V_3+5 0.935650 0.489120 0.500000 1.380856
O8    O     O_R   0.324110 0.594460 0.413440 -0.535630
C3    C     C_R   0.155259 0.613952 0.382715 0.685469
O9    O     O_R   0.323980 0.595380 0.586550 -0.535528
C4    C     C_R   0.155323 0.616098 0.616535 0.679823
V2    V     V_3+5 0.435660 0.510880 0.500000 1.406537
O10   O     O_3   0.160640 0.441330 0.500000 -0.377378
C5    C     C_3   0.000725 0.652034 0.757041 0.166742
H1    H     H_    0.853428 0.648660 0.729320 0.069308
C6    C     C_3   0.992676 0.722260 0.830722 -0.304700
H2    H     H_    0.031489 0.689219 0.890831 0.177923
H3    H     H_    0.842051 0.746499 0.837961 0.111912
H4    H     H_    0.928130 0.772770 0.628846 0.074669
H5    H     H_    0.907694 0.874083 0.736327 0.121533
C7    C     C_3   0.074517 0.780528 0.656613 0.170532
C8    C     C_3   0.346301 0.697198 0.730023 -0.279731
C9    C     C_3   0.145371 0.684807 0.688393 -0.021345
H6    H     H_    0.452439 0.720852 0.682780 0.139816
H7    H     H_    0.399303 0.629113 0.750736 0.163741
C10   C     C_3   0.125446 0.805937 0.814013 -0.030285
C11   C     C_3   0.059218 0.850121 0.730494 -0.394051
C12   C     C_3   0.336888 0.770256 0.801459 0.201303
H8    H     H_    0.421303 0.830384 0.778650 0.082846
H9    H     H_    0.147154 0.912393 0.717497 0.168979
C13   C     C_R   0.253439 0.820384 0.245543 0.096419
C14   C     C_R   0.118688 0.813086 0.181247 -0.161088
C15   C     C_R   0.984059 0.741085 0.186194 -0.206366
H10   H     H_    0.876404 0.736692 0.137729 0.134186
C16   C     C_R   0.998204 0.671416 0.248501 0.299153
C17   C     C_R   0.141787 0.679686 0.312000 -0.183306
C18   C     C_R   0.262677 0.756606 0.309724 0.060523
C19   C     C_3   0.476877 0.762275 0.313593 -0.382757
C20   C     C_3   0.466347 0.831675 0.242813 -0.394049
H11   H     H_    0.548039 0.696578 0.295776 0.206159
H12   H     H_    0.527661 0.792839 0.373334 0.175814
H13   H     H_    0.530472 0.805889 0.183583 0.177620
H14   H     H_    0.511731 0.902030 0.261764 0.165322
C21   C     C_R   0.493808 0.316928 0.741720 0.109635
C22   C     C_R   0.647932 0.317678 0.685488 -0.114052
C23   C     C_R   0.799385 0.255272 0.699968 -0.177315
H15   H     H_    0.921763 0.253487 0.658513 0.134130
C24   C     C_R   0.787922 0.189880 0.764443 -0.173913
H16   H     H_    0.902525 0.140023 0.771013 0.126842
C25   C     C_R   0.624386 0.184807 0.816124 -0.110553
C26   C     C_R   0.482105 0.252019 0.805349 0.102746
C27   C     C_3   0.271112 0.240680 0.793535 -0.408801
C28   C     C_3   0.283794 0.311813 0.724475 -0.397475
H17   H     H_    0.187719 0.264880 0.848589 0.178760
H18   H     H_    0.233988 0.170709 0.770473 0.166324
H19   H     H_    0.208652 0.377279 0.739784 0.181552
H20   H     H_    0.253167 0.283377 0.661373 0.169701
C29   C     C_R   0.482118 0.259375 0.303389 0.053734
C30   C     C_R   0.644152 0.314831 0.314949 -0.097055
C31   C     C_R   0.796494 0.302409 0.258758 -0.201169
H21   H     H_    0.916525 0.348174 0.261958 0.174825
C32   C     C_R   0.786770 0.236982 0.193716 -0.181656
H22   H     H_    0.903203 0.232982 0.149253 0.135381
C33   C     C_R   0.622249 0.182037 0.182446 -0.096393
C34   C     C_R   0.472986 0.192548 0.240375 0.036704
C35   C     C_3   0.265722 0.210420 0.223673 -0.397166
C36   C     C_3   0.277279 0.286548 0.289378 0.148277
H23   H     H_    0.175422 0.151506 0.243817 0.138380
H24   H     H_    0.239322 0.232168 0.158441 0.178522
H25   H     H_    0.186065 0.273313 0.345033 0.094138
O11   O     O_R   0.771490 0.080820 0.910070 -0.539751
O12   O     O_R   0.441590 0.092730 0.083780 -0.540334
O13   O     O_R   0.271350 0.913900 0.084390 -0.532983
C37   C     C_R   0.610420 0.115092 0.112509 0.698895
O14   O     O_R   0.441780 0.091820 0.910670 -0.540879
O15   O     O_R   0.271540 0.912980 0.910040 -0.535917
C38   C     C_R   0.610720 0.113881 0.882003 0.693893
O16   O     O_R   0.771300 0.081740 0.084420 -0.538972
O17   O     O_3   0.604960 0.938700 0.997240 -0.375114
V3    V     V_3+5 0.330090 0.008230 0.997220 1.394308
O18   O     O_R   0.941820 0.901930 0.910640 -0.550662
C39   C     C_R   0.111648 0.877569 0.883553 0.707233
O19   O     O_R   0.941630 0.902840 0.083750 -0.544076
C40   C     C_R   0.110629 0.880708 0.112337 0.724942
V4    V     V_3+5 0.830090 0.986410 0.997190 1.375795
O20   O     O_3   0.105080 0.055990 0.997200 -0.370603
O21   O     O_3   0.200562 0.815608 0.595908 -0.642259
H26   H     H_    0.164641 0.787010 0.541747 0.276752
N1    N     N_2   0.879699 0.590596 0.245110 -0.505939
H27   H     H_    0.943299 0.531888 0.268367 0.258503
C41   C     C_3   0.766124 0.571811 0.171246 -0.596594
H28   H     H_    0.692378 0.504761 0.178596 0.199974
H29   H     H_    0.860130 0.567538 0.115295 0.200664
H30   H     H_    0.653884 0.625408 0.162849 0.197534
O22   O     O_3   0.051997 0.564621 0.787420 -0.660760
H31   H     H_    0.991465 0.518262 0.750179 0.276629
N2    N     N_2   0.254560 0.380410 0.257745 -0.517968
H32   H     H_    0.255001 0.431782 0.302136 0.263501
C42   C     C_3   0.323151 0.407003 0.175840 -0.545381
H33   H     H_    0.331145 0.483253 0.171984 0.183318
H34   H     H_    0.220543 0.383615 0.127240 0.196328
H35   H     H_    0.467736 0.378040 0.163239 0.212182
N3    N     N_2   0.425678 0.741725 0.880466 -0.517499
H36   H     H_    0.538223 0.782431 0.900162 0.265646
C43   C     C_3   0.443895 0.646345 0.905431 -0.567635
H37   H     H_    0.469998 0.643265 0.973747 0.189510
H38   H     H_    0.568559 0.613988 0.873397 0.192329
H39   H     H_    0.311486 0.607137 0.892062 0.250901

loop_
_geom_bond_atom_site_label_1
_geom_bond_atom_site_label_2
_ccdc_geom_bond_type
C29   C36   S    
C8    C12   S    
C27   C28   S    
C31   C32   A    
C19   C20   S    
O2    C1    A    
C14   C15   A    
C33   C37   S    
C1    O6    A    
C25   C26   A    
C8    H7    S    
C10   C11   S    
C13   C18   A    
C5    C9    S    
C15   H10   S    
C6    H3    S    
C7    C9    S    
C35   C36   S    
O5    C3    A    
C16   C17   A    
O19   V4    S    
N3    H36   S    
V2    O10   S    
C16   N1    S    
C43   H37   S    
C42   H35   S    
C13   C14   A    
C20   H14   S    
C35   H23   S    
N2    H32   S    
C5    C6    S    
O8    V2    S    
O14   V3    S    
C12   H8    S    
C34   C35   S    
C32   C33   A    
C13   C20   S    
O1    V2    S    
C5    O22   S    
C10   C39   S    
O11   C38   A    
O9    C4    A    
C19   H11   S    
C42   H33   S    
C14   C40   S    
O13   V3    S    
N1    C41   S    
C36   N2    S    
V3    O20   S    
C24   H16   S    
H5    C11   S    
C25   C38   S    
O18   C39   A    
C17   C18   A    
O4    C2    A    
O19   C40   A    
C41   H30   S    
C23   C24   A    
C8    C9    S    
O17   V3    S    
C33   C34   A    
C24   C25   A    
C20   H13   S    
C35   H24   S    
C42   H34   S    
C2    C30   S    
C30   C31   A    
C21   C22   A    
C37   O16   A    
C36   H25   S    
N2    C42   S    
C5    H1    S    
C41   H28   S    
C4    C9    S    
C41   H29   S    
O12   C37   A    
O13   C40   A    
O3    C4    A    
C21   C26   A    
C18   C19   S    
C23   H15   S    
O6    V2    S    
C27   H17   S    
C12   N3    S    
H4    C7    S    
C6    C10   S    
O15   C39   A    
C1    C22   S    
C26   C27   S    
C22   C23   A    
C11   H9    S    
O1    C2    A    
O18   V4    S    
C7    O21   S    
O5    V1    S    
O8    C3    A    
C28   H19   S    
C8    H6    S    
C43   H39   S    
C6    H2    S    
O9    V2    S    
O7    V2    S    
O4    V1    S    
C10   C12   S    
O3    V1    S    
V1    O10   S    
O15   V3    S    
C29   C34   A    
O12   V3    S    
O21   H26   S    
N3    C43   S    
C3    C17   S    
O17   V4    S    
C15   C16   A    
N1    H27   S    
C19   H12   S    
C43   H38   S    
O7    V1    S    
O14   C38   A    
C32   H22   S    
C29   C30   A    
C7    C11   S    
O16   V4    S    
C31   H21   S    
C28   H20   S    
V4    O20   S    
O22   H31   S    
C27   H18   S    
O11   V4    S    
C21   C28   S    
O2    V1    S    
