data_mof_unit_50144.cif
_audit_creation_date              2012-12-10T16:53:09-0500
_audit_creation_method            fapswitch 2.2
_symmetry_space_group_name_H-M    P1
_symmetry_Int_Tables_number       1
_space_group_crystal_system       triclinic
_cell_length_a                    10.779905
_cell_length_b                    10.91941
_cell_length_c                    9.689505
_cell_angle_alpha                 89.592519
_cell_angle_beta                  90.008306
_cell_angle_gamma                 90.062007
_cell_volume                      1140.52407275

loop_
_atom_site_label
_atom_site_type_symbol
_atom_type_description
_atom_site_fract_x
_atom_site_fract_y
_atom_site_fract_z
_atom_type_partial_charge
C1    C     C_R   0.500533 0.265377 0.500458 0.856030
C2    C     C_R   0.065537 0.395236 0.576194 0.098392
C3    C     C_R   0.128894 0.487052 0.500056 -0.098102
C4    C     C_R   0.064065 0.572782 0.420776 -0.197325
C5    C     C_R   0.936133 0.572780 0.420761 -0.204547
C6    C     C_R   0.871117 0.487044 0.500020 -0.094467
C7    C     C_2   0.479255 0.935815 0.382485 0.482765
C8    C     C_2   0.485896 0.867586 0.499020 -0.407963
C9    C     C_2   0.465812 0.069954 0.393156 -0.260735
C10   C     C_2   0.507064 0.133465 0.501529 -0.396070
C11   C     C_2   0.433111 0.425024 0.922640 -0.058409
C12   C     C_R   0.262608 0.495700 0.500088 0.783140
C13   C     C_2   0.435725 0.422818 0.078390 -0.057766
C14   C     C_R   0.496361 0.734949 0.499263 0.878672
C15   C     C_R   0.737398 0.495721 0.500039 0.782499
C16   C     C_R   0.129274 0.301225 0.648085 -0.185420
C17   C     C_R   0.064277 0.210740 0.720131 -0.140082
C18   C     C_R   0.935250 0.210705 0.720093 -0.136128
C19   C     C_R   0.870406 0.301183 0.648045 -0.177093
C20   C     C_R   0.934306 0.395223 0.576173 0.095899
Cu1   Cu    Cu3+1 0.500020 0.500020 0.638630 0.933779
Cu2   Cu    Cu3+1 0.499980 0.499980 0.361370 0.961210
H1    H     H_    0.112924 0.641959 0.361081 0.158721
H2    H     H_    0.550504 0.090507 0.590267 0.149605
H3    H     H_    0.372849 0.359778 0.871736 0.149887
H4    H     H_    0.558628 0.558427 0.893508 0.194348
H5    H     H_    0.380357 0.353420 0.130252 0.147918
H6    H     H_    0.548737 0.566723 0.105511 0.196713
H7    H     H_    0.229305 0.294915 0.647362 0.141521
H8    H     H_    0.114289 0.139394 0.774697 0.132626
H9    H     H_    0.885113 0.139325 0.774628 0.132931
H10   H     H_    0.770358 0.294870 0.647354 0.148835
H11   H     H_    0.887425 0.641960 0.361058 0.148175
H12   H     H_    0.480375 0.908866 0.600198 0.121477
H13   H     H_    0.424755 0.118232 0.306193 0.171743
N1    N     N_2   0.498640 0.498660 0.846910 -0.280068
N2    N     N_2   0.498610 0.498630 0.153040 -0.276185
O1    O     O_R   0.500020 0.321960 0.617040 -0.594379
O2    O     O_R   0.499980 0.321920 0.382900 -0.575101
O3    O     O_R   0.319670 0.500020 0.617100 -0.577279
O4    O     O_R   0.319630 0.499980 0.382950 -0.571203
O5    O     O_R   0.500020 0.678080 0.617100 -0.585472
O6    O     O_R   0.499980 0.678040 0.382960 -0.521097
O7    O     O_R   0.680370 0.500020 0.617050 -0.581716
O8    O     O_R   0.680330 0.499980 0.382900 -0.575806
O9    O     O_3   0.467858 0.878584 0.254806 -0.587099
C21   C     C_3   0.539795 0.936299 0.150404 0.063931
H14   H     H_    0.600544 0.865388 0.104221 0.152828
H15   H     H_    0.603329 0.009516 0.188179 0.131568
C22   C     C_3   0.454283 0.986490 0.037093 -0.341210
H16   H     H_    0.401124 0.909634 0.991050 0.228839
H17   H     H_    0.386857 0.051891 0.081890 0.206165
C23   C     C_3   0.527540 0.051740 0.923499 -0.940779
H18   H     H_    0.579459 0.130641 0.966649 0.262857
H19   H     H_    0.462606 0.086594 0.843398 0.255988
H20   H     H_    0.593713 0.987469 0.874349 0.252439

loop_
_geom_bond_atom_site_label_1
_geom_bond_atom_site_label_2
_ccdc_geom_bond_type
C12   O3    A    
C22   H17   S    
C12   O4    A    
C3    C12   S    
Cu1   O7    S    
C6    C20   A    
C9    C10   D    
C13   N2    D    
C21   H14   S    
C14   O5    A    
C10   H2    S    
C17   C18   A    
C6    C15   S    
C7    C8    D    
C21   H15   S    
Cu1   N1    S    
C8    H12   S    
C23   H18   S    
C17   H8    S    
C11   C13   S    
Cu1   O5    S    
Cu1   O3    S    
H6    N2    S    
C19   H10   S    
C1    O1    A    
H4    N1    S    
C11   N1    D    
C15   O7    A    
C2    C3    A    
C21   C22   S    
C23   H19   S    
C5    C6    A    
Cu2   O4    S    
C1    O2    A    
C2    C20   A    
C3    C4    A    
C22   C23   S    
C7    O9    S    
Cu1   O1    S    
Cu2   O8    S    
C2    C16   A    
C7    C9    S    
C18   C19   A    
C23   H20   S    
C9    H13   S    
C4    H1    S    
C11   H3    S    
O9    C21   S    
C16   C17   A    
C8    C14   S    
C18   H9    S    
C4    C5    A    
C22   H16   S    
C16   H7    S    
Cu1   Cu2   S    
Cu2   N2    S    
Cu2   O2    S    
Cu2   O6    S    
C13   H5    S    
C1    C10   S    
C19   C20   A    
C14   O6    A    
C15   O8    A    
C5    H11   S    
