data_mof_unit_53137.cif
_audit_creation_date              2012-12-10T18:09:55-0500
_audit_creation_method            fapswitch 2.2
_symmetry_space_group_name_H-M    P1
_symmetry_Int_Tables_number       1
_space_group_crystal_system       triclinic
_cell_length_a                    10.625882
_cell_length_b                    12.599132
_cell_length_c                    13.101479
_cell_angle_alpha                 82.196632
_cell_angle_beta                  90.581497
_cell_angle_gamma                 102.462634
_cell_volume                      1696.46405385

loop_
_atom_site_label
_atom_site_type_symbol
_atom_type_description
_atom_site_fract_x
_atom_site_fract_y
_atom_site_fract_z
_atom_type_partial_charge
C1    C     C_R   0.480930 0.438648 0.691223 0.851072
C2    C     C_R   0.468004 0.447323 0.973476 0.085521
C3    C     C_R   0.434261 0.465773 0.869690 0.025276
C4    C     C_R   0.741940 0.500573 0.500532 0.829090
C5    C     C_R   0.464397 0.529686 0.035775 0.011954
C6    C     C_R   0.407332 0.619775 0.999678 0.062180
C7    C     C_R   0.357957 0.628879 0.899984 0.427400
C8    C     C_R   0.369856 0.550874 0.836554 -0.323789
C9    C     C_R   0.518376 0.525348 0.132973 -0.225947
C10   C     C_R   0.443596 0.685754 0.165475 -0.234720
C11   C     C_R   0.467128 0.398940 0.800990 -0.083708
C12   C     C_3   0.121385 0.500301 0.500662 0.179227
C13   C     C_R   0.320941 0.088284 0.346562 -0.311398
C14   C     C_R   0.652745 0.799360 0.629949 -0.011030
C15   C     C_R   0.684430 0.903874 0.658436 -0.269654
C16   C     C_R   0.512404 0.561149 0.308675 0.857099
C17   C     C_R   0.626499 0.985497 0.609346 -0.207066
C18   C     C_R   0.536411 0.962630 0.530763 0.012285
C19   C     C_R   0.507918 0.854766 0.504415 0.237448
C20   C     C_R   0.473483 0.041830 0.477668 -0.019037
C21   C     C_R   0.383898 0.011566 0.399750 0.204263
C22   C     C_R   0.358416 0.905240 0.375208 -0.305546
C23   C     C_3   0.065833 0.480962 0.393442 -0.403259
C24   C     C_R   0.420069 0.828291 0.426618 -0.228564
C25   C     C_R   0.495687 0.150641 0.498230 -0.060313
C26   C     C_R   0.347417 0.194421 0.370547 0.006696
C27   C     C_R   0.258034 0.499667 0.500241 0.812281
C28   C     C_3   0.905372 0.409284 0.584070 -0.402716
C29   C     C_3   0.049768 0.408683 0.583901 -0.396586
C30   C     C_3   0.921607 0.482004 0.393488 -0.396906
C31   C     C_3   0.957705 0.613516 0.525630 -0.391989
C32   C     C_3   0.878821 0.501517 0.500979 0.177992
C33   C     C_3   0.362099 0.785503 0.788240 0.099832
C34   C     C_3   0.100480 0.613013 0.525197 -0.383509
C35   C     C_3   0.296294 0.881424 0.762395 -0.822566
C36   C     C_R   0.399893 0.698461 0.064811 -0.162963
C37   C     C_R   0.499605 0.596888 0.199898 -0.045800
C38   C     C_R   0.505084 0.301232 0.838576 -0.199574
C39   C     C_R   0.518720 0.273744 0.943646 -0.153238
C40   C     C_R   0.503588 0.346935 0.010735 -0.171129
H1    H     H_    0.849419 0.327758 0.568629 0.176473
H2    H     H_    0.874679 0.422366 0.661566 0.158732
H3    H     H_    0.326020 0.556149 0.761608 0.169145
H4    H     H_    0.300177 0.255251 0.330093 0.133688
H5    H     H_    0.290730 0.881379 0.315629 0.149061
H6    H     H_    0.252476 0.066457 0.286975 0.143972
H7    H     H_    0.561833 0.181458 0.555504 0.121796
H8    H     H_    0.696978 0.735342 0.668027 0.142553
H9    H     H_    0.653960 0.065005 0.634642 0.133679
H10   H     H_    0.753249 0.921491 0.718633 0.152606
H11   H     H_    0.397376 0.748513 0.403543 0.209946
H12   H     H_    0.150963 0.680659 0.466379 0.178748
H13   H     H_    0.089678 0.421810 0.661228 0.158165
H14   H     H_    0.062857 0.326974 0.568408 0.182334
H15   H     H_    0.079015 0.400672 0.373996 0.178740
H16   H     H_    0.939992 0.681465 0.467297 0.181170
H17   H     H_    0.928635 0.629485 0.602614 0.177547
H18   H     H_    0.140459 0.629521 0.601851 0.185130
H19   H     H_    0.366138 0.747106 0.717062 0.160592
H20   H     H_    0.461970 0.818215 0.813153 0.145352
H21   H     H_    0.290830 0.922150 0.831780 0.251417
H22   H     H_    0.351835 0.942182 0.700854 0.216612
H23   H     H_    0.902977 0.547828 0.333251 0.156916
H24   H     H_    0.197311 0.851846 0.734966 0.255157
H25   H     H_    0.528292 0.247991 0.786563 0.147033
H26   H     H_    0.865763 0.402306 0.373544 0.182483
H27   H     H_    0.117558 0.546131 0.333033 0.157741
H28   H     H_    0.427910 0.741796 0.217316 0.148678
H29   H     H_    0.356164 0.767419 0.039557 0.177254
H30   H     H_    0.571504 0.463580 0.160681 0.142198
H31   H     H_    0.516927 0.321548 0.091388 0.131038
H32   H     H_    0.546586 0.197706 0.972817 0.140532
N1    N     N_R   0.433240 0.222190 0.444680 -0.100140
N2    N     N_R   0.566070 0.776970 0.554790 -0.133463
O1    O     O_R   0.468120 0.366740 0.627160 -0.613997
O2    O     O_R   0.510770 0.544830 0.662520 -0.620033
O3    O     O_R   0.663880 0.410950 0.482330 -0.625810
O4    O     O_R   0.706530 0.589040 0.517700 -0.623160
O5    O     O_R   0.489230 0.455170 0.337480 -0.612779
O6    O     O_R   0.531880 0.633260 0.372840 -0.627859
O7    O     O_R   0.293470 0.410960 0.482300 -0.618962
O8    O     O_R   0.336120 0.589050 0.517670 -0.654359
O9    O     O_3   0.290771 0.709779 0.867420 -0.622341
Zn1   Zn    Zn3+2 0.471520 0.381090 0.476390 0.928143
Zn2   Zn    Zn3+2 0.528480 0.618910 0.523610 0.909667

loop_
_geom_bond_atom_site_label_1
_geom_bond_atom_site_label_2
_ccdc_geom_bond_type
C7    O9    S    
C40   H31   S    
C12   C29   S    
C1    C11   S    
C8    H3    S    
C26   H4    S    
C7    C8    A    
C4    O4    A    
C12   C23   S    
C10   C37   A    
C14   N2    A    
C28   C29   S    
O5    Zn1   S    
O1    Zn1   S    
C20   C25   A    
C28   H1    S    
C26   N1    A    
C18   C19   A    
C15   H10   S    
C23   H27   S    
C39   H32   S    
C35   H24   S    
C31   H16   S    
C25   H7    S    
N1    Zn1   S    
C25   N1    A    
C16   C37   S    
C24   H11   S    
C33   H19   S    
C21   C22   A    
C27   O8    A    
C38   C39   A    
C12   C27   S    
C1    O1    A    
C23   C30   S    
C28   C32   S    
C9    H30   S    
C3    C8    A    
C17   H9    S    
C39   C40   A    
C14   H8    S    
O3    Zn1   S    
C16   O6    A    
C11   C38   A    
C5    C9    A    
O6    Zn2   S    
C31   C32   S    
C38   H25   S    
C27   O7    A    
C9    C37   A    
C17   C18   A    
C31   C34   S    
C13   C21   A    
C35   H21   S    
C30   H26   S    
C33   O9    S    
C4    C32   S    
O4    Zn2   S    
C33   H20   S    
C22   C24   A    
C13   C26   A    
C2    C5    A    
C12   C34   S    
O7    Zn1   S    
C36   H29   S    
C15   C17   A    
C14   C15   A    
C1    O2    A    
C19   N2    A    
C23   H15   S    
C6    C7    A    
C10   H28   S    
O8    Zn2   S    
C34   H12   S    
C16   O5    A    
C31   H17   S    
C2    C3    A    
C4    O3    A    
C30   C32   S    
C5    C6    A    
C29   H13   S    
C28   H2    S    
C33   C35   S    
C6    C36   A    
C19   C24   A    
C35   H22   S    
C18   C20   A    
N2    Zn2   S    
C3    C11   A    
C2    C40   A    
C22   H5    S    
C20   C21   A    
C29   H14   S    
C34   H18   S    
C13   H6    S    
C10   C36   A    
C30   H23   S    
O2    Zn2   S    
