data_mof_unit_12907.cif
_audit_creation_date              2013-03-05T16:03:59-0500
_audit_creation_method            fapswitch 2.2
_symmetry_space_group_name_H-M    P1
_symmetry_Int_Tables_number       1
_space_group_crystal_system       triclinic
_cell_length_a                    12.965439
_cell_length_b                    10.861662
_cell_length_c                    9.550628
_cell_angle_alpha                 88.789705
_cell_angle_beta                  96.180706
_cell_angle_gamma                 91.277525
_cell_volume                      1336.59126997

loop_
_atom_site_label
_atom_site_type_symbol
_atom_site_description
_atom_site_fract_x
_atom_site_fract_y
_atom_site_fract_z
_atom_type_partial_charge
O1    O     O_R   0.499990 0.319660 0.618740 -0.590450
O2    O     O_R   0.500010 0.680340 0.381260 -0.590531
O3    O     O_R   0.499990 0.319630 0.381170 -0.513783
O4    O     O_R   0.500010 0.680370 0.618830 -0.510436
C1    C     C_R   0.503239 0.262356 0.502559 0.900914
C2    C     C_R   0.497671 0.737763 0.497784 0.944927
O5    O     O_R   0.349000 0.499990 0.599490 -0.554986
O6    O     O_R   0.651000 0.500010 0.400510 -0.554651
O7    O     O_R   0.348990 0.499960 0.361920 -0.564278
O8    O     O_R   0.651010 0.500040 0.638080 -0.572063
C3    C     C_R   0.300956 0.500711 0.473630 0.938624
C4    C     C_R   0.699005 0.497532 0.526514 0.892878
Cu1   Cu    Cu3+1 0.500000 0.500020 0.640660 1.066619
Cu2   Cu    Cu3+1 0.500000 0.499980 0.359340 1.066554
C5    C     C_R   0.811391 0.488313 0.542870 -0.206814
C6    C     C_R   0.189252 0.514944 0.459598 -0.180613
C7    C     C_R   0.043745 0.652310 0.419079 0.342582
C8    C     C_R   0.964696 0.371319 0.620014 0.370619
C9    C     C_R   0.147919 0.626872 0.406978 0.109292
C10   C     C_R   0.858190 0.389171 0.620413 0.122716
C11   C     C_R   0.127471 0.425196 0.519365 0.281107
C12   C     C_R   0.870940 0.576245 0.475434 0.310082
C13   C     C_R   0.024140 0.451806 0.539558 -0.172987
C14   C     C_R   0.979301 0.561835 0.478386 -0.164095
C15   C     C_R   0.555808 0.068428 0.403656 0.268150
C16   C     C_R   0.449358 0.932113 0.600343 0.260219
C17   C     C_R   0.544657 0.940546 0.391564 0.135540
C18   C     C_R   0.461463 0.059727 0.612796 0.136270
C19   C     C_R   0.494451 0.872091 0.493337 -0.232858
C20   C     C_R   0.508832 0.128256 0.508683 -0.238187
C21   C     C_R   0.425872 0.434617 0.063724 0.416814
C22   C     C_R   0.574161 0.565399 0.936326 0.414795
C23   C     C_R   0.426086 0.435702 0.915417 -0.122930
C24   C     C_R   0.573712 0.564466 0.084580 -0.129005
H1    H     H_    0.367371 0.383527 0.851455 0.222042
H2    H     H_    0.631885 0.617020 0.148648 0.223918
N1    N     N_R   0.500030 0.500030 0.852080 -0.250095
N2    N     N_R   0.499970 0.499970 0.147920 -0.252205
N3    N     N_R   0.818904 0.674971 0.396540 0.148443
O9    O     O_R   0.815675 0.678917 0.259892 -0.301663
O10   O     O_R   0.764532 0.751888 0.459355 -0.318277
N4    N     N_R   0.165609 0.302145 0.540202 0.148001
O11   O     O_R   0.121283 0.213003 0.465481 -0.244643
O12   O     O_R   0.246107 0.279228 0.629510 -0.337801
N5    N     N_2   0.797901 0.302183 0.692989 -0.392468
H3    H     H_    0.725563 0.278363 0.644509 0.256378
C25   C     C_3   0.802352 0.314546 0.844239 -0.423538
H4    H     H_    0.728588 0.352595 0.872100 0.205327
H5    H     H_    0.867832 0.375782 0.886284 0.251571
H6    H     H_    0.812738 0.222319 0.895336 0.254130
N6    N     N_2   0.213268 0.715906 0.346169 -0.429470
H7    H     H_    0.205447 0.805492 0.376468 0.312757
C26   C     C_3   0.219993 0.703690 0.196453 -0.464628
H8    H     H_    0.301049 0.684230 0.178895 0.217081
H9    H     H_    0.196925 0.790678 0.139437 0.249250
H10   H     H_    0.169059 0.627724 0.150525 0.258145
N7    N     N_R   0.007930 0.774405 0.384305 0.164363
O13   O     O_R   0.009414 0.819022 0.256983 -0.267724
O14   O     O_R   0.986358 0.846304 0.484033 -0.226843
N8    N     N_R   0.012671 0.275727 0.708906 0.167741
O15   O     O_R   0.978674 0.162356 0.697428 -0.216087
O16   O     O_R   0.082363 0.304405 0.812084 -0.278689
N9    N     N_R   0.622048 0.136571 0.316931 0.146071
O17   O     O_R   0.702253 0.197705 0.375192 -0.346781
O18   O     O_R   0.599218 0.144438 0.181204 -0.370526
N10   N     N_R   0.386635 0.864217 0.692047 0.147011
O19   O     O_R   0.305339 0.801909 0.639296 -0.351145
O20   O     O_R   0.413395 0.858662 0.827135 -0.367798
N11   N     N_2   0.586942 0.880758 0.279840 -0.368811
H11   H     H_    0.659338 0.913652 0.260299 0.330833
C27   C     C_3   0.515972 0.870945 0.152426 -0.489436
H12   H     H_    0.488055 0.962696 0.114570 0.250984
H13   H     H_    0.447465 0.812856 0.171263 0.221900
H14   H     H_    0.555758 0.828722 0.068867 0.247346
N12   N     N_2   0.425565 0.119016 0.729633 -0.365603
H15   H     H_    0.355610 0.085261 0.757818 0.326873
C28   C     C_3   0.503608 0.131438 0.849391 -0.487141
H16   H     H_    0.532266 0.040027 0.887600 0.250656
H17   H     H_    0.469764 0.177054 0.936071 0.244560
H18   H     H_    0.570972 0.187764 0.820956 0.219309
N13   N     N_R   0.347038 0.363718 0.123607 0.146800
O21   O     O_R   0.251333 0.398668 0.100200 -0.324294
O22   O     O_R   0.364891 0.249745 0.161049 -0.320404
N14   N     N_R   0.653341 0.636063 0.876679 0.148364
O23   O     O_R   0.749352 0.603236 0.904313 -0.329714
O24   O     O_R   0.634770 0.748928 0.835234 -0.314109

loop_
_geom_bond_atom_site_label_1
_geom_bond_atom_site_label_2
_geom_bond_distance
_ccdc_geom_bond_type
N10   O20   1.299932 A    
N9    O18   1.299642 A    
C6    C11   1.399234 A    
C17   C19   1.416154 A    
N12   H15   1.031069 S    
N13   O21   1.300582 A    
C25   H5    1.112242 S    
C26   H8    1.107518 S    
O5    C3    1.292897 A    
O1    C1    1.288721 A    
N14   O24   1.299862 A    
N7    O14   1.301458 A    
C8    C10   1.399138 A    
N8    O16   1.301239 A    
C15   N9    1.438885 S    
N5    C25   1.448425 S    
O4    Cu1   1.965580 S    
N11   C27   1.448737 S    
C7    C9    1.401989 A    
C5    C12   1.404033 A    
C13   C14   1.426855 A    
C21   C23   1.416533 A    
Cu1   N1    2.019154 S    
C10   N5    1.428371 S    
C17   N11   1.425469 S    
C28   H16   1.108597 S    
C26   H10   1.112632 S    
C28   H17   1.108427 S    
N10   O19   1.300419 A    
Cu1   Cu2   2.686792 S    
O2    C2    1.290679 A    
N4    O12   1.299882 A    
N13   O22   1.300076 A    
C25   H6    1.109503 S    
C26   H9    1.111072 S    
C5    C10   1.405319 A    
C22   N14   1.428232 S    
C7    C14   1.423546 A    
C8    C13   1.420498 A    
C16   N10   1.439307 S    
N14   O23   1.300553 A    
O4    C2    1.299561 A    
N3    O9    1.301065 A    
C27   H13   1.106363 S    
N5    H3    1.030385 S    
C23   N1    1.360292 A    
N6    H7    1.031243 S    
N8    O15   1.301439 A    
N6    C26   1.450912 S    
C22   C24   1.416376 A    
O7    Cu2   1.960712 S    
Cu2   N2    2.019154 S    
O7    C3    1.292236 A    
C3    C6    1.451448 S    
C25   H4    1.110555 S    
C4    C5    1.454131 S    
O6    C4    1.293998 A    
C22   N1    1.379307 A    
N12   C28   1.449654 S    
O3    Cu2   1.965579 S    
O8    C4    1.291538 A    
C8    N8    1.436512 S    
C11   C13   1.410975 A    
C12   C14   1.414299 A    
O1    Cu1   1.974550 S    
N4    O11   1.301184 A    
C1    C20   1.459597 S    
C28   H18   1.109555 S    
C15   C20   1.405750 A    
O6    Cu2   1.954925 S    
C24   N2    1.359266 A    
N9    O17   1.300819 A    
O3    C1    1.301160 A    
O8    Cu1   1.960712 S    
C27   H14   1.108119 S    
C15   C17   1.399224 A    
C16   C18   1.397609 A    
C21   N13   1.427238 S    
C21   N2    1.378698 A    
C18   C20   1.414142 A    
C27   H12   1.107951 S    
N7    O13   1.301392 A    
C6    C9    1.401064 A    
C12   N3    1.435783 S    
C23   H1    1.081247 S    
C24   H2    1.079496 S    
N11   H11   1.031250 S    
O2    Cu2   1.974551 S    
C11   N4    1.437883 S    
C9    N6    1.426909 S    
O5    Cu1   1.954926 S    
C2    C19   1.460146 S    
N3    O10   1.301295 A    
C16   C19   1.408918 A    
C18   N12   1.425502 S    
C7    N7    1.435364 S    
