data_mof_unit_52500.cif
_audit_creation_date              2012-10-26T19:55:48-0400
_audit_creation_method            fapswitch 2.2
_symmetry_space_group_name_H-M    P1
_symmetry_Int_Tables_number       1
_space_group_crystal_system       triclinic
_cell_length_a                    10.814597
_cell_length_b                    10.786677
_cell_length_c                    9.624136
_cell_angle_alpha                 90.117695
_cell_angle_beta                  88.852825
_cell_angle_gamma                 94.535321
_cell_volume                      1118.9499349

loop_
_atom_site_label
_atom_site_type_symbol
_atom_type_description
_atom_site_fract_x
_atom_site_fract_y
_atom_site_fract_z
_atom_type_partial_charge
C1    C     C_R   0.493150 0.262662 0.500136 0.524753
C2    C     C_R   0.805927 0.406086 0.986904 -0.155268
C3    C     C_R   0.725557 0.298911 0.976972 -0.077254
C4    C     C_R   0.262371 0.500744 0.500622 0.528993
C5    C     C_R   0.713475 0.235224 0.850059 0.041548
C6    C     C_R   0.784874 0.279146 0.734310 -0.071322
C7    C     C_R   0.864856 0.388019 0.744020 0.052826
C8    C     C_R   0.288884 0.112377 0.639579 -0.057635
C9    C     C_R   0.192791 0.039371 0.707386 0.165379
C10   C     C_R   0.195174 0.909887 0.706621 -0.119807
C11   C     C_R   0.292143 0.853721 0.640702 -0.143918
C12   C     C_R   0.251869 0.695295 0.021109 -0.100083
C13   C     C_R   0.389962 0.925866 0.573051 0.020250
C14   C     C_R   0.388349 0.056970 0.572525 -0.003154
C15   C     C_R   0.484319 0.128508 0.499998 -0.008430
C16   C     C_R   0.496401 0.737218 0.500289 0.514880
C17   C     C_R   0.576075 0.071741 0.425883 -0.156549
C18   C     C_R   0.577689 0.944353 0.426808 -0.164519
C19   C     C_R   0.487282 0.870783 0.501112 0.003967
C20   C     C_R   0.629904 0.704444 0.134168 0.180611
C21   C     C_R   0.638022 0.815694 0.057648 -0.106415
C22   C     C_R   0.654868 0.807096 0.915256 -0.169661
C23   C     C_R   0.936851 0.504040 0.376937 -0.170094
C24   C     C_R   0.632497 0.692630 0.851523 -0.094344
C25   C     C_R   0.565402 0.595008 0.923154 0.133236
C26   C     C_R   0.565423 0.597154 0.072351 0.177119
C27   C     C_R   0.438142 0.408220 0.075051 0.003512
C28   C     C_R   0.736317 0.489498 0.499379 0.537638
C29   C     C_R   0.438335 0.408284 0.927393 0.006501
C30   C     C_R   0.255313 0.756592 0.149150 -0.095009
C31   C     C_R   0.192745 0.701868 0.264818 -0.064139
C32   C     C_R   0.127312 0.584369 0.253424 0.053595
C33   C     C_R   0.122993 0.524068 0.123930 -0.107458
C34   C     C_R   0.869357 0.474337 0.498554 -0.008856
C35   C     C_R   0.185369 0.579509 0.008436 -0.129126
C36   C     C_2   0.624146 0.125447 0.835711 0.200287
C37   C     C_3   0.118504 0.180159 0.882163 -0.311382
C38   C     C_3   0.851721 0.739048 0.183776 -0.348004
C39   C     C_R   0.931580 0.440379 0.618879 -0.017999
C40   C     C_R   0.060667 0.452315 0.618000 -0.151060
C41   C     C_R   0.127666 0.496683 0.499843 -0.007681
C42   C     C_R   0.064642 0.524638 0.377804 -0.032579
C43   C     C_R   0.875503 0.450731 0.871365 -0.119747
Cu1   Cu    Cu3+1 0.499990 0.499990 0.640660 0.909015
Cu2   Cu    Cu3+1 0.500010 0.500010 0.359340 0.946284
H1    H     H_    0.301246 0.737185 0.931922 0.134876
H2    H     H_    0.307001 0.846193 0.158987 0.129095
H3    H     H_    0.668244 0.902859 0.107015 0.139634
H4    H     H_    0.695369 0.885840 0.856405 0.125366
H5    H     H_    0.667586 0.683977 0.747561 0.179845
H6    H     H_    0.388587 0.332623 0.873439 0.125044
H7    H     H_    0.196442 0.750085 0.363639 0.096100
H8    H     H_    0.073262 0.433516 0.113093 0.098434
H9    H     H_    0.183505 0.532076 0.909429 0.107697
H10   H     H_    0.889430 0.519992 0.282624 0.149973
H11   H     H_    0.108740 0.424552 0.708926 0.120346
H12   H     H_    0.671508 0.267111 0.067834 0.155636
H13   H     H_    0.934797 0.535979 0.879978 0.102737
H14   H     H_    0.811577 0.456327 0.083489 0.129006
H15   H     H_    0.621893 0.072477 0.739807 0.106629
H16   H     H_    0.013626 0.033998 0.790688 0.240648
H17   H     H_    0.031850 0.217078 0.922808 0.144374
H18   H     H_    0.181353 0.260140 0.846254 0.133212
H19   H     H_    0.162257 0.131306 0.967630 0.150989
H20   H     H_    0.709906 0.722803 0.327999 0.266929
H21   H     H_    0.918512 0.729191 0.267861 0.141372
H22   H     H_    0.856648 0.840227 0.161733 0.127869
H23   H     H_    0.775490 0.231187 0.635515 0.081004
H24   H     H_    0.881233 0.688063 0.089999 0.156752
H25   H     H_    0.649031 0.126780 0.369797 0.122967
H26   H     H_    0.282655 0.211877 0.635556 0.127718
H27   H     H_    0.120905 0.851842 0.756462 0.099466
H28   H     H_    0.287687 0.753330 0.640820 0.140122
H29   H     H_    0.652340 0.904502 0.371561 0.101281
H30   H     H_    0.386982 0.333072 0.130751 0.127955
N1    N     N_R   0.501190 0.501210 0.147910 -0.239249
N2    N     N_R   0.501230 0.501290 0.852040 -0.242851
N3    N     N_2   0.089660 0.095237 0.768702 -0.522744
N4    N     N_2   0.727637 0.691568 0.229610 -0.487145
O1    O     O_R   0.499990 0.319640 0.618810 -0.506527
O2    O     O_R   0.500000 0.319660 0.381240 -0.504729
O3    O     O_R   0.319640 0.500000 0.618780 -0.528036
O4    O     O_R   0.319650 0.500020 0.381210 -0.481998
O5    O     O_R   0.500000 0.680340 0.618760 -0.523108
O6    O     O_R   0.500010 0.680360 0.381190 -0.500293
O7    O     O_R   0.680350 0.499980 0.618790 -0.507073
O8    O     O_R   0.680360 0.500000 0.381220 -0.488434
O9    O     O_2   0.551464 0.093269 0.930010 -0.539792

loop_
_geom_bond_atom_site_label_1
_geom_bond_atom_site_label_2
_ccdc_geom_bond_type
H20   N4    S    
C27   C29   A    
C41   C42   A    
C31   H7    S    
C37   H17   S    
C36   O9    D    
C23   C42   A    
Cu2   N1    S    
C25   N2    A    
C7    C39   S    
Cu1   N2    S    
Cu2   O8    S    
Cu1   O3    S    
C5    C6    A    
C27   H30   S    
C38   N4    S    
C1    O2    A    
C5    C36   S    
C16   O5    A    
C18   C19   A    
C43   H13   S    
C38   H21   S    
C8    C9    A    
C40   H11   S    
C26   N1    A    
C1    C15   S    
C7    C43   A    
C9    C10   A    
H16   N3    S    
C21   H3    S    
C6    H23   S    
C38   H24   S    
C28   C34   S    
C17   H25   S    
C18   H29   S    
C13   C14   A    
C35   H9    S    
C24   H5    S    
Cu2   O4    S    
Cu1   O7    S    
C37   H18   S    
C33   H8    S    
C13   C19   A    
C34   C39   A    
C30   H2    S    
Cu1   O1    S    
C24   C25   A    
C12   H1    S    
C11   H28   S    
C39   C40   A    
C2    H14   S    
C3    C5    A    
C25   C26   A    
Cu2   O6    S    
C31   C32   A    
C2    C43   A    
C23   C34   A    
C28   O8    A    
C17   C18   A    
C4    O3    A    
C38   H22   S    
C12   C35   A    
C22   H4    S    
C3    H12   S    
C40   C41   A    
C28   O7    A    
C16   O6    A    
C22   C24   A    
C27   N1    A    
C37   H19   S    
Cu1   Cu2   S    
C29   H6    S    
C15   C17   A    
C8    H26   S    
C8    C14   A    
C20   N4    S    
C12   C30   A    
Cu2   O2    S    
C36   H15   S    
C23   H10   S    
C6    C7    A    
C37   N3    S    
Cu1   O5    S    
C32   C33   A    
C2    C3    A    
C11   C13   A    
C30   C31   A    
C4    O4    A    
C20   C26   A    
C16   C19   S    
C33   C35   A    
C9    N3    S    
C10   C11   A    
C29   N2    A    
C20   C21   A    
C4    C41   S    
C1    O1    A    
C32   C42   S    
C14   C15   A    
C21   C22   A    
C10   H27   S    
