data_mof_unit_25841.cif
_audit_creation_date              2012-10-26T20:37:57-0400
_audit_creation_method            fapswitch 2.2
_symmetry_space_group_name_H-M    P1
_symmetry_Int_Tables_number       1
_space_group_crystal_system       triclinic
_cell_length_a                    9.88501
_cell_length_b                    11.17692
_cell_length_c                    12.987071
_cell_angle_alpha                 88.939793
_cell_angle_beta                  76.722414
_cell_angle_gamma                 110.729755
_cell_volume                      1298.22471337

loop_
_atom_site_label
_atom_site_type_symbol
_atom_type_description
_atom_site_fract_x
_atom_site_fract_y
_atom_site_fract_z
_atom_type_partial_charge
C1    C     C_R   0.440219 0.255218 0.510566 0.590753
C2    C     C_R   0.606981 0.675710 0.026379 0.044911
C3    C     C_R   0.346088 0.373159 0.880932 -0.001051
C4    C     C_R   0.609441 0.653574 0.132777 0.009153
C5    C     C_R   0.554627 0.580096 0.861433 0.036374
C6    C     C_R   0.462228 0.424747 0.135451 0.033360
C7    C     C_R   0.536164 0.570011 0.973023 -0.034436
C8    C     C_R   0.444831 0.449192 0.033245 -0.035189
C9    C     C_2   0.408939 0.118608 0.508743 -0.069510
C10   C     C_2   0.590191 0.881533 0.492212 -0.074501
C11   C     C_2   0.509292 0.065221 0.517691 0.033529
C12   C     C_R   0.559668 0.744892 0.489531 0.568512
C13   C     C_2   0.487702 0.933986 0.486962 0.039170
C14   C     C_2   0.420448 0.290552 0.183721 0.593687
C15   C     C_2   0.681721 0.686300 0.789976 0.613486
C16   C     C_2   0.681011 0.762781 0.190440 0.621415
C17   C     C_2   0.238609 0.274302 0.834017 0.589431
C18   C     C_2   0.209559 0.249157 0.059157 0.656626
C19   C     C_2   0.662346 0.811128 0.977291 0.643007
C20   C     C_2   0.354503 0.864017 0.447453 0.581625
C21   C     C_2   0.637846 0.133735 0.562453 0.589322
C22   C     C_2   0.076948 0.495518 0.482632 0.207980
C23   C     C_2   0.923148 0.504737 0.517482 0.200940
C24   C     C_R   0.473929 0.493206 0.702068 0.597415
C25   C     C_R   0.526165 0.507773 0.298338 0.573777
C26   C     C_R   0.539802 0.527692 0.185339 -0.041176
C27   C     C_R   0.458877 0.481737 0.816534 -0.030281
C28   C     C_R   0.338459 0.356570 0.989736 -0.020980
Cu1   Cu    Cu3+1 0.647370 0.522180 0.481340 1.096874
Cu2   Cu    Cu3+1 0.352630 0.477820 0.518660 1.112360
H1    H     H_    0.695248 0.936586 0.509853 0.137018
H2    H     H_    0.831254 0.983867 0.939961 0.365278
H3    H     H_    0.129513 0.782934 0.480469 0.328428
H4    H     H_    0.862262 0.208999 0.538815 0.327776
H5    H     H_    0.899083 0.517531 0.675019 0.248411
H6    H     H_    0.823245 0.366306 0.643168 0.238735
H7    H     H_    0.103443 0.484125 0.324765 0.248064
H8    H     H_    0.175683 0.635178 0.358007 0.241440
H9    H     H_    0.305432 0.064306 0.488544 0.128488
H10   H     H_    0.931032 0.586303 0.376063 0.208523
H11   H     H_    0.068369 0.412440 0.623643 0.195622
H12   H     H_    0.300893 0.153505 0.306902 0.346833
H13   H     H_    0.749876 0.833230 0.674434 0.344664
H14   H     H_    0.842647 0.845166 0.265719 0.357859
H15   H     H_    0.024287 0.181656 0.830298 0.345698
H16   H     H_    0.265535 0.110309 0.984167 0.342415
N1    N     N_2   0.131210 0.444490 0.546730 -0.311854
N2    N     N_2   0.868790 0.555510 0.453270 -0.315104
N3    N     N_3   0.838125 0.462027 0.625363 -0.515381
N4    N     N_3   0.162811 0.539830 0.375136 -0.512468
O1    O     O_R   0.578710 0.332530 0.490040 -0.467578
O2    O     O_R   0.322164 0.247078 0.284541 -0.645740
O3    O     O_2   0.809755 0.705250 0.794610 -0.471329
O4    O     O_R   0.654542 0.764288 0.718101 -0.660071
O5    O     O_2   0.634723 0.850842 0.202495 -0.426583
O6    O     O_R   0.803178 0.765799 0.228645 -0.639956
O7    O     O_2   0.284320 0.215515 0.764536 -0.484120
O8    O     O_R   0.085560 0.248849 0.869703 -0.644931
O9    O     O_2   0.124958 0.273728 0.132619 -0.402920
O10   O     O_R   0.183676 0.120585 0.042310 -0.578434
O11   O     O_2   0.579895 0.849822 0.940749 -0.439814
O12   O     O_R   0.421290 0.667470 0.509960 -0.462026
O13   O     O_R   0.807651 0.894218 0.974210 -0.599386
O14   O     O_2   0.369850 0.848535 0.353233 -0.466736
O15   O     O_R   0.212267 0.821132 0.517613 -0.673657
O16   O     O_2   0.615135 0.154043 0.655835 -0.472535
O17   O     O_R   0.783629 0.172366 0.497959 -0.680201
O18   O     O_R   0.329810 0.295070 0.521560 -0.466312
O19   O     O_R   0.670190 0.704930 0.478440 -0.494097
O20   O     O_R   0.604230 0.515670 0.637800 -0.447836
O21   O     O_R   0.395770 0.484330 0.362200 -0.433501
O22   O     O_R   0.355330 0.478200 0.669330 -0.489726
O23   O     O_R   0.644670 0.521800 0.330670 -0.475645
O24   O     O_2   0.470835 0.217583 0.133558 -0.453897

loop_
_geom_bond_atom_site_label_1
_geom_bond_atom_site_label_2
_ccdc_geom_bond_type
H4    O17   S    
H5    N3    S    
Cu2   O22   S    
C12   O19   A    
C16   O6    S    
C18   C28   S    
C20   O14   D    
Cu1   Cu2   S    
H8    N4    S    
C21   O16   D    
C6    C14   S    
C9    C11   D    
C18   O9    D    
H13   O4    S    
C2    C4    A    
C2    C7    A    
C24   C27   S    
C9    H9    S    
C17   O8    S    
C22   N4    S    
C3    C27   A    
Cu2   O21   S    
H11   N1    S    
C16   O5    D    
C24   O20   A    
C7    C8    A    
C5    C27   A    
C21   O17   S    
H7    N4    S    
C1    O1    A    
C6    C26   A    
C3    C17   S    
C10   C12   S    
C19   O11   D    
C25   O21   A    
C14   O24   D    
Cu1   O23   S    
C18   O10   S    
C3    C28   A    
C22   N1    D    
C25   O23   A    
Cu2   O12   S    
C8    C28   A    
Cu2   O18   S    
C4    C26   A    
C23   N3    S    
C5    C15   S    
C12   O12   A    
C4    C16   S    
Cu1   N2    S    
H3    O15   S    
H15   O8    S    
C15   O4    S    
C15   O3    D    
C20   O15   S    
C11   C13   S    
C1    O18   A    
C1    C9    S    
C24   O22   A    
C5    C7    A    
Cu1   O20   S    
Cu1   O1    S    
C19   O13   S    
H10   N2    S    
Cu1   O19   S    
H14   O6    S    
C22   C23   S    
C6    C8    A    
C23   N2    D    
C13   C20   S    
H16   O10   S    
C25   C26   S    
C2    C19   S    
Cu2   N1    S    
C10   H1    S    
C11   C21   S    
C14   O2    S    
H6    N3    S    
H2    O13   S    
C17   O7    D    
C10   C13   D    
H12   O2    S    
