data_mof_unit_20378.cif
_audit_creation_date              2013-03-05T16:48:42-0500
_audit_creation_method            fapswitch 2.2
_symmetry_space_group_name_H-M    P1
_symmetry_Int_Tables_number       1
_space_group_crystal_system       triclinic
_cell_length_a                    27.722624
_cell_length_b                    8.941795
_cell_length_c                    8.090715
_cell_angle_alpha                 90.001219
_cell_angle_beta                  89.987262
_cell_angle_gamma                 90.020861
_cell_volume                      2005.60732563

loop_
_atom_site_label
_atom_site_type_symbol
_atom_site_description
_atom_site_fract_x
_atom_site_fract_y
_atom_site_fract_z
_atom_type_partial_charge
O1    O     O_R   0.500000 0.285350 0.636850 -0.613743
O2    O     O_R   0.500000 0.714650 0.363150 -0.613745
O3    O     O_R   0.500000 0.714650 0.636850 -0.613747
O4    O     O_R   0.500000 0.285350 0.363150 -0.613741
C1    C     C_R   0.499998 0.217918 0.499999 0.946057
C2    C     C_R   0.500002 0.782081 0.500001 0.946050
O5    O     O_R   0.428760 0.500000 0.636860 -0.623686
O6    O     O_R   0.571240 0.500000 0.363140 -0.623714
O7    O     O_R   0.571240 0.500000 0.636860 -0.623647
O8    O     O_R   0.428760 0.500000 0.363140 -0.623700
C3    C     C_R   0.405698 0.499961 0.500015 0.871318
C4    C     C_R   0.594303 0.500053 0.499976 0.871307
Zn1   Zn    Zn3+2 0.500000 0.500000 0.682780 0.996712
Zn2   Zn    Zn3+2 0.500000 0.500000 0.317220 0.996695
C5    C     C_R   0.177319 0.370153 0.535117 0.533700
C6    C     C_R   0.822639 0.630795 0.534585 0.534605
C7    C     C_R   0.177487 0.629707 0.464351 0.533632
C8    C     C_R   0.822557 0.371253 0.463737 0.532780
O9    O     O_2   0.202898 0.245148 0.567452 -0.469775
O10   O     O_2   0.797012 0.755689 0.567028 -0.469333
O11   O     O_2   0.203226 0.754552 0.432426 -0.469796
O12   O     O_2   0.796866 0.246320 0.431806 -0.470173
N1    N     N_R   0.201134 0.499847 0.499885 -0.374630
N2    N     N_R   0.798870 0.501033 0.499320 -0.374651
C9    C     C_R   0.277534 0.504055 0.350043 -0.097983
C10   C     C_R   0.722460 0.496522 0.349677 -0.098006
C11   C     C_R   0.277493 0.495278 0.649912 -0.097980
C12   C     C_R   0.722524 0.505226 0.649549 -0.097886
C13   C     C_R   0.327643 0.504044 0.349848 -0.201918
C14   C     C_R   0.672351 0.496278 0.349620 -0.201837
C15   C     C_R   0.327608 0.495466 0.650169 -0.202039
C16   C     C_R   0.672409 0.504782 0.649940 -0.202067
C17   C     C_R   0.252523 0.499649 0.499957 0.301804
C18   C     C_R   0.747481 0.501030 0.499524 0.301778
C19   C     C_R   0.101445 0.500207 0.499217 -0.202526
C20   C     C_R   0.898556 0.500953 0.498740 -0.202516
C21   C     C_R   0.126694 0.366744 0.535160 -0.129090
C22   C     C_R   0.873270 0.634368 0.534621 -0.128558
C23   C     C_R   0.126871 0.633457 0.463552 -0.129704
C24   C     C_R   0.873169 0.367657 0.462970 -0.130110
C25   C     C_R   0.100635 0.235049 0.571435 0.593580
C26   C     C_R   0.899284 0.766139 0.570955 0.593885
C27   C     C_R   0.100992 0.765254 0.426565 0.594140
C28   C     C_R   0.899091 0.235919 0.426068 0.593604
C29   C     C_R   0.353003 0.499830 0.500023 -0.041307
C30   C     C_R   0.647001 0.500336 0.499863 -0.041332
H1    H     H_    0.346382 0.492123 0.767493 0.162848
H2    H     H_    0.653644 0.508009 0.767314 0.162839
H3    H     H_    0.346442 0.507470 0.232540 0.162878
H4    H     H_    0.653545 0.492795 0.232357 0.162883
H5    H     H_    0.257989 0.492098 0.765857 0.132271
H6    H     H_    0.742040 0.508462 0.765443 0.132338
H7    H     H_    0.258060 0.507253 0.234071 0.132237
H8    H     H_    0.741925 0.493440 0.233651 0.132203
C31   C     C_R   0.974720 0.364109 0.486834 0.018234
C32   C     C_R   0.025292 0.637120 0.486912 0.018430
C33   C     C_R   0.974844 0.637335 0.510228 0.019224
C34   C     C_R   0.025145 0.363898 0.510414 0.018915
C35   C     C_R   0.949426 0.500805 0.498629 0.067963
C36   C     C_R   0.050576 0.500409 0.498868 0.067937
C37   C     C_R   0.949044 0.233118 0.447981 -0.345735
C38   C     C_R   0.051011 0.768100 0.448248 -0.345222
C39   C     C_R   0.949264 0.768591 0.548596 -0.345667
C40   C     C_R   0.050681 0.232645 0.549038 -0.345859
H9    H     H_    0.967402 0.128608 0.424972 0.153845
H10   H     H_    0.032673 0.872642 0.425352 0.153472
H11   H     H_    0.967733 0.873113 0.570477 0.152407
H12   H     H_    0.032197 0.128182 0.571274 0.152828
C41   C     C_1   0.499999 0.065158 0.499998 -0.182624
C42   C     C_1   0.500000 0.934842 0.500002 -0.182619
N3    N     N_1   0.500000 0.500000 0.073640 -0.035548
N4    N     N_1   0.500000 0.500000 0.926360 -0.035542
O13   O     O_3   0.124128 0.105405 0.618295 -0.498134
C43   C     C_3   0.115350 0.078673 0.787432 -0.246764
H13   H     H_    0.076974 0.048739 0.809979 0.120954
H14   H     H_    0.125992 0.176314 0.864816 0.139786
H15   H     H_    0.137624 0.982055 0.826948 0.197730
O14   O     O_3   0.875656 0.895725 0.617467 -0.497381
C44   C     C_3   0.885450 0.925595 0.785315 -0.246813
H16   H     H_    0.923588 0.960378 0.803529 0.122630
H17   H     H_    0.876640 0.827898 0.865303 0.137131
H18   H     H_    0.862344 0.020083 0.825568 0.197848
O15   O     O_3   0.124677 0.894469 0.379179 -0.497751
C45   C     C_3   0.116128 0.920319 0.209755 -0.246346
H19   H     H_    0.126278 0.821623 0.133209 0.138753
H20   H     H_    0.138941 0.015505 0.169406 0.198184
H21   H     H_    0.077924 0.952009 0.186894 0.121616
O16   O     O_3   0.875529 0.106602 0.378468 -0.498376
C46   C     C_3   0.883292 0.083066 0.208195 -0.245966
H22   H     H_    0.871375 0.181095 0.133704 0.141466
H23   H     H_    0.861455 0.985436 0.168670 0.197981
H24   H     H_    0.921720 0.056442 0.181822 0.119810

loop_
_geom_bond_atom_site_label_1
_geom_bond_atom_site_label_2
_geom_bond_distance
_ccdc_geom_bond_type
C31   C35   1.412611 A    
C27   O15   1.382920 S    
Zn2   N3    1.970736 S    
C45   H21   1.112000 S    
C20   C35   1.410259 A    
C13   H3    1.083113 S    
C11   C17   1.397524 A    
O5    C3    1.278624 A    
C7    N1    1.364325 A    
C43   H14   1.114086 S    
O1    C1    1.260746 A    
C40   H12   1.080316 S    
C19   C21   1.414012 A    
C45   H20   1.109280 S    
C22   C26   1.412187 A    
C33   C35   1.412495 A    
C34   C36   1.412491 A    
C32   C33   1.411174 A    
C7    C23   1.403654 A    
O7    Zn1   2.009518 S    
C5    C21   1.403764 A    
C1    C41   1.365950 S    
C5    O9    1.349589 S    
C10   C18   1.397481 A    
N1    C17   1.424657 S    
C43   H15   1.109248 S    
C8    N2    1.364269 A    
C46   H23   1.109301 S    
C24   C28   1.411979 A    
O3    Zn1   1.955006 S    
C6    O10   1.349569 S    
O3    C2    1.260748 A    
C5    N1    1.364329 A    
C14   H4    1.083097 S    
C12   C18   1.397528 A    
C6    N2    1.364352 A    
C15   H1    1.083088 S    
C34   C40   1.406043 A    
C16   H2    1.083074 S    
O2    C2    1.260746 A    
C10   H8    1.083034 S    
C11   H5    1.083024 S    
C33   C39   1.406146 A    
O13   C43   1.410249 S    
C9    C13   1.389165 A    
C39   H11   1.080133 S    
C43   H13   1.111966 S    
C38   H10   1.080276 S    
C11   C15   1.389302 A    
C12   C16   1.389324 A    
C45   H19   1.114294 S    
C4    C30   1.460923 S    
O8    Zn2   2.009520 S    
C44   H17   1.114190 S    
O14   C44   1.410439 S    
C23   C27   1.412036 A    
N2    C18   1.424636 S    
C32   C36   1.412681 A    
C13   C29   1.404416 A    
C19   C36   1.410244 A    
C19   C23   1.413878 A    
O15   C45   1.410238 S    
C20   C24   1.413913 A    
O6    C4    1.278579 A    
C46   H24   1.112278 S    
C10   C14   1.389160 A    
C32   C38   1.406147 A    
C3    C29   1.460846 S    
O1    Zn1   1.954991 S    
C2    C42   1.365950 S    
O6    Zn2   2.009680 S    
C8    O12   1.349611 S    
C16   C30   1.404441 A    
C14   C30   1.404447 A    
C9    H7    1.083007 S    
O4    C1    1.260748 A    
C44   H18   1.109290 S    
C26   O14   1.383374 S    
Zn1   N4    1.970736 S    
C28   C37   1.396407 A    
C20   C22   1.413979 A    
N3    N4    1.191600 T    
O4    Zn2   1.955007 S    
C12   H6    1.083040 S    
C31   C37   1.406019 A    
C21   C25   1.412112 A    
C41   C42   1.165263 T    
O2    Zn2   1.954990 S    
O7    C4    1.278674 A    
C7    O11   1.349608 S    
O8    C3    1.278595 A    
C25   O13   1.382915 S    
C44   H16   1.111821 S    
C37   H9    1.080398 S    
O5    Zn1   2.009683 S    
C8    C24   1.403498 A    
O16   C46   1.410099 S    
C15   C29   1.404457 A    
C31   C34   1.410893 A    
C9    C17   1.397514 A    
C25   C40   1.396871 A    
C46   H22   1.114014 S    
C28   O16   1.382612 S    
C26   C39   1.397466 A    
C27   C38   1.396862 A    
C6    C22   1.403968 A    
