data_mof_unit_40131.cif
_audit_creation_date              2012-12-11T14:21:04-0500
_audit_creation_method            fapswitch 2.2
_symmetry_space_group_name_H-M    P1
_symmetry_Int_Tables_number       1
_space_group_crystal_system       triclinic
_cell_length_a                    21.97269
_cell_length_b                    7.206756
_cell_length_c                    14.934
_cell_angle_alpha                 89.538476
_cell_angle_beta                  106.947292
_cell_angle_gamma                 89.843555
_cell_volume                      2262.02418225

loop_
_atom_site_label
_atom_site_type_symbol
_atom_type_description
_atom_site_fract_x
_atom_site_fract_y
_atom_site_fract_z
_atom_type_partial_charge
O1    O     O_R   0.584770 0.505770 0.002090 -0.543763
O2    O     O_R   0.415230 0.005770 0.997910 -0.544172
O3    O     O_R   0.467060 0.173340 0.861950 -0.543886
O4    O     O_R   0.532940 0.673340 0.138050 -0.543773
C1    C     C_R   0.455230 0.345222 0.826069 0.673775
C2    C     C_R   0.544861 0.843302 0.174064 0.674264
O5    O     O_R   0.587510 0.175890 0.993210 -0.496697
O6    O     O_R   0.412490 0.675890 0.006790 -0.495869
O7    O     O_R   0.536540 0.008150 0.130100 -0.539922
O8    O     O_R   0.463460 0.508150 0.869900 -0.539061
C3    C     C_R   0.613046 0.344438 0.997538 0.765186
C4    C     C_R   0.386950 0.844751 0.002508 0.766373
O9    O     O_3   0.483140 0.340040 0.044760 -0.374926
O10   O     O_3   0.516860 0.840040 0.955240 -0.375250
V1    V     V_3+5 0.503130 0.064190 0.991700 1.516452
V2    V     V_3+5 0.496870 0.564190 0.008300 1.518559
C5    C     C_2   0.213847 0.727527 0.003731 -0.216031
C6    C     C_2   0.786624 0.227942 0.997357 -0.214770
C7    C     C_2   0.180159 0.886803 0.995977 -0.394013
C8    C     C_2   0.819812 0.387331 0.004075 -0.395300
H1    H     H_    0.190724 0.597210 0.010248 0.176253
H2    H     H_    0.810186 0.097746 0.991729 0.177179
H3    H     H_    0.201500 0.018872 0.988137 0.151615
H4    H     H_    0.798082 0.519292 0.011167 0.152429
C9    C     C_2   0.281459 0.712437 0.002736 0.628365
C10   C     C_2   0.719051 0.212265 0.998432 0.626423
C11   C     C_2   0.319748 0.859661 0.003739 -0.401811
C12   C     C_2   0.680214 0.359216 0.996234 -0.400499
H5    H     H_    0.301911 0.999352 0.005485 0.118062
H6    H     H_    0.697615 0.498935 0.993519 0.118287
C13   C     C_R   0.926884 0.892628 0.723972 -0.028069
C14   C     C_R   0.073186 0.381144 0.275590 -0.025031
C15   C     C_R   0.573126 0.846069 0.275568 -0.028723
C16   C     C_R   0.426800 0.357518 0.724867 -0.025214
C17   C     C_R   0.934611 0.959483 0.569141 -0.161565
C18   C     C_R   0.063478 0.319349 0.429704 -0.160540
C19   C     C_R   0.963160 0.943318 0.665124 -0.169382
C20   C     C_R   0.035441 0.341799 0.333872 -0.172297
C21   C     C_R   0.861756 0.858777 0.686848 -0.210846
C22   C     C_R   0.139097 0.397745 0.312881 -0.209652
C23   C     C_R   0.830964 0.879609 0.589687 0.082208
C24   C     C_R   0.169111 0.373116 0.409945 0.082544
C25   C     C_R   0.869009 0.930123 0.531173 0.139239
C26   C     C_R   0.129721 0.333566 0.468022 0.139192
C27   C     C_R   0.763857 0.855972 0.549113 0.057556
C28   C     C_R   0.236586 0.384146 0.450913 0.056973
C29   C     C_R   0.736125 0.883185 0.450448 0.056916
C30   C     C_R   0.263387 0.355075 0.549572 0.057270
C31   C     C_R   0.776448 0.932164 0.395654 -0.184847
C32   C     C_R   0.221829 0.316534 0.603933 -0.182863
C33   C     C_R   0.841372 0.954456 0.435361 -0.198808
C34   C     C_R   0.156541 0.306500 0.563810 -0.198903
C35   C     C_R   0.723528 0.807129 0.603916 -0.183551
C36   C     C_R   0.278142 0.422744 0.396556 -0.183461
C37   C     C_R   0.658607 0.784799 0.564208 -0.196986
C38   C     C_R   0.343435 0.432638 0.436672 -0.197278
C39   C     C_R   0.630979 0.808950 0.468384 0.139350
C40   C     C_R   0.370260 0.405404 0.532450 0.138388
C41   C     C_R   0.669025 0.859425 0.409866 0.079347
C42   C     C_R   0.330865 0.365971 0.590532 0.079869
C43   C     C_R   0.565384 0.779461 0.430412 -0.160686
C44   C     C_R   0.436513 0.419325 0.570754 -0.159714
C45   C     C_R   0.536845 0.795451 0.334419 -0.169564
C46   C     C_R   0.464554 0.396684 0.666576 -0.171896
C47   C     C_R   0.638244 0.880058 0.312693 -0.210168
C48   C     C_R   0.360878 0.341255 0.687591 -0.206484
H7    H     H_    0.870245 0.993080 0.390435 0.125827
H8    H     H_    0.126677 0.276060 0.608435 0.124568
H9    H     H_    0.663487 0.915455 0.263074 0.113570
H10   H     H_    0.334729 0.312857 0.736898 0.108283
H11   H     H_    0.486575 0.766359 0.305818 0.109718
H12   H     H_    0.515599 0.411107 0.695410 0.107451
H13   H     H_    0.629729 0.746264 0.609142 0.126894
H14   H     H_    0.373302 0.463058 0.392047 0.127324
H15   H     H_    0.963644 0.999113 0.524640 0.112672
H16   H     H_    0.033381 0.288549 0.473905 0.112697
H17   H     H_    0.013434 0.972349 0.693724 0.107649
H18   H     H_    0.984406 0.327150 0.305028 0.106998
H19   H     H_    0.836516 0.823323 0.736462 0.100326
H20   H     H_    0.165240 0.426329 0.263584 0.097990
H21   H     H_    0.759519 0.955516 0.321257 0.134000
H22   H     H_    0.237997 0.292567 0.678321 0.131628
H23   H     H_    0.740447 0.783948 0.678325 0.128707
H24   H     H_    0.261970 0.446817 0.322175 0.129882
H25   H     H_    0.536350 0.739873 0.474918 0.112992
H26   H     H_    0.466616 0.450027 0.526550 0.113069
O11   O     O_R   0.036450 0.233070 0.130130 -0.538368
O12   O     O_R   0.963550 0.733070 0.869870 -0.538971
O13   O     O_R   0.912470 0.560570 0.006790 -0.542810
O14   O     O_R   0.087530 0.060570 0.993210 -0.542517
C49   C     C_R   0.887018 0.392176 0.002628 0.767137
C50   C     C_R   0.112980 0.891864 0.997398 0.768221
O15   O     O_R   0.032920 0.562940 0.138050 -0.540053
O16   O     O_R   0.967080 0.062940 0.861950 -0.540251
O17   O     O_R   0.084790 0.730500 0.002090 -0.538531
O18   O     O_R   0.915210 0.230500 0.997910 -0.538003
C51   C     C_R   0.044748 0.393468 0.174390 0.683874
C52   C     C_R   0.955154 0.895423 0.825481 0.683924
O19   O     O_3   0.016820 0.396170 0.955260 -0.379652
O20   O     O_3   0.983180 0.896170 0.044740 -0.379449
V3    V     V_3+5 0.996880 0.672090 0.008300 1.427028
V4    V     V_3+5 0.003120 0.172090 0.991700 1.428416
F1    F     F_    0.304456 0.537254 0.001697 -0.683647
F2    F     F_    0.696692 0.037012 0.000859 -0.684394

loop_
_geom_bond_atom_site_label_1
_geom_bond_atom_site_label_2
_ccdc_geom_bond_type
C40   C44   A    
O18   V4    S    
C11   H5    S    
C6    C10   S    
O2    C4    A    
C16   C48   A    
C2    O7    A    
C36   H24   S    
O12   V3    S    
C15   C47   A    
C21   C23   A    
O5    C3    A    
C44   H26   S    
C13   C52   S    
C17   H15   S    
C17   C19   A    
C39   C41   A    
O16   C52   A    
C40   C42   A    
C14   C51   S    
C24   C28   A    
C27   C29   A    
C31   H21   S    
C43   C45   A    
O14   V4    S    
C44   C46   A    
C7    C50   S    
C18   H16   S    
C10   F2    S    
C49   O18   A    
C8    H4    S    
C13   C21   A    
C31   C33   A    
O1    C3    A    
C32   C34   A    
C22   H20   S    
C14   C20   A    
O13   C49   A    
C17   C25   A    
C34   H8    S    
O6    C4    A    
C26   C34   A    
O5    V1    S    
C42   C48   A    
O6    V2    S    
C23   C25   A    
C24   C26   A    
C30   C42   A    
C28   C30   A    
C35   C37   A    
C8    C49   S    
C36   C38   A    
C38   H14   S    
C4    C11   S    
C29   C31   A    
O15   V3    S    
C9    F1    S    
C20   H18   S    
C19   H17   S    
C27   C35   A    
C50   O17   A    
C5    H1    S    
C13   C19   A    
C21   H19   S    
O4    V2    S    
C7    H3    S    
O11   V4    S    
O14   C50   A    
C15   C45   A    
C1    C16   S    
C28   C36   A    
C16   C46   A    
O1    V2    S    
C33   H7    S    
O2    V1    S    
C43   H25   S    
O4    C2    A    
C45   H11   S    
C37   C39   A    
C18   C26   A    
C18   C20   A    
O15   C51   A    
C14   C22   A    
O3    V1    S    
C32   H22   S    
O13   V3    S    
C6    H2    S    
C22   C24   A    
O3    C1    A    
C39   C43   A    
C9    C11   D    
C10   C12   D    
C2    C15   S    
C35   H23   S    
C5    C9    S    
C12   H6    S    
O7    V1    S    
C1    O8    A    
O8    V2    S    
C41   C47   A    
C25   C33   A    
C48   H10   S    
C3    C12   S    
C47   H9    S    
C30   C32   A    
O20   V3    S    
C5    C7    D    
C38   C40   A    
C6    C8    D    
C46   H12   S    
C29   C41   A    
C37   H13   S    
O19   V4    S    
O16   V4    S    
O9    V2    S    
C23   C27   A    
O10   V1    S    
O12   C52   A    
O17   V3    S    
O11   C51   A    
