data_mof_unit_61598.cif
_audit_creation_date              2012-10-26T18:05:12-0400
_audit_creation_method            fapswitch 2.2
_symmetry_space_group_name_H-M    P1
_symmetry_Int_Tables_number       1
_space_group_crystal_system       triclinic
_cell_length_a                    47.913843
_cell_length_b                    35.634519
_cell_length_c                    32.029503
_cell_angle_alpha                 89.999802
_cell_angle_beta                  131.941926
_cell_angle_gamma                 90.000069
_cell_volume                      40677.243249

loop_
_atom_site_label
_atom_site_type_symbol
_atom_type_description
_atom_site_fract_x
_atom_site_fract_y
_atom_site_fract_z
_atom_type_partial_charge
C1    C     C_R   0.072398 0.000042 0.572537 0.548264
C2    C     C_3   0.040785 0.010675 0.765585 0.208497
C3    C     C_R   0.572360 0.000632 0.072362 0.560553
C4    C     C_R   0.927640 0.500632 0.927638 0.560555
C5    C     C_R   0.072359 0.500632 0.072362 0.560556
C6    C     C_R   0.500000 0.072386 1.000000 0.566551
C7    C     C_R   0.000000 0.572387 1.000000 0.566547
C8    C     C_R   0.500264 0.826901 0.962459 -0.115149
C9    C     C_R   0.499735 0.826901 0.037541 -0.115145
C10   C     C_R   0.000270 0.326901 0.962465 -0.115146
C11   C     C_R   0.999730 0.326901 0.037535 -0.115146
C12   C     C_R   0.500263 0.866123 0.962412 -0.131390
C13   C     C_3   0.459215 0.510678 0.234416 0.208497
C14   C     C_R   0.499737 0.866123 0.037588 -0.131383
C15   C     C_R   0.000268 0.366123 0.962418 -0.131384
C16   C     C_R   0.999731 0.366123 0.037582 -0.131386
C17   C     C_R   0.500000 0.886162 0.000000 0.012120
C18   C     C_R   1.000000 0.386162 0.000000 0.012120
C19   C     C_R   0.500000 0.807237 0.000000 0.036656
C20   C     C_R   1.000000 0.307237 0.000000 0.036656
C21   C     C_1   0.500000 0.766896 0.000000 -0.032066
C22   C     C_1   1.000000 0.266896 0.000000 -0.032066
C23   C     C_3   0.009666 0.960541 0.284141 -0.209785
C24   C     C_3   0.540731 0.510879 0.765530 0.208502
C25   C     C_3   0.990330 0.960542 0.715856 -0.209786
C26   C     C_3   0.509667 0.460541 0.284142 -0.209786
C27   C     C_3   0.490527 0.460493 0.716053 -0.209782
C28   C     C_1   1.000000 0.233089 0.000000 -0.031917
C29   C     C_1   0.500000 0.733089 0.000000 -0.031916
C30   C     C_R   0.966024 0.173084 0.966057 -0.114382
C31   C     C_R   0.033976 0.173084 0.033943 -0.114382
C32   C     C_R   0.466024 0.673084 0.966057 -0.114382
C33   C     C_R   0.533976 0.673084 0.033943 -0.114379
C34   C     C_R   0.965982 0.133862 0.966015 -0.130172
C35   C     C_1   0.999717 0.999814 0.162262 -0.048253
C36   C     C_R   0.034017 0.133862 0.033985 -0.130173
C37   C     C_R   0.465983 0.633862 0.966015 -0.130172
C38   C     C_R   0.534017 0.633862 0.033985 -0.130165
C39   C     C_R   1.000000 0.113816 0.000000 0.012194
C40   C     C_R   0.500000 0.613816 0.000000 0.012197
C41   C     C_R   1.000000 0.192748 0.000000 0.036953
C42   C     C_R   0.500000 0.692748 0.000000 0.036953
C43   C     C_R   0.476631 0.172952 0.004406 0.087439
C44   C     C_R   0.523368 0.172953 0.995594 0.087435
C45   C     C_R   0.976634 0.672952 0.004411 0.087437
C46   C     C_1   0.000283 0.999814 0.837738 -0.048253
C47   C     C_R   0.023367 0.672952 0.995589 0.087438
C48   C     C_R   0.475822 0.133559 0.002858 0.217606
C49   C     C_R   0.524178 0.133560 0.997143 0.217614
C50   C     C_R   0.975824 0.633560 0.002862 0.217610
C51   C     C_R   0.024176 0.633560 0.997137 0.217607
C52   C     C_R   0.500000 0.113716 1.000000 -0.044534
C53   C     C_R   1.000000 0.613716 1.000000 -0.044542
C54   C     C_R   0.499999 0.192630 0.999999 -0.043814
C55   C     C_R   0.000000 0.692630 0.000000 -0.043814
C56   C     C_1   0.499999 0.233041 1.000000 0.057649
C57   C     C_1   0.499717 0.499814 0.162262 -0.048253
C58   C     C_1   0.000000 0.733041 0.000000 0.057648
C59   C     C_3   0.011762 0.960882 0.237904 -0.233641
C60   C     C_3   0.988235 0.960883 0.762093 -0.233641
C61   C     C_3   0.511763 0.460883 0.237905 -0.233641
C62   C     C_3   0.488431 0.460825 0.762289 -0.233640
C63   C     C_1   0.000000 0.766834 0.000000 0.023205
C64   C     C_1   0.499999 0.266834 1.000000 0.023206
C65   C     C_R   0.966037 0.826769 0.967239 -0.107684
C66   C     C_R   0.033964 0.826770 0.032761 -0.107684
C67   C     C_R   0.466036 0.326770 0.967238 -0.107682
C68   C     C_1   0.500284 0.499815 0.837738 -0.048254
C69   C     C_R   0.533963 0.326769 0.032763 -0.107680
C70   C     C_R   0.965994 0.865981 0.967173 -0.130216
C71   C     C_R   0.034007 0.865981 0.032827 -0.130215
C72   C     C_R   0.465993 0.365981 0.967172 -0.130211
C73   C     C_R   0.534006 0.365981 0.032829 -0.130211
C74   C     C_R   0.000000 0.886014 0.000000 0.011193
C75   C     C_R   0.500000 0.386014 0.000000 0.011196
C76   C     C_R   0.000000 0.807131 0.000000 0.039593
C77   C     C_R   0.500000 0.307131 0.000000 0.039594
C78   C     C_1   0.999947 0.999888 0.124829 -0.023753
C79   C     C_1   0.999696 0.999993 0.337176 -0.039273
C80   C     C_1   0.000053 0.999888 0.875171 -0.023754
C81   C     C_1   0.499947 0.499888 0.124829 -0.023754
C82   C     C_1   0.500053 0.499889 0.875171 -0.023754
C83   C     C_3   0.999027 0.999936 0.290435 0.059888
C84   C     C_3   0.000973 0.999936 0.709565 0.059888
C85   C     C_3   0.499027 0.499936 0.290435 0.059888
C86   C     C_3   0.500973 0.499940 0.709564 0.059886
C87   C     C_3   0.028299 0.028451 0.253838 -0.278192
C88   C     C_3   0.971703 0.028452 0.746163 -0.278191
C89   C     C_3   0.528299 0.528451 0.253838 -0.278191
C90   C     C_1   0.000304 0.999992 0.662823 -0.039273
C91   C     C_3   0.471560 0.528310 0.746020 -0.278186
C92   C     C_3   0.999229 0.999656 0.207829 0.034624
C93   C     C_3   0.000770 0.999656 0.792170 0.034624
C94   C     C_3   0.499230 0.499656 0.207830 0.034624
C95   C     C_3   0.500772 0.499660 0.792172 0.034621
C96   C     C_3   0.925850 0.958313 0.128002 0.027532
C97   C     C_3   0.885820 0.946530 0.078074 -0.369403
C98   C     C_3   0.074147 0.958306 0.871994 0.027532
C99   C     C_3   0.114176 0.946521 0.921922 -0.369401
C100  C     C_3   0.425851 0.458311 0.128004 0.027531
C101  C     C_1   0.499696 0.499993 0.337177 -0.039273
C102  C     C_3   0.385821 0.446528 0.078075 -0.369401
C103  C     C_3   0.574355 0.458679 0.872204 0.027539
C104  C     C_3   0.614444 0.447094 0.922189 -0.369409
C105  C     C_3   0.306581 0.933261 0.873049 -0.007869
C106  C     C_3   0.282656 0.918060 0.884613 -0.366812
C107  C     C_3   0.693332 0.933293 0.126745 -0.007876
C108  C     C_3   0.717308 0.918116 0.115259 -0.366806
C109  C     C_3   0.806603 0.433269 0.873101 -0.007874
C110  C     C_3   0.782667 0.418073 0.884649 -0.366808
C111  C     C_3   0.193415 0.433260 0.126947 -0.007870
C112  C     C_R   0.927602 0.000042 0.427463 0.548265
C113  C     C_1   0.500303 0.499993 0.662823 -0.039276
C114  C     C_3   0.217343 0.418058 0.115388 -0.366811
C115  C     C_3   0.375101 0.071042 0.802404 -0.021507
C116  C     C_3   0.407323 0.091507 0.813364 -0.353805
C117  C     C_3   0.624892 0.071014 0.197611 -0.021494
C118  C     C_3   0.592667 0.091467 0.186658 -0.353802
C119  C     C_3   0.875103 0.571036 0.802404 -0.021504
C120  C     C_3   0.907327 0.591498 0.813362 -0.353801
C121  C     C_3   0.124898 0.571045 0.197591 -0.021508
C122  C     C_3   0.092675 0.591511 0.186630 -0.353801
C123  C     C_3   0.418718 0.105601 0.950980 0.004812
C124  C     C_1   0.999945 0.000013 0.375083 -0.026299
C125  C     C_3   0.391418 0.086749 0.953529 -0.340267
C126  C     C_3   0.581283 0.105604 0.049028 0.004812
C127  C     C_3   0.608586 0.086752 0.046484 -0.340268
C128  C     C_3   0.918721 0.605602 0.950986 0.004816
C129  C     C_3   0.891422 0.586749 0.953537 -0.340270
C130  C     C_3   0.081279 0.605601 0.049011 0.004815
C131  C     C_3   0.108577 0.586748 0.046459 -0.340268
C132  C     C_3   0.899187 0.002614 0.202314 -0.003744
C133  C     C_3   0.871594 0.973458 0.190824 -0.369854
C134  C     C_3   0.100813 0.002605 0.797686 -0.003744
C135  C     C_1   0.000055 0.000012 0.624917 -0.026299
C136  C     C_3   0.128404 0.973447 0.809174 -0.369853
C137  C     C_3   0.399187 0.502611 0.202314 -0.003744
C138  C     C_3   0.371594 0.473455 0.190825 -0.369853
C139  C     C_3   0.600798 0.503107 0.797668 -0.003772
C140  C     C_3   0.628533 0.474086 0.809300 -0.369837
C141  C     C_1   0.499945 0.500013 0.375083 -0.026300
C142  C     C_1   0.500055 0.500012 0.624917 -0.026301
C143  C     C_R   0.327270 0.986490 0.862451 0.263389
C144  C     C_R   0.672731 0.986507 0.137539 0.263397
C145  C     C_R   0.827270 0.486494 0.862454 0.263390
C146  C     C_R   0.172730 0.486490 0.137549 0.263391
C147  C     C_R   0.366581 0.986868 0.901111 -0.177214
C148  C     C_R   0.572398 0.500042 0.572537 0.548271
C149  C     C_R   0.633419 0.986886 0.098879 -0.177297
C150  C     C_R   0.866581 0.486873 0.901114 -0.177234
C151  C     C_R   0.133419 0.486868 0.098890 -0.177216
C152  C     C_R   0.386171 0.001536 0.886303 -0.026446
C153  C     C_R   0.613830 0.001536 0.113697 -0.026434
C154  C     C_R   0.886171 0.501537 0.886303 -0.026442
C155  C     C_R   0.113829 0.501537 0.113697 -0.026444
C156  C     C_R   0.365954 0.017822 0.832768 0.247820
C157  C     C_R   0.634047 0.017804 0.167242 0.247829
C158  C     C_R   0.865954 0.517818 0.832766 0.247825
C159  C     C_R   0.427602 0.500042 0.427463 0.548264
C160  C     C_R   0.134046 0.517823 0.167231 0.247822
C161  C     C_R   0.326454 0.017143 0.793993 -0.160851
C162  C     C_R   0.673546 0.017126 0.206016 -0.160865
C163  C     C_R   0.826454 0.517140 0.793991 -0.160854
C164  C     C_R   0.173545 0.517145 0.206006 -0.160851
C165  C     C_R   0.000052 0.000015 0.420000 0.555323
C166  C     C_R   0.999947 0.000015 0.580000 0.555322
C167  C     C_R   0.500052 0.500015 0.420000 0.555323
C168  C     C_R   0.499947 0.500015 0.580000 0.555329
C169  C     C_R   0.307245 0.001919 0.808861 -0.002395
C170  C     C_3   0.959865 0.012066 0.186121 0.218305
C171  C     C_R   0.692756 0.001918 0.191139 -0.002333
C172  C     C_R   0.807245 0.501919 0.808862 -0.002380
C173  C     C_R   0.192755 0.501919 0.191139 -0.002391
C174  C     C_1   0.266875 0.001653 0.768508 0.012102
C175  C     C_1   0.733125 0.001650 0.231492 0.012212
C176  C     C_1   0.766875 0.501652 0.768509 0.012127
C177  C     C_1   0.233125 0.501653 0.231492 0.012107
C178  C     C_1   0.233092 0.001270 0.734702 -0.021158
C179  C     C_1   0.766908 0.001267 0.265298 -0.021122
C180  C     C_1   0.733092 0.501269 0.734704 -0.021152
C181  C     C_3   0.040136 0.012062 0.813879 0.218305
C182  C     C_1   0.266908 0.501270 0.265298 -0.021157
C183  C     C_R   0.173394 0.966731 0.675771 -0.115698
C184  C     C_R   0.826607 0.966730 0.324233 -0.115693
C185  C     C_R   0.673394 0.466731 0.675766 -0.115695
C186  C     C_R   0.326606 0.466732 0.324229 -0.115697
C187  C     C_R   0.134169 0.966374 0.636081 -0.132250
C188  C     C_R   0.865832 0.966373 0.363922 -0.132251
C189  C     C_R   0.634169 0.466374 0.636076 -0.132245
C190  C     C_R   0.365831 0.466374 0.363918 -0.132250
C191  C     C_R   0.113894 0.000231 0.614456 0.011401
C192  C     C_3   0.459864 0.512065 0.186121 0.218306
C193  C     C_R   0.886106 0.000231 0.385544 0.011403
C194  C     C_R   0.613894 0.500232 0.614457 0.011401
C195  C     C_R   0.386106 0.500232 0.385544 0.011401
C196  C     C_R   0.133688 0.034394 0.633448 -0.131404
C197  C     C_R   0.866311 0.034393 0.366550 -0.131403
C198  C     C_R   0.633688 0.534394 0.633455 -0.131410
C199  C     C_R   0.366312 0.534394 0.366553 -0.131405
C200  C     C_R   0.172879 0.034667 0.673060 -0.115471
C201  C     C_R   0.827121 0.034666 0.326937 -0.115476
C202  C     C_R   0.672879 0.534667 0.673068 -0.115479
C203  C     C_3   0.540075 0.512263 0.813818 0.218305
C204  C     C_R   0.327121 0.534667 0.326940 -0.115472
C205  C     C_R   0.192782 0.000868 0.694241 0.035137
C206  C     C_R   0.807218 0.000866 0.305760 0.035129
C207  C     C_R   0.692782 0.500868 0.694242 0.035131
C208  C     C_R   0.307217 0.500868 0.305759 0.035137
C209  C     C_R   1.000000 0.072301 1.000000 0.548839
C210  C     C_R   0.500000 0.572302 1.000000 0.548847
C211  C     C_3   0.027925 0.028743 0.302037 -0.282948
C212  C     C_3   0.972077 0.028746 0.697964 -0.282949
C213  C     C_3   0.527925 0.528744 0.302037 -0.282948
C214  C     C_3   0.959215 0.010679 0.234416 0.208496
C215  C     C_3   0.471933 0.528605 0.697820 -0.282953
C216  C     C_R   0.000012 0.999923 0.080074 0.555665
C217  C     C_R   0.999988 0.999923 0.919926 0.555665
C218  C     C_R   0.500012 0.499923 0.080074 0.555665
C219  C     C_R   0.499988 0.499923 0.919926 0.555674
C220  C     C_R   0.000000 0.927506 0.000000 0.547350
C221  C     C_R   0.500000 0.427506 0.000000 0.547352
C222  C     C_R   0.500000 0.927667 0.000000 0.539637
C223  C     C_R   0.000000 0.427667 0.000000 0.539634
C224  C     C_R   0.427640 0.000632 0.927638 0.560557
Cu1   Cu    Cu3+1 0.000000 0.037300 0.500000 0.922065
Cu2   Cu    Cu3+1 0.499980 0.000110 0.041300 0.976856
Cu3   Cu    Cu3+1 0.000020 0.500110 0.958700 0.976866
Cu4   Cu    Cu3+1 0.999980 0.500110 0.041300 0.976866
Cu5   Cu    Cu3+1 0.500000 0.537300 0.500000 0.922053
Cu6   Cu    Cu3+1 0.000000 0.962740 0.500000 0.931925
Cu7   Cu    Cu3+1 0.500000 0.462740 0.500000 0.931924
Cu8   Cu    Cu3+1 0.037280 0.999890 0.037280 0.933107
Cu9   Cu    Cu3+1 0.962720 0.999890 0.962720 0.933107
Cu10  Cu    Cu3+1 0.537280 0.499890 0.037280 0.933076
Cu11  Cu    Cu3+1 0.462720 0.499890 0.962720 0.933116
Cu12  Cu    Cu3+1 0.500020 0.000110 0.958700 0.976856
H1    H     H_    0.056973 0.021289 0.271244 0.135516
H2    H     H_    0.978044 0.057107 0.764407 0.112067
H3    H     H_    0.443560 0.449506 0.118949 0.130597
H4    H     H_    0.376561 0.459595 0.039064 0.161968
H5    H     H_    0.384310 0.415531 0.073393 0.094175
H6    H     H_    0.366668 0.455549 0.084339 0.157194
H7    H     H_    0.565770 0.443720 0.834812 0.176701
H8    H     H_    0.556691 0.449786 0.881303 0.130610
H9    H     H_    0.623639 0.460208 0.961136 0.161961
H10   H     H_    0.616108 0.416105 0.927027 0.094126
H11   H     H_    0.633551 0.456210 0.915880 0.157197
H12   H     H_    0.335104 0.920683 0.904067 0.125682
H13   H     H_    0.521959 0.557106 0.235596 0.112066
H14   H     H_    0.293432 0.924459 0.829852 0.127738
H15   H     H_    0.253832 0.929790 0.853788 0.159889
H16   H     H_    0.281066 0.886994 0.880927 0.092663
H17   H     H_    0.295206 0.925904 0.927679 0.162230
H18   H     H_    0.664788 0.920783 0.095588 0.125687
H19   H     H_    0.706392 0.924396 0.169866 0.127714
H20   H     H_    0.746156 0.929769 0.146232 0.159847
H21   H     H_    0.718814 0.887042 0.118774 0.092670
H22   H     H_    0.704853 0.926066 0.072274 0.162260
H23   H     H_    0.835131 0.420708 0.904153 0.125683
H24   H     H_    0.477758 0.556997 0.764120 0.112069
H25   H     H_    0.793475 0.424443 0.829922 0.127736
H26   H     H_    0.753837 0.429785 0.853789 0.159890
H27   H     H_    0.781097 0.387006 0.881004 0.092671
H28   H     H_    0.795196 0.425943 0.927696 0.162234
H29   H     H_    0.164891 0.420685 0.095923 0.125682
H30   H     H_    0.206560 0.424455 0.170141 0.127737
H31   H     H_    0.246168 0.429785 0.146219 0.159887
H32   H     H_    0.218930 0.386992 0.119069 0.092663
H33   H     H_    0.204797 0.425906 0.072325 0.162231
H34   H     H_    0.369065 0.085859 0.826336 0.101984
H35   H     H_    0.381744 0.975185 0.942548 0.140192
H36   H     H_    0.349995 0.072748 0.756799 0.135381
H37   H     H_    0.413595 0.078246 0.789042 0.169923
H38   H     H_    0.399603 0.121335 0.800459 0.098692
H39   H     H_    0.432796 0.090380 0.858778 0.167882
H40   H     H_    0.630920 0.085837 0.173672 0.101974
H41   H     H_    0.650000 0.072724 0.243215 0.135378
H42   H     H_    0.586401 0.078198 0.210983 0.169911
H43   H     H_    0.600380 0.121296 0.199560 0.098687
H44   H     H_    0.567192 0.090336 0.141244 0.167918
H45   H     H_    0.869070 0.585854 0.826339 0.101979
H46   H     H_    0.618254 0.975222 0.057432 0.140117
H47   H     H_    0.849997 0.572745 0.756799 0.135380
H48   H     H_    0.913597 0.578236 0.789039 0.169921
H49   H     H_    0.899609 0.621327 0.800460 0.098690
H50   H     H_    0.932800 0.590369 0.858777 0.167894
H51   H     H_    0.130934 0.585860 0.173658 0.101983
H52   H     H_    0.150004 0.572751 0.243196 0.135381
H53   H     H_    0.086403 0.578250 0.210952 0.169924
H54   H     H_    0.100396 0.621339 0.199533 0.098691
H55   H     H_    0.067203 0.590382 0.141215 0.167883
H56   H     H_    0.424445 0.085797 0.930640 0.123386
H57   H     H_    0.881745 0.475194 0.942554 0.140173
H58   H     H_    0.405028 0.131303 0.924588 0.139735
H59   H     H_    0.384345 0.106132 0.972440 0.178215
H60   H     H_    0.365267 0.079175 0.910504 0.092665
H61   H     H_    0.404146 0.060829 0.979287 0.177442
H62   H     H_    0.575555 0.085802 0.069368 0.123351
H63   H     H_    0.594971 0.131307 0.075417 0.139741
H64   H     H_    0.615660 0.106134 0.027574 0.178216
H65   H     H_    0.634736 0.079179 0.089511 0.092668
H66   H     H_    0.595859 0.060831 0.020727 0.177438
H67   H     H_    0.924446 0.585800 0.930643 0.123371
H68   H     H_    0.118256 0.475184 0.057453 0.140187
H69   H     H_    0.905029 0.631305 0.924596 0.139737
H70   H     H_    0.884350 0.606131 0.972451 0.178211
H71   H     H_    0.865270 0.579176 0.910512 0.092664
H72   H     H_    0.904151 0.560828 0.979294 0.177442
H73   H     H_    0.075554 0.585799 0.069354 0.123382
H74   H     H_    0.094971 0.631304 0.075402 0.139735
H75   H     H_    0.115649 0.606130 0.027544 0.178213
H76   H     H_    0.134730 0.579175 0.089483 0.092666
H77   H     H_    0.095848 0.560827 0.020701 0.177443
H78   H     H_    0.886132 0.017750 0.162549 0.160814
H79   H     H_    0.310726 0.028448 0.752201 0.114325
H80   H     H_    0.904969 0.022712 0.233942 0.121500
H81   H     H_    0.883666 0.958735 0.230354 0.161414
H82   H     H_    0.845053 0.987376 0.173780 0.101342
H83   H     H_    0.865382 0.952563 0.159864 0.150585
H84   H     H_    0.113869 0.017740 0.837452 0.160814
H85   H     H_    0.095032 0.022703 0.766059 0.121500
H86   H     H_    0.116330 0.958725 0.769643 0.161412
H87   H     H_    0.154945 0.987363 0.826219 0.101339
H88   H     H_    0.134614 0.952551 0.840132 0.150587
H89   H     H_    0.386132 0.517747 0.162549 0.160814
H90   H     H_    0.689275 0.028418 0.247816 0.114332
H91   H     H_    0.404969 0.522709 0.233942 0.121499
H92   H     H_    0.383667 0.458732 0.230355 0.161412
H93   H     H_    0.345054 0.487372 0.173781 0.101340
H94   H     H_    0.365383 0.452560 0.159865 0.150587
H95   H     H_    0.613779 0.518308 0.837359 0.160804
H96   H     H_    0.594916 0.523175 0.765939 0.121497
H97   H     H_    0.616532 0.459303 0.769843 0.161422
H98   H     H_    0.655004 0.488134 0.826273 0.101388
H99   H     H_    0.634849 0.453222 0.840365 0.150584
H100  H     H_    0.810726 0.528442 0.752197 0.114328
H101  H     H_    0.943028 0.021294 0.728757 0.135516
H102  H     H_    0.189274 0.528451 0.247798 0.114325
H103  H     H_    0.188590 0.940410 0.691988 0.107882
H104  H     H_    0.811412 0.940408 0.308018 0.107908
H105  H     H_    0.688589 0.440409 0.691978 0.107895
H106  H     H_    0.311410 0.440410 0.308012 0.107883
H107  H     H_    0.119761 0.939629 0.622396 0.128299
H108  H     H_    0.880240 0.939628 0.377610 0.128302
H109  H     H_    0.619761 0.439628 0.622385 0.128309
H110  H     H_    0.380238 0.439629 0.377604 0.128298
H111  H     H_    0.118928 0.060939 0.617673 0.128771
H112  H     H_    0.556973 0.521291 0.271244 0.135516
H113  H     H_    0.881071 0.060939 0.382322 0.128771
H114  H     H_    0.618928 0.560939 0.617685 0.128767
H115  H     H_    0.381072 0.560939 0.382327 0.128771
H116  H     H_    0.056487 0.021896 0.342409 0.134349
H117  H     H_    0.943515 0.021900 0.657593 0.134349
H118  H     H_    0.556486 0.521897 0.342409 0.134349
H119  H     H_    0.443406 0.521617 0.657482 0.134349
H120  H     H_    0.187651 0.061237 0.687114 0.110689
H121  H     H_    0.812348 0.061235 0.312882 0.110689
H122  H     H_    0.687650 0.561237 0.687126 0.110686
H123  H     H_    0.442922 0.521008 0.728650 0.135521
H124  H     H_    0.312349 0.561237 0.312887 0.110688
H125  H     H_    0.500472 0.811922 0.933228 0.111876
H126  H     H_    0.499528 0.811921 0.066772 0.111878
H127  H     H_    0.000482 0.311922 0.933238 0.111878
H128  H     H_    0.999518 0.311921 0.066762 0.111877
H129  H     H_    0.500475 0.880716 0.932972 0.129622
H130  H     H_    0.499525 0.880716 0.067029 0.129629
H131  H     H_    0.000485 0.380716 0.932982 0.129627
H132  H     H_    0.999515 0.380716 0.067018 0.129625
H133  H     H_    0.939566 0.188064 0.939626 0.111711
H134  H     H_    0.020910 0.057431 0.306321 0.110537
H135  H     H_    0.060433 0.188064 0.060375 0.111711
H136  H     H_    0.439566 0.688064 0.939625 0.111711
H137  H     H_    0.560433 0.688064 0.060375 0.111712
H138  H     H_    0.939329 0.119275 0.939388 0.129822
H139  H     H_    0.060671 0.119276 0.060612 0.129822
H140  H     H_    0.439329 0.619275 0.939388 0.129822
H141  H     H_    0.560671 0.619275 0.060612 0.129825
H142  H     H_    0.939599 0.811777 0.941755 0.126282
H143  H     H_    0.060402 0.811777 0.058246 0.126282
H144  H     H_    0.439598 0.311777 0.941753 0.126284
H145  H     H_    0.979095 0.057432 0.693683 0.110537
H146  H     H_    0.560401 0.311777 0.058248 0.126284
H147  H     H_    0.939354 0.880567 0.941484 0.130756
H148  H     H_    0.060646 0.880567 0.058516 0.130757
H149  H     H_    0.439353 0.380568 0.941482 0.130758
H150  H     H_    0.560646 0.380567 0.058519 0.130754
H151  H     H_    0.988794 0.939292 0.273648 0.157441
H152  H     H_    0.011201 0.939291 0.726348 0.157442
H153  H     H_    0.488796 0.439292 0.273649 0.157442
H154  H     H_    0.511503 0.439347 0.726650 0.157440
H155  H     H_    0.037330 0.951800 0.324680 0.109558
H156  H     H_    0.520909 0.557432 0.306320 0.110537
H157  H     H_    0.962667 0.951803 0.675316 0.109558
H158  H     H_    0.537331 0.451801 0.324682 0.109558
H159  H     H_    0.462907 0.451617 0.675557 0.109571
H160  H     H_    0.041278 0.955374 0.257803 0.123095
H161  H     H_    0.958718 0.955377 0.742194 0.123095
H162  H     H_    0.541279 0.455375 0.257804 0.123095
H163  H     H_    0.458942 0.455171 0.742418 0.123100
H164  H     H_    0.995654 0.937119 0.208692 0.093668
H165  H     H_    0.004341 0.937119 0.791303 0.093669
H166  H     H_    0.495656 0.437119 0.208694 0.093668
H167  H     H_    0.478807 0.557327 0.693395 0.110531
H168  H     H_    0.504656 0.437141 0.791618 0.093674
H169  H     H_    0.953589 0.039774 0.240498 0.048279
H170  H     H_    0.046414 0.039770 0.759505 0.048279
H171  H     H_    0.453589 0.539773 0.240497 0.048279
H172  H     H_    0.546215 0.540001 0.759305 0.048280
H173  H     H_    0.958176 0.042554 0.176941 0.099313
H174  H     H_    0.041828 0.042551 0.823062 0.099313
H175  H     H_    0.458175 0.542554 0.176940 0.099312
H176  H     H_    0.541614 0.542760 0.822847 0.099304
H177  H     H_    0.934508 0.943397 0.165468 0.176706
H178  H     H_    0.021960 0.057106 0.235597 0.112067
H179  H     H_    0.943558 0.949507 0.118947 0.130597
H180  H     H_    0.876560 0.959597 0.039063 0.161967
H181  H     H_    0.884308 0.915533 0.073391 0.094173
H182  H     H_    0.866667 0.955552 0.084338 0.157193
H183  H     H_    0.065487 0.943392 0.834528 0.176706
H184  H     H_    0.056437 0.949502 0.881049 0.130597
H185  H     H_    0.123436 0.959587 0.960934 0.161968
H186  H     H_    0.115685 0.915524 0.926603 0.094175
H187  H     H_    0.133329 0.955541 0.915659 0.157194
H188  H     H_    0.434510 0.443396 0.165469 0.176706
I1    I     I_    0.441670 0.202038 0.012703 -0.370649
I2    I     I_    0.558330 0.202039 0.987297 -0.370629
I3    I     I_    0.941676 0.702038 0.012715 -0.370653
I4    I     I_    0.058324 0.702038 0.987285 -0.370649
O1    O     O_R   0.054380 0.031500 0.554380 -0.511955
O2    O     O_R   0.554350 0.000140 0.019470 -0.529462
O3    O     O_R   0.945650 0.500140 0.980530 -0.529462
O4    O     O_R   0.054350 0.500140 0.019470 -0.529461
O5    O     O_R   0.499990 0.054510 0.965080 -0.478933
O6    O     O_R   0.500010 0.054510 0.034920 -0.478958
O7    O     O_R   0.999990 0.554510 0.965080 -0.478940
O8    O     O_R   0.000010 0.554510 0.034920 -0.478932
O9    O     O_R   0.054410 0.968530 0.554410 -0.510768
O10   O     O_R   0.945590 0.968530 0.445590 -0.510768
O11   O     O_R   0.554410 0.468530 0.554410 -0.510762
O12   O     O_R   0.945620 0.031500 0.445620 -0.511956
O13   O     O_R   0.445590 0.468530 0.445590 -0.510768
O14   O     O_R   0.000000 0.031500 0.439720 -0.505011
O15   O     O_R   1.000000 0.031500 0.560280 -0.505011
O16   O     O_R   0.500000 0.531500 0.439720 -0.505011
O17   O     O_R   0.500000 0.531500 0.560280 -0.505013
O18   O     O_R   0.000030 0.968530 0.439750 -0.499814
O19   O     O_R   0.999970 0.968530 0.560250 -0.499814
O20   O     O_R   0.500030 0.468530 0.439750 -0.499814
O21   O     O_R   0.499970 0.468530 0.560250 -0.499827
O22   O     O_R   0.031480 0.054290 0.031480 -0.510723
O23   O     O_R   0.554380 0.531500 0.554380 -0.511958
O24   O     O_R   0.968520 0.054290 0.968520 -0.510724
O25   O     O_R   0.531480 0.554290 0.031480 -0.510718
O26   O     O_R   0.468520 0.554290 0.968520 -0.510723
O27   O     O_R   0.031490 0.999900 0.091770 -0.504873
O28   O     O_R   0.968510 0.999900 0.908230 -0.504873
O29   O     O_R   0.531490 0.499900 0.091770 -0.504874
O30   O     O_R   0.468510 0.499900 0.908230 -0.504863
O31   O     O_R   0.968550 0.999920 0.028830 -0.497001
O32   O     O_R   0.031450 0.999920 0.971170 -0.496999
O33   O     O_R   0.468550 0.499920 0.028830 -0.497000
O34   O     O_R   0.445620 0.531500 0.445620 -0.511957
O35   O     O_R   0.531450 0.499920 0.971170 -0.497024
O36   O     O_R   0.031500 0.945500 0.031490 -0.511930
O37   O     O_R   0.968500 0.945500 0.968510 -0.511931
O38   O     O_R   0.531500 0.445500 0.031490 -0.511936
O39   O     O_R   0.468500 0.445500 0.968510 -0.511929
O40   O     O_R   0.500040 0.945720 0.965170 -0.517292
O41   O     O_R   0.499960 0.945720 0.034830 -0.517282
O42   O     O_R   0.000040 0.445720 0.965170 -0.517288
O43   O     O_R   0.999960 0.445720 0.034830 -0.517289
O44   O     O_3   0.926944 0.997695 0.133513 -0.554602
O45   O     O_R   0.445640 0.000120 0.910750 -0.451064
O46   O     O_3   0.073056 0.997689 0.866487 -0.554602
O47   O     O_3   0.426944 0.497693 0.133513 -0.554602
O48   O     O_3   0.573067 0.498055 0.866498 -0.554606
O49   O     O_3   0.308399 0.972725 0.878032 -0.545195
O50   O     O_3   0.691608 0.972767 0.121955 -0.545197
O51   O     O_3   0.808398 0.472735 0.878036 -0.545201
O52   O     O_3   0.191602 0.472724 0.121970 -0.545196
O53   O     O_3   0.385259 0.033040 0.818485 -0.531939
O54   O     O_3   0.614745 0.033010 0.181536 -0.531931
O55   O     O_3   0.885257 0.533034 0.818480 -0.531937
O56   O     O_R   0.554360 0.000120 0.089250 -0.451060
O57   O     O_3   0.114741 0.533043 0.181512 -0.531940
O58   O     O_3   0.452091 0.114542 0.005998 -0.511203
O59   O     O_3   0.547911 0.114543 0.994007 -0.511201
O60   O     O_3   0.952094 0.614542 0.006004 -0.511200
O61   O     O_3   0.047905 0.614542 0.993994 -0.511201
O62   O     O_3   0.932495 0.984435 0.222934 -0.559315
O63   O     O_3   0.067503 0.984429 0.777065 -0.559315
O64   O     O_3   0.432496 0.484434 0.222934 -0.559315
O65   O     O_3   0.567579 0.484766 0.777142 -0.559319
O66   O     O_R   0.945640 0.500120 0.910750 -0.451064
O67   O     O_R   0.054360 0.500120 0.089250 -0.451064
O68   O     O_R   0.445650 0.000140 0.980530 -0.529455

loop_
_geom_bond_atom_site_label_1
_geom_bond_atom_site_label_2
_ccdc_geom_bond_type
C49   O59   S    
C126  C127  S    
C29   C42   S    
Cu2   O6    S    
C146  O52   S    
C64   C77   S    
C185  C207  A    
C217  O32   A    
C115  H34   S    
C23   H151  S    
Cu12  O40   S    
C154  C158  A    
C97   H181  S    
C168  O21   A    
C72   C75   A    
C63   C76   S    
C177  C182  T    
C113  C142  T    
C39   C209  S    
C100  H3    S    
C132  H78   S    
C89   C94   S    
C14   H130  S    
C149  C153  A    
C191  C196  A    
C91   C215  S    
C91   H24   S    
C127  H64   S    
C93   C181  S    
C189  C194  A    
C9    C19   A    
C162  C171  A    
C152  C156  A    
C92   C170  S    
C26   H158  S    
C70   C74   A    
C169  C174  S    
C25   C60   S    
C151  C155  A    
C60   C93   S    
C159  O13   A    
C188  H108  S    
C62   C95   S    
C73   C75   A    
C106  H17   S    
C123  O58   S    
C105  O49   S    
C167  O16   A    
C125  H59   S    
C7    O8    A    
Cu8   O27   S    
C11   C20   A    
C68   C95   S    
C96   H179  S    
C118  H42   S    
C4    O66   A    
C66   H143  S    
C222  O41   A    
C119  H47   S    
C192  O47   S    
C5    C155  S    
Cu6   O9    S    
C131  H75   S    
C107  H18   S    
C186  C190  A    
C27   C86   S    
C219  O35   A    
C105  H12   S    
C33   H137  S    
C114  H32   S    
Cu9   O24   S    
C2    O63   S    
C43   C54   A    
Cu3   Cu4   S    
C104  H11   S    
C66   C76   A    
C67   H144  S    
C201  H121  S    
C98   H183  S    
C119  O55   S    
C72   H149  S    
C161  H79   S    
C209  O24   A    
C222  O40   A    
C18   C223  S    
C65   C76   A    
C211  H134  S    
C133  H83   S    
C89   H13   S    
C203  O48   S    
Cu6   O18   S    
C216  O31   A    
C199  C204  A    
C2    H170  S    
C219  O30   A    
C170  O44   S    
C7    C53   S    
C114  H33   S    
C181  O46   S    
C105  C106  S    
Cu7   O21   S    
Cu5   O23   S    
Cu7   O13   S    
C175  C179  T    
C139  C140  S    
Cu4   O43   S    
C223  O43   A    
C35   C78   T    
Cu1   Cu6   S    
C186  C208  A    
C107  O50   S    
C140  H97   S    
C132  H80   S    
C130  C131  S    
C133  H81   S    
C6    O6    A    
C129  H71   S    
C192  H175  S    
C10   H127  S    
C45   C50   A    
Cu8   O32   S    
C135  C166  S    
C182  C208  S    
Cu11  O39   S    
C142  C168  S    
Cu10  O38   S    
C97   H180  S    
C48   C52   A    
C98   C99   S    
C88   C212  S    
C13   C85   S    
C31   C36   A    
C6    C52   S    
C9    H126  S    
C109  C110  S    
C203  H176  S    
C2    C181  S    
C168  O17   A    
Cu12  O2    S    
C70   H147  S    
C15   C18   A    
C79   C83   S    
C69   C77   A    
C122  H54   S    
C128  C129  S    
C181  H174  S    
C119  H45   S    
C139  H95   S    
C137  O64   S    
C23   C59   S    
C144  C171  A    
C16   H132  S    
C220  O37   A    
C215  H167  S    
C136  H87   S    
C33   C42   A    
C27   C62   S    
C185  H105  S    
C105  H14   S    
C37   C40   A    
C147  C152  A    
C187  H107  S    
Cu1   O1    S    
C95   C203  S    
C65   C70   A    
C170  H173  S    
Cu2   Cu12  S    
C210  O25   A    
C67   C72   A    
C214  H169  S    
C5    O67   A    
C82   C219  S    
C138  H92   S    
C198  C202  A    
C107  C108  S    
C56   C64   T    
C30   C41   A    
Cu3   O7    S    
C102  H6    S    
C111  C114  S    
C145  C150  A    
C23   H155  S    
C100  H188  S    
C161  C169  A    
C145  C172  A    
C137  H91   S    
C26   H153  S    
C14   C17   A    
C108  H21   S    
C84   C90   S    
Cu10  O25   S    
C198  H114  S    
Cu2   O41   S    
C47   I4    S    
C195  C199  A    
C138  H93   S    
C44   I2    S    
C8    C19   A    
C30   C34   A    
C34   C39   A    
C140  H99   S    
C204  C208  A    
C61   H162  S    
Cu2   O68   S    
C111  H29   S    
C10   C20   A    
C80   C217  S    
Cu1   O15   S    
C217  O28   A    
C160  O57   S    
C128  H67   S    
C126  H63   S    
C132  O62   S    
C51   C53   A    
C121  H52   S    
C116  H38   S    
C143  O49   S    
Cu3   O42   S    
C139  O65   S    
C15   H131  S    
C62   H163  S    
C8    C12   A    
C88   H2    S    
C103  H8    S    
C107  H19   S    
C32   C37   A    
C167  O20   A    
C110  H27   S    
C190  C195  A    
C186  H106  S    
C188  C193  A    
C104  H10   S    
C57   C94   S    
C183  C205  A    
C74   C220  S    
C103  C104  S    
C83   C214  S    
C130  H74   S    
Cu7   O20   S    
C31   C41   A    
C87   C211  S    
C36   C39   A    
C158  C163  A    
C100  O47   S    
C156  C161  A    
C134  O63   S    
C185  C189  A    
C79   C124  T    
C144  O50   S    
C202  C207  A    
C99   H186  S    
C48   O58   S    
C128  O60   S    
C117  C118  S    
C46   C80   T    
C90   C135  T    
C194  C198  A    
C26   C85   S    
Cu7   O11   S    
C157  C162  A    
C216  O27   A    
C12   H129  S    
C126  O59   S    
Cu5   O17   S    
C88   H101  S    
C116  H37   S    
C91   C95   S    
C146  C151  A    
C44   C54   A    
C176  C180  T    
C45   C55   A    
Cu4   O67   S    
C1    O9    A    
C33   C38   A    
C112  O10   A    
C24   C86   S    
C172  C176  S    
C221  O39   A    
C4    C154  S    
C61   H166  S    
C24   C203  S    
C200  C205  A    
C87   H1    S    
C60   H161  S    
Cu5   O16   S    
C2    C84   S    
C218  O29   A    
C127  H66   S    
C165  O18   A    
C7    O7    A    
C89   H112  S    
C13   C192  S    
C23   C83   S    
C157  O54   S    
C86   C113  S    
C211  H116  S    
C160  C164  A    
C26   C61   S    
C69   H146  S    
Cu2   O56   S    
C118  H43   S    
C123  C125  S    
Cu6   O10   S    
C40   C210  S    
C28   C41   S    
C221  O38   A    
C184  C206  A    
C159  O34   A    
C147  H35   S    
C3    O2    A    
C27   H154  S    
C67   C77   A    
C12   C17   A    
C204  H124  S    
C98   H184  S    
C69   C73   A    
C180  C207  S    
C174  C178  T    
C130  O61   S    
C87   H178  S    
C51   O61   S    
C35   C92   S    
Cu4   O3    S    
Cu6   O19   S    
C22   C28   T    
C87   C92   S    
C108  H20   S    
C37   H140  S    
C59   H160  S    
C212  H117  S    
C137  H89   S    
C111  O52   S    
C141  C167  S    
C50   C53   A    
C97   H182  S    
C134  H84   S    
C47   C51   A    
C213  H118  S    
C3    O56   A    
C134  H85   S    
C164  H102  S    
C140  H98   S    
C106  H15   S    
C34   H138  S    
C116  H39   S    
C120  H50   S    
C9    C14   A    
C183  C187  A    
C224  O68   A    
C129  H70   S    
C162  H90   S    
C66   C71   A    
C202  H122  S    
C49   C52   A    
C8    H125  S    
C112  O12   A    
Cu10  O29   S    
C1    O1    A    
C121  C122  S    
C1    C191  S    
C148  C194  S    
C20   C22   S    
C184  H104  S    
C215  H119  S    
C152  C224  S    
Cu10  Cu11  S    
C109  H25   S    
C125  H60   S    
C89   C213  S    
C166  O19   A    
C106  H16   S    
C36   H139  S    
Cu8   O22   S    
C128  H69   S    
C19   C21   S    
C61   C94   S    
C150  H57   S    
C122  H55   S    
C59   H164  S    
C71   C74   A    
C119  C120  S    
C84   C212  S    
C50   O60   S    
C170  C214  S    
C131  H76   S    
C102  H4    S    
C109  O51   S    
C103  O48   S    
C68   C82   T    
Cu5   Cu7   S    
C114  H31   S    
C38   C40   A    
C21   C29   T    
Cu8   Cu9   S    
C129  H72   S    
C210  O26   A    
C201  C206  A    
C99   H187  S    
C59   C92   S    
C153  C157  A    
C117  O54   S    
Cu9   O31   S    
C224  O45   A    
C120  H48   S    
Cu9   O37   S    
C13   H171  S    
C200  H120  S    
C55   C58   S    
C212  H145  S    
C32   C42   A    
C27   H159  S    
Cu3   O4    S    
C115  C116  S    
C44   C49   A    
C25   H157  S    
C146  C173  A    
C109  H23   S    
C148  O23   A    
C108  H22   S    
C196  C200  A    
C65   H142  S    
C32   H136  S    
C143  C147  A    
C138  H94   S    
C13   O64   S    
C190  H110  S    
C133  H82   S    
C10   C15   A    
C98   O46   S    
C6    O5    A    
C121  H51   S    
Cu1   O14   S    
C5    O4    A    
C71   H148  S    
C178  C205  S    
C45   I3    S    
C3    C153  S    
C125  H61   S    
Cu11  O30   S    
C11   C16   A    
Cu10  O35   S    
C86   C215  S    
C117  H41   S    
C17   C222  S    
C73   H150  S    
C101  C141  T    
C91   H123  S    
C132  C133  S    
C25   C84   S    
C103  H7    S    
C149  H46   S    
C197  C201  A    
C145  O51   S    
C218  O33   A    
C117  H40   S    
C43   C48   A    
C187  C191  A    
C165  O14   A    
C96   O44   S    
C179  C206  S    
C122  H53   S    
C148  O11   A    
Cu12  O45   S    
C197  H113  S    
C139  H96   S    
C120  H49   S    
C54   C56   S    
C38   H141  S    
C199  H115  S    
Cu4   O8    S    
C163  H100  S    
C164  C173  A    
C196  H111  S    
C143  C169  A    
Cu1   O12   S    
C78   C216  S    
C11   H128  S    
C115  H36   S    
C134  C136  S    
C25   H152  S    
C171  C175  S    
C158  O55   S    
C24   O65   S    
C184  C188  A    
C99   H185  S    
C30   H133  S    
C156  O53   S    
Cu11  O26   S    
C60   H165  S    
C144  C149  A    
C123  H56   S    
C85   C213  S    
C173  C177  S    
C96   C97   S    
C100  C102  S    
C43   I1    S    
C159  C195  S    
C102  H5    S    
C136  H86   S    
C124  C165  S    
C220  O36   A    
Cu12  O5    S    
C115  O53   S    
Cu8   O36   S    
C57   C81   T    
Cu11  O33   S    
Cu5   O34   S    
C213  H156  S    
C85   C101  S    
C47   C55   A    
C58   C63   T    
C223  O42   A    
C88   C93   S    
C24   H172  S    
C155  C160  A    
C110  H28   S    
C163  C172  A    
C111  H30   S    
C189  H109  S    
C4    O3    A    
C127  H65   S    
C126  H62   S    
C137  C138  S    
C96   H177  S    
C62   H168  S    
C118  H44   S    
C123  H58   S    
C214  O62   S    
C46   C93   S    
C193  C197  A    
C81   C218  S    
C131  H77   S    
C31   H135  S    
C136  H88   S    
C94   C192  S    
C112  C193  S    
C110  H26   S    
C121  O57   S    
C183  H103  S    
C166  O15   A    
C75   C221  S    
C16   C18   A    
C104  H9    S    
C150  C154  A    
C151  H68   S    
C209  O22   A    
Cu3   O66   S    
Cu9   O28   S    
C83   C211  S    
C130  H73   S    
