data_mof_unit_33179.cif
_audit_creation_date              2012-12-11T20:46:42-0500
_audit_creation_method            fapswitch 2.2
_symmetry_space_group_name_H-M    P1
_symmetry_Int_Tables_number       1
_space_group_crystal_system       triclinic
_cell_length_a                    8.400564
_cell_length_b                    18.82246
_cell_length_c                    18.80741
_cell_angle_alpha                 101.269439
_cell_angle_beta                  94.198713
_cell_angle_gamma                 91.06307
_cell_volume                      2907.00658081

loop_
_atom_site_label
_atom_site_type_symbol
_atom_type_description
_atom_site_fract_x
_atom_site_fract_y
_atom_site_fract_z
_atom_type_partial_charge
Ba1   Ba    Ba6+2 0.153490 0.533960 0.468530 1.684081
Ba2   Ba    Ba6+2 0.656680 0.466030 0.531410 1.698838
C1    C     C_3   0.339825 0.724001 0.213742 -0.364743
C2    C     C_R   0.083500 0.902507 0.565581 -0.093322
C3    C     C_R   0.224686 0.037619 0.542263 -0.069226
C4    C     C_3   0.917470 0.730494 0.322858 0.368522
C5    C     C_R   0.064168 0.017889 0.521253 -0.012221
C6    C     C_R   0.288928 0.105683 0.540400 0.104805
C7    C     C_R   0.188171 0.161719 0.524124 -0.044725
C8    C     C_R   0.029632 0.139709 0.493488 -0.013089
C9    C     C_R   0.969806 0.066786 0.489692 0.014604
C10   C     C_R   0.234108 0.237481 0.536328 -0.060585
C11   C     C_R   0.119058 0.287289 0.518775 -0.099983
C12   C     C_3   0.386583 0.701153 0.285406 0.340254
C13   C     C_R   0.977106 0.264518 0.476311 0.118005
C14   C     C_R   0.932862 0.189290 0.463324 -0.087161
C15   C     C_R   0.850512 0.923798 0.489953 0.032244
C16   C     C_3   0.939187 0.801806 0.297568 -0.358762
C17   C     C_R   0.793046 0.851358 0.489554 -0.007565
C18   C     C_R   0.887664 0.803532 0.523528 -0.051377
C19   C     C_R   0.026607 0.832700 0.565541 -0.006207
C20   C     C_R   0.797968 0.161202 0.418144 -0.002099
C21   C     C_R   0.744792 0.088948 0.409113 0.104509
C22   C     C_R   0.818766 0.042476 0.452525 0.008365
C23   C     C_3   0.510969 0.689098 0.637479 0.278004
C24   C     C_R   0.755047 0.971911 0.456932 0.023378
C25   C     C_R   0.594700 0.949426 0.435087 -0.103688
C26   C     C_R   0.638187 0.828031 0.458273 -0.027512
C27   C     C_R   0.538759 0.878966 0.434088 -0.092439
C28   C     C_3   0.767173 0.345833 0.295610 0.372352
C29   C     C_R   0.585498 0.755420 0.455037 -0.019761
C30   C     C_R   0.688731 0.706471 0.480445 -0.306317
C31   C     C_R   0.837240 0.729330 0.517027 0.059169
C32   C     C_2   0.592170 0.529745 0.305101 -0.319140
C33   C     C_3   0.674004 0.579604 0.263896 -0.049515
C34   C     C_3   0.555990 0.770399 0.657613 -0.123974
C35   C     C_2   0.630504 0.561472 0.183282 -0.177545
C36   C     C_2   0.498353 0.520261 0.155648 -0.137016
C37   C     C_2   0.402734 0.487482 0.207273 0.297924
C38   C     C_1   0.461595 0.490801 0.275915 0.074742
C39   C     C_R   0.349712 0.499988 0.933006 0.471840
C40   C     C_3   0.725444 0.297422 0.219222 -0.137047
C41   C     C_R   0.449117 0.510943 0.076135 0.460326
C42   C     C_R   0.387159 0.527337 0.810332 -0.185032
C43   C     C_R   0.333350 0.525806 0.738059 0.061988
C44   C     C_R   0.087122 0.462569 0.754951 -0.065624
C45   C     C_3   0.972797 0.283808 0.713821 0.468234
C46   C     C_R   0.142520 0.463489 0.827451 -0.183311
C47   C     C_R   0.292506 0.496250 0.855828 -0.037327
C48   C     C_R   0.182504 0.495313 0.710875 0.161094
C49   C     C_3   0.973183 0.673371 0.715698 0.769765
C50   C     C_3   0.920884 0.719329 0.786558 -0.308825
C51   C     C_3   0.346546 0.304243 0.355271 0.346336
C52   C     C_3   0.424245 0.231037 0.334090 0.259775
C53   C     C_3   0.895959 0.217259 0.662401 -0.255213
C54   C     C_3   0.407678 0.260930 0.707369 0.449038
C55   C     C_3   0.461395 0.212958 0.760672 -0.301345
C56   C     C_R   0.002007 0.947904 0.524661 0.011244
H1    H     H_    0.353803 0.642694 0.279449 0.051810
H2    H     H_    0.551098 0.240491 0.326785 0.017754
H3    H     H_    0.517704 0.710227 0.296663 -0.048774
H4    H     H_    0.406394 0.692331 0.169982 0.084565
H5    H     H_    0.612603 0.660481 0.611613 0.020340
H6    H     H_    0.404978 0.680971 0.597680 0.054816
H7    H     H_    0.672909 0.778979 0.689952 0.124329
H8    H     H_    0.568908 0.791618 0.607282 0.062097
H9    H     H_    0.369208 0.782579 0.218339 0.115239
H10   H     H_    0.895981 0.846881 0.338098 0.072624
H11   H     H_    0.064270 0.306572 0.683877 -0.063752
H12   H     H_    0.664484 0.246325 0.224692 0.123730
H13   H     H_    0.840059 0.233213 0.612811 0.123939
H14   H     H_    0.987765 0.176765 0.646498 0.049845
H15   H     H_    0.802718 0.191865 0.689175 0.121745
H16   H     H_    0.290407 0.237924 0.680927 -0.012404
H17   H     H_    0.373468 0.213759 0.802103 0.109866
H18   H     H_    0.579855 0.232379 0.788606 0.128131
H19   H     H_    0.987475 0.733845 0.375929 0.084387
H20   H     H_    0.470861 0.156234 0.731084 0.080210
H21   H     H_    0.094497 0.802287 0.599170 0.101235
H22   H     H_    0.736358 0.194384 0.385818 0.097859
H23   H     H_    0.837184 0.281094 0.193042 0.127654
H24   H     H_    0.415372 0.865626 0.415052 0.109661
H25   H     H_    0.646980 0.651165 0.477360 0.066416
H26   H     H_    0.308531 0.997994 0.554457 0.094109
H27   H     H_    0.190337 0.920558 0.600396 0.070841
H28   H     H_    0.788581 0.723516 0.330345 -0.083286
H29   H     H_    0.507225 0.986331 0.421119 0.087305
H30   H     H_    0.701294 0.587004 0.148576 0.117034
H31   H     H_    0.502683 0.552615 0.830803 0.106560
H32   H     H_    0.068235 0.439365 0.861670 0.103459
H33   H     H_    0.631311 0.533958 0.362072 0.092914
H34   H     H_    0.973101 0.775322 0.795234 0.082305
H35   H     H_    0.067019 0.812775 0.291240 0.151080
H36   H     H_    0.869532 0.799529 0.244611 0.112449
H37   H     H_    0.657481 0.364798 0.321358 0.019657
H38   H     H_    0.524125 0.351952 0.196421 0.205753
H39   H     H_    0.686866 0.375003 0.156334 0.181023
H40   H     H_    0.202392 0.713735 0.738807 0.147380
H41   H     H_    0.177957 0.640440 0.672573 0.182974
H42   H     H_    0.911209 0.584556 0.744714 0.268098
H43   H     H_    0.125099 0.267191 0.311864 0.239843
H44   H     H_    0.135275 0.343694 0.374262 0.176706
H45   H     H_    0.960926 0.695044 0.833884 0.067069
H46   H     H_    0.381314 0.210432 0.229172 0.327965
H47   H     H_    0.323788 0.798530 0.671729 0.174397
H48   H     H_    0.436233 0.798003 0.749930 0.208815
H49   H     H_    0.110291 0.307158 0.810238 0.179396
H50   H     H_    0.966139 0.243614 0.807590 0.188287
H51   H     H_    0.341554 0.365404 0.711214 0.128162
H52   H     H_    0.504012 0.357706 0.766171 0.224572
H53   H     H_    0.177815 0.372780 0.599476 0.178325
H54   H     H_    0.224808 0.383552 0.512885 0.213415
H55   H     H_    0.497497 0.125029 0.498052 0.199200
H56   H     H_    0.788733 0.722126 0.784109 0.119008
H57   H     H_    0.507506 0.139911 0.593506 0.211468
H58   H     H_    0.649799 0.008796 0.324893 0.188504
H59   H     H_    0.516939 0.072779 0.361683 0.182954
H60   H     H_    0.202244 0.481567 0.149171 0.325565
H61   H     H_    0.019611 0.511964 0.638409 0.353640
H62   H     H_    0.802734 0.438609 0.259057 0.125016
H63   H     H_    0.963351 0.388099 0.259268 0.220871
H64   H     H_    0.405156 0.331623 0.408663 0.040570
H65   H     H_    0.209958 0.713859 0.198976 0.155670
H66   H     H_    0.417294 0.200711 0.378909 0.053160
N1    N     N_R   0.456579 0.552933 0.967118 -0.247051
N2    N     N_3   0.390563 0.334802 0.747438 -0.502890
N3    N     N_3   0.143705 0.363192 0.543993 -0.426038
N4    N     N_3   0.459166 0.109602 0.544361 -0.516476
N5    N     N_3   0.633559 0.063233 0.347363 -0.496219
N6    N     N_3   0.868429 0.407493 0.289711 -0.436670
N7    N     N_R   0.504737 0.558405 0.037077 -0.249205
N8    N     N_R   0.345338 0.456772 0.041388 -0.222594
N9    N     N_R   0.295760 0.451651 0.971465 -0.238313
N10   N     N_3   0.623967 0.332055 0.170399 -0.495986
N11   N     N_3   0.143928 0.662926 0.723951 -0.522779
N12   N     N_3   0.179655 0.291931 0.362676 -0.525793
N13   N     N_3   0.436353 0.812118 0.698856 -0.490770
N14   N     N_3   0.052617 0.261499 0.777178 -0.517305
O1    O     O_2   0.117290 0.676350 0.548250 -0.484947
O2    O     O_2   0.754453 0.462147 0.749241 -0.474483
O3    O     O_3   0.852582 0.332452 0.736702 -0.577737
O4    O     O_3   0.869060 0.586940 0.542720 -0.454938
O5    O     O_3   0.438990 0.460930 0.412890 -0.511830
O6    O     O_2   0.623700 0.539890 0.674570 -0.401057
O7    O     O_3   0.477841 0.663061 0.700086 -0.649742
O8    O     O_2   0.562319 0.248309 0.521073 -0.498096
O9    O     O_3   0.523755 0.259903 0.657021 -0.581554
O10   O     O_3   0.356990 0.628630 0.417250 -0.480157
O11   O     O_2   0.262497 0.757460 0.478765 -0.493392
O12   O     O_3   0.361029 0.344694 0.300668 -0.651113
O13   O     O_3   0.938078 0.711739 0.660018 -0.669768
O14   O     O_3   0.305201 0.742454 0.340922 -0.596652
O15   O     O_2   0.186600 0.460070 0.325400 -0.410725
O16   O     O_3   0.942970 0.591450 0.378940 -0.468625
O17   O     O_2   0.994474 0.532852 0.243435 -0.448470
O18   O     O_3   0.889031 0.607151 0.701719 -0.712164
O19   O     O_3   0.348599 0.188962 0.270255 -0.712106
O20   O     O_3   0.252967 0.455917 0.185558 -0.683515
O21   O     O_3   0.131884 0.498807 0.640519 -0.724631
O22   O     O_3   0.971922 0.673532 0.271082 -0.589472
O23   O     O_2   0.693010 0.323600 0.451730 -0.488958
O24   O     O_3   0.941240 0.413050 0.457220 -0.443150
O25   O     O_3   0.453310 0.371360 0.582690 -0.456956
O26   O     O_3   0.852400 0.302693 0.336541 -0.660478
O27   O     O_3   0.371310 0.539060 0.587050 -0.423018
O28   O     O_3   0.867330 0.408540 0.621000 -0.435941
P1    P     P_3+3 0.945300 0.665790 0.568510 1.015531
P2    P     P_3+3 0.360080 0.438780 0.334620 1.015623
P3    P     P_3+3 0.895320 0.591793 0.287644 0.982610
P4    P     P_3+3 0.865000 0.334200 0.431430 1.011046
P5    P     P_3+3 0.892812 0.417500 0.716097 1.000186
P6    P     P_3+3 0.378748 0.721839 0.423647 0.934239
P7    P     P_3+3 0.450281 0.568571 0.677514 1.023001
P8    P     P_3+3 0.437926 0.277380 0.574616 0.926234

loop_
_geom_bond_atom_site_label_1
_geom_bond_atom_site_label_2
_ccdc_geom_bond_type
C42   C47   A    
C50   H45   S    
C25   C27   A    
O11   P6    D    
Ba2   O6    S    
C35   H30   S    
O26   P4    S    
C17   C18   A    
C28   O26   S    
H46   O19   S    
Ba2   O24   S    
C39   N9    A    
O9    P8    S    
H55   N4    S    
C52   H2    S    
C51   C52   S    
C44   P5    S    
C5    C9    A    
C12   H1    S    
C51   N12   S    
C24   C25   A    
C28   H37   S    
C32   C38   D    
C15   C24   A    
C55   H18   S    
C10   P8    S    
C41   N8    A    
C33   C35   S    
C22   C24   A    
C32   C33   S    
C51   H64   S    
C36   C37   S    
O14   P6    S    
C34   H8    S    
C1    H4    S    
C29   P6    S    
Ba1   P1    S    
O27   P7    S    
C13   C14   A    
C9    C22   A    
C40   H12   S    
C54   C55   S    
C21   N5    S    
Ba1   Ba2   S    
C23   H5    S    
N1    N7    A    
C32   H33   S    
C45   H11   S    
H54   N3    S    
Ba1   O4    S    
O10   P6    S    
O4    P1    S    
C49   N11   S    
C6    N4    S    
H58   N5    S    
C6    C7    A    
O6    P7    D    
C21   C22   A    
O3    P5    S    
C54   N2    S    
C45   O3    S    
H59   N5    S    
C7    C8    A    
Ba2   O28   S    
C5    C56   A    
C53   H14   S    
Ba1   O1    S    
C15   C56   A    
H42   O18   S    
C49   O13   S    
O28   P5    S    
C46   H32   S    
Ba2   O5    S    
C31   P1    S    
C40   H23   S    
H39   N10   S    
Ba2   O23   S    
C39   C47   S    
C1    H65   S    
O13   P1    S    
C4    C16   S    
C44   C46   A    
C49   O18   S    
C54   H16   S    
C49   C50   S    
C39   N1    A    
C37   C38   D    
C3    C5    A    
C3    H26   S    
C34   H7    S    
N8    N9    A    
C4    H19   S    
H38   N10   S    
C2    H27   S    
Ba1   P2    S    
C28   N6    S    
C12   H3    S    
H40   N11   S    
H57   N4    S    
O16   P3    S    
C23   H6    S    
C11   N3    S    
O1    P1    D    
C35   C36   D    
Ba1   O5    S    
C43   P7    S    
O17   P3    D    
C29   C30   A    
O24   P4    S    
Ba1   O27   S    
O22   P3    S    
O12   P2    S    
C19   H21   S    
H41   N11   S    
H63   N6    S    
C10   C11   A    
Ba1   O15   S    
C17   C26   A    
Ba2   O27   S    
C1    C12   S    
H52   N2    S    
C18   C31   A    
C46   C47   A    
Ba2   P4    S    
Ba1   O24   S    
O2    P5    D    
C11   C13   A    
O15   P2    D    
H53   N3    S    
C51   O12   S    
C16   H36   S    
H62   N6    S    
C50   H34   S    
O23   P4    D    
C2    C56   A    
C42   C43   A    
C45   C53   S    
C34   N13   S    
H43   N12   S    
C30   H25   S    
C52   H66   S    
C26   C27   A    
C14   C20   A    
C55   H20   S    
C26   C29   A    
C1    H9    S    
O7    P7    S    
H48   N13   S    
Ba2   O25   S    
C3    C6    A    
C4    O22   S    
C50   H56   S    
C48   O21   S    
C44   C48   A    
C4    H28   S    
C40   N10   S    
C30   C31   A    
C55   H17   S    
H49   N14   S    
C41   N7    A    
C20   H22   S    
C36   C41   S    
C37   O20   S    
C8    C14   A    
C25   H29   S    
C52   O19   S    
H50   N14   S    
C2    C19   A    
C43   C48   A    
C54   O9    S    
Ba2   O4    S    
O8    P8    D    
C45   N14   S    
C15   C17   A    
C33   P3    S    
Ba1   O16   S    
C7    C10   A    
H44   N12   S    
O5    P2    S    
C38   P2    S    
H60   O20   S    
C8    C9    A    
C23   C34   S    
H47   N13   S    
C53   H15   S    
H51   N2    S    
C27   H24   S    
C18   C19   A    
C13   P4    S    
H61   O21   S    
C12   O14   S    
C16   H35   S    
C20   C21   A    
C28   C40   S    
Ba1   O10   S    
C23   O7    S    
O25   P8    S    
C16   H10   S    
C53   H13   S    
C42   H31   S    
