data_mof_unit_31186.cif
_audit_creation_date              2012-10-26T19:02:38-0400
_audit_creation_method            fapswitch 2.2
_symmetry_space_group_name_H-M    P1
_symmetry_Int_Tables_number       1
_space_group_crystal_system       triclinic
_cell_length_a                    17.291702
_cell_length_b                    8.652363
_cell_length_c                    7.598862
_cell_angle_alpha                 102.148857
_cell_angle_beta                  91.908427
_cell_angle_gamma                 96.093789
_cell_volume                      1103.34273747

loop_
_atom_site_label
_atom_site_type_symbol
_atom_type_description
_atom_site_fract_x
_atom_site_fract_y
_atom_site_fract_z
_atom_type_partial_charge
C1    C     C_R   0.495012 0.200285 0.455527 0.538999
C2    C     C_R   0.781957 0.560559 0.619957 -0.137695
C3    C     C_R   0.138067 0.431997 0.391356 -0.135271
C4    C     C_R   0.861930 0.568931 0.608675 -0.135241
C5    C     C_R   0.105571 0.480913 0.558051 0.049751
C6    C     C_R   0.894450 0.519988 0.442019 0.049763
C7    C     C_R   0.154392 0.534404 0.717115 0.014827
C8    C     C_R   0.845648 0.466132 0.282975 0.014899
C9    C     C_R   0.235128 0.539373 0.703780 -0.097784
C10   C     C_R   0.764902 0.460859 0.296288 -0.097637
C11   C     C_2   0.020749 0.476225 0.562868 -0.149511
C12   C     C_R   0.504988 0.799715 0.544473 0.538800
C13   C     C_2   0.979277 0.524856 0.437257 -0.149532
C14   C     C_3   0.122818 0.594220 0.899805 -0.258900
C15   C     C_3   0.099093 0.762360 0.915422 -0.295047
C16   C     C_3   0.065642 0.822452 0.097236 -0.455179
C17   C     C_3   0.877256 0.406266 0.100330 -0.258882
C18   C     C_3   0.901270 0.238376 0.085058 -0.295117
C19   C     C_3   0.934608 0.178117 0.903151 -0.455110
C20   C     C_2   0.483280 0.032063 0.438571 -0.073154
C21   C     C_2   0.516720 0.967938 0.561431 -0.073382
C22   C     C_R   0.351453 0.500331 0.523223 0.536420
C23   C     C_R   0.648548 0.499707 0.476782 0.536300
C24   C     C_R   0.267084 0.494107 0.535781 0.016191
C25   C     C_R   0.732923 0.506147 0.464253 0.016203
C26   C     C_R   0.218034 0.440041 0.380060 -0.137716
Cu1   Cu    Cu3+1 0.508700 0.517250 0.683000 1.189076
Cu2   Cu    Cu3+1 0.491300 0.482750 0.317000 1.189312
H1    H     H_    0.241298 0.402262 0.249344 0.164855
H2    H     H_    0.556641 0.038302 0.668807 0.157298
H3    H     H_    0.010824 0.747518 0.110268 0.140927
H4    H     H_    0.108146 0.820146 0.209296 0.162851
H5    H     H_    0.052481 0.946799 0.107449 0.146598
H6    H     H_    0.151000 0.845172 0.900452 0.171995
H7    H     H_    0.054615 0.763490 0.806938 0.170248
H8    H     H_    0.072870 0.510937 0.923519 0.125767
H9    H     H_    0.167875 0.597666 0.009017 0.140132
H10   H     H_    0.891946 0.179898 0.791169 0.162851
H11   H     H_    0.989298 0.253283 0.889673 0.140923
H12   H     H_    0.758674 0.598368 0.750643 0.165181
H13   H     H_    0.947979 0.053923 0.893241 0.146578
H14   H     H_    0.945900 0.237779 0.193424 0.170196
H15   H     H_    0.849524 0.155344 0.100482 0.172183
H16   H     H_    0.832138 0.402334 0.991084 0.140216
H17   H     H_    0.927071 0.489783 0.076438 0.125774
H18   H     H_    0.346072 0.107765 0.045518 0.343356
H19   H     H_    0.653064 0.892765 0.952982 0.343604
H20   H     H_    0.726875 0.417870 0.175713 0.141057
H21   H     H_    0.273163 0.582111 0.824372 0.141118
H22   H     H_    0.008033 0.565840 0.328012 0.119906
H23   H     H_    0.991976 0.435205 0.672072 0.119912
H24   H     H_    0.898569 0.614313 0.731037 0.106165
H25   H     H_    0.101417 0.386856 0.268972 0.106058
H26   H     H_    0.443358 0.961699 0.331199 0.157680
N1    N     N_2   0.478180 0.456750 0.041980 0.037165
N2    N     N_2   0.521820 0.543250 0.958020 0.037150
O1    O     O_R   0.505650 0.286040 0.618880 -0.470730
O2    O     O_2   0.483664 0.150653 0.916578 -0.292492
O3    O     O_3   0.363435 0.222476 0.091836 -0.519680
O4    O     O_2   0.516312 0.849320 0.083417 -0.292845
O5    O     O_2   0.619666 0.734398 0.225579 -0.293688
O6    O     O_3   0.636568 0.777529 0.908177 -0.519846
O7    O     O_R   0.494350 0.713960 0.381120 -0.470696
O8    O     O_R   0.490960 0.256910 0.309800 -0.442111
O9    O     O_R   0.509040 0.743090 0.690200 -0.442577
O10   O     O_R   0.394600 0.516230 0.672450 -0.486052
O11   O     O_R   0.605400 0.483770 0.327550 -0.486140
O12   O     O_R   0.379910 0.487100 0.363380 -0.493977
O13   O     O_R   0.620090 0.512900 0.636620 -0.494019
O14   O     O_2   0.380327 0.265634 0.774426 -0.294337
S1    S     S_3+6 0.427271 0.272488 0.945392 0.127981
S2    S     S_3+6 0.572723 0.727516 0.054609 0.128084

loop_
_geom_bond_atom_site_label_1
_geom_bond_atom_site_label_2
_ccdc_geom_bond_type
C2    C4    A    
N1    N2    D    
C1    O8    A    
C9    C24   A    
O14   S1    D    
Cu1   O9    S    
C19   H10   S    
C1    O1    A    
C16   H5    S    
C16   H4    S    
C3    C26   A    
C11   C13   D    
C12   O9    A    
C23   O13   A    
C15   H6    S    
C8    C17   S    
Cu1   O13   S    
H19   O6    S    
C18   H14   S    
C17   C18   S    
C17   H16   S    
O6    S2    S    
Cu1   O10   S    
C18   H15   S    
Cu1   O1    S    
C6    C13   S    
C14   H8    S    
C3    H25   S    
C22   O12   A    
O3    S1    S    
C19   H11   S    
C4    H24   S    
Cu2   O8    S    
O5    S2    D    
C4    C6    A    
C13   H22   S    
Cu2   O12   S    
Cu2   N1    S    
C24   C26   A    
C5    C11   S    
C2    C25   A    
C5    C7    A    
C23   C25   S    
C10   H20   S    
H18   O3    S    
C22   C24   S    
O2    S1    D    
C15   H7    S    
C8    C10   A    
C11   H23   S    
O4    S2    D    
C15   C16   S    
Cu2   O7    S    
C2    H12   S    
Cu2   O11   S    
C9    H21   S    
C20   C21   D    
C10   C25   A    
C26   H1    S    
C20   H26   S    
C18   C19   S    
C21   H2    S    
C23   O11   A    
Cu1   Cu2   S    
C7    C9    A    
C12   O7    A    
C14   C15   S    
C22   O10   A    
C1    C20   S    
C6    C8    A    
N2    S2    S    
Cu1   N2    S    
C16   H3    S    
C12   C21   S    
C7    C14   S    
N1    S1    S    
C19   H13   S    
C14   H9    S    
C17   H17   S    
C3    C5    A    
