data_mof_unit_29289.cif
_audit_creation_date              2012-10-26T21:13:42-0400
_audit_creation_method            fapswitch 2.2
_symmetry_space_group_name_H-M    P1
_symmetry_Int_Tables_number       1
_space_group_crystal_system       triclinic
_cell_length_a                    9.067984
_cell_length_b                    10.820719
_cell_length_c                    9.602365
_cell_angle_alpha                 90.604705
_cell_angle_beta                  90.439289
_cell_angle_gamma                 90.889635
_cell_volume                      942.009345011

loop_
_atom_site_label
_atom_site_type_symbol
_atom_type_description
_atom_site_fract_x
_atom_site_fract_y
_atom_site_fract_z
_atom_type_partial_charge
Br1   Br    Br    0.635109 0.155857 0.882889 -0.362142
C1    C     C_R   0.494263 0.262365 0.499869 0.535849
C2    C     C_R   0.602428 0.568066 0.928446 0.208933
C3    C     C_3   0.766526 0.556270 0.925976 0.098552
C4    C     C_R   0.220857 0.499783 0.499656 0.540925
C5    C     C_3   0.765050 0.559675 0.084069 -0.213938
C6    C     C_R   0.499469 0.737320 0.500616 0.541896
C7    C     C_R   0.779122 0.500036 0.500352 0.553924
C8    C     C_1   0.065582 0.499803 0.499550 -0.040376
C9    C     C_1   0.934374 0.499900 0.500481 -0.044022
C10   C     C_R   0.527613 0.064996 0.619850 -0.019930
C11   C     C_R   0.478068 0.128530 0.502811 -0.021005
C12   C     C_R   0.417817 0.930903 0.392345 -0.079065
C13   C     C_R   0.407403 0.059622 0.394234 0.223606
C14   C     C_R   0.487249 0.870021 0.502611 -0.064328
C15   C     C_R   0.530443 0.937848 0.620216 -0.025086
C16   C     C_3   0.672678 0.936830 0.701066 0.133161
C17   C     C_3   0.667993 0.078127 0.702020 0.107952
C18   C     C_R   0.601367 0.569404 0.075347 0.098095
C19   C     C_R   0.390235 0.442023 0.069755 0.359615
C20   C     C_R   0.390424 0.443927 0.922463 0.096868
Cu1   Cu    Cu3+1 0.499990 0.499980 0.640670 1.027852
Cu2   Cu    Cu3+1 0.500010 0.500020 0.359330 0.986889
H1    H     H_    0.823601 0.636368 0.876824 0.138423
H2    H     H_    0.314129 0.346333 0.217937 0.383002
H3    H     H_    0.919096 0.443040 0.874674 0.330065
H4    H     H_    0.801456 0.472050 0.132040 0.200971
H5    H     H_    0.817543 0.644829 0.128811 0.113252
H6    H     H_    0.369839 0.878823 0.305784 0.170653
H7    H     H_    0.765787 0.898540 0.640455 0.125659
H8    H     H_    0.758334 0.121935 0.641317 0.104414
H9    H     H_    0.304386 0.394870 0.864854 0.150533
H10   H     H_    0.269693 0.180529 0.337174 0.319797
H11   H     H_    0.557861 0.892702 0.867628 0.362557
N1    N     N_R   0.500920 0.500930 0.147930 -0.244876
N2    N     N_R   0.500930 0.500890 0.852020 -0.238599
O1    O     O_R   0.500000 0.319640 0.618810 -0.463845
O2    O     O_3   0.660242 0.882952 0.833597 -0.665178
O3    O     O_3   0.277008 0.376764 0.129249 -0.684231
O4    O     O_3   0.809670 0.440675 0.874800 -0.624585
O5    O     O_R   0.500020 0.319680 0.381230 -0.498594
O6    O     O_R   0.288380 0.499980 0.618770 -0.522962
O7    O     O_R   0.288400 0.500020 0.381190 -0.500653
O8    O     O_R   0.499980 0.680320 0.618770 -0.485860
O9    O     O_R   0.500000 0.680360 0.381190 -0.508017
O10   O     O_R   0.711600 0.499980 0.618810 -0.443787
O11   O     O_R   0.711620 0.500020 0.381230 -0.512869
O12   O     O_3   0.325748 0.113837 0.291273 -0.649496

loop_
_geom_bond_atom_site_label_1
_geom_bond_atom_site_label_2
_ccdc_geom_bond_type
C10   C11   A    
C10   C17   S    
C2    C18   A    
C5    C18   S    
C12   C13   A    
Cu1   N2    S    
C8    C9    T    
C5    H4    S    
Cu2   O5    S    
C4    O6    A    
C1    C11   S    
C6    C14   S    
C16   C17   S    
C4    O7    A    
C7    O11   A    
C20   N2    A    
C18   N1    A    
C6    O8    A    
H2    O3    S    
C4    C8    S    
C16   H7    S    
C19   N1    A    
C1    O1    A    
H3    O4    S    
Br1   C17   S    
Cu1   O6    S    
Cu1   O8    S    
C2    N2    A    
Cu2   O9    S    
C6    O9    A    
C12   H6    S    
Cu1   O10   S    
C11   C13   A    
Cu2   N1    S    
C16   O2    S    
C12   C14   A    
C3    H1    S    
C20   H9    S    
C7    O10   A    
Cu2   O11   S    
C14   C15   A    
C1    O5    A    
C2    C3    S    
Cu2   O7    S    
C19   C20   A    
C3    C5    S    
C10   C15   A    
C19   O3    S    
H10   O12   S    
Cu1   Cu2   S    
C13   O12   S    
C17   H8    S    
H11   O2    S    
Cu1   O1    S    
C7    C9    S    
C5    H5    S    
C3    O4    S    
C15   C16   S    
