data_mof_unit_13597.cif
_audit_creation_date              2012-12-10T21:19:08-0500
_audit_creation_method            fapswitch 2.2
_symmetry_space_group_name_H-M    P1
_symmetry_Int_Tables_number       1
_space_group_crystal_system       triclinic
_cell_length_a                    15.69728
_cell_length_b                    17.338673
_cell_length_c                    16.767555
_cell_angle_alpha                 90.259859
_cell_angle_beta                  92.058285
_cell_angle_gamma                 91.926869
_cell_volume                      4558.02695892

loop_
_atom_site_label
_atom_site_type_symbol
_atom_type_description
_atom_site_fract_x
_atom_site_fract_y
_atom_site_fract_z
_atom_type_partial_charge
C1    C     C_R   0.501606 0.352826 0.499671 0.910430
C2    C     C_R   0.490887 0.139070 0.537815 -0.169608
C3    C     C_R   0.556804 0.886486 0.483807 0.036753
C4    C     C_R   0.559668 0.116112 0.494376 0.047942
C5    C     C_1   0.570504 0.967470 0.482861 -0.031167
C6    C     C_1   0.571686 0.036048 0.486494 -0.032112
C7    C     C_R   0.444371 0.452061 0.830806 -0.456305
C8    C     C_R   0.557993 0.545218 0.169482 -0.465315
C9    C     C_R   0.441866 0.454708 0.746240 0.525123
C10   C     C_R   0.557048 0.546123 0.253879 0.526128
C11   C     C_R   0.561721 0.542763 0.749820 0.406415
C12   C     C_R   0.498045 0.647557 0.500011 0.882464
C13   C     C_R   0.440799 0.454719 0.250953 0.418355
C14   C     C_R   0.563948 0.543519 0.835228 0.302853
C15   C     C_R   0.443013 0.449620 0.165905 0.282804
C16   C     C_R   0.337338 0.500928 0.498619 0.873909
C17   C     C_R   0.662467 0.502379 0.501210 0.948282
C18   C     C_R   0.502851 0.498338 0.876053 -0.080798
C19   C     C_R   0.499931 0.497956 0.124670 -0.068964
C20   C     C_1   0.499606 0.498641 0.963841 0.039448
C21   C     C_1   0.499450 0.498472 0.036867 0.067573
C22   C     C_3   0.973105 0.488814 0.556724 0.370512
C23   C     C_R   0.554504 0.770182 0.561339 0.447528
C24   C     C_3   0.027029 0.574397 0.435643 0.343176
C25   C     C_3   0.024060 0.458882 0.487411 0.312360
C26   C     C_3   0.976485 0.604610 0.506924 0.337541
C27   C     C_1   0.249105 0.511307 0.495574 -0.234316
C28   C     C_1   0.750755 0.515494 0.503275 -0.231223
C29   C     C_3   0.033431 0.560246 0.567122 -0.017716
C30   C     C_3   0.966326 0.501983 0.426697 -0.067465
C31   C     C_3   0.084243 0.530087 0.496480 -0.089516
C32   C     C_3   0.916196 0.532548 0.497784 -0.089418
C33   C     C_1   0.174695 0.521316 0.494707 0.083600
C34   C     C_R   0.588786 0.247049 0.453912 0.419608
C35   C     C_1   0.825491 0.526424 0.502111 0.070673
C36   C     C_R   0.581175 0.846689 0.552030 -0.258644
C37   C     C_R   0.609368 0.169311 0.453453 -0.273098
C38   C     C_3   0.077674 0.358741 0.412846 0.085374
C39   C     C_3   0.143717 0.296558 0.423712 -0.328347
C40   C     C_3   0.156030 0.252786 0.345909 -0.982358
C41   C     C_3   0.001310 0.738412 0.515488 0.100548
C42   C     C_3   0.999286 0.789242 0.590142 -0.325216
C43   C     C_3   0.062160 0.858014 0.585604 -0.983379
C44   C     C_3   0.702679 0.568658 0.718893 0.193354
C45   C     C_R   0.505709 0.732000 0.499517 -0.225039
C46   C     C_3   0.759901 0.639127 0.741429 -0.345362
C47   C     C_3   0.853658 0.618664 0.744379 -0.975321
C48   C     C_3   0.295734 0.427522 0.270003 0.122440
C49   C     C_3   0.275843 0.513322 0.256883 -0.391619
C50   C     C_3   0.181402 0.522613 0.236996 -0.921432
C51   C     C_3   0.680450 0.561739 0.923580 0.069463
C52   C     C_3   0.711844 0.617878 0.989613 -0.311039
C53   C     C_3   0.776293 0.580971 0.046796 -0.996363
C54   C     C_3   0.421698 0.326176 0.122686 0.073440
C55   C     C_3   0.358169 0.270273 0.079659 -0.314838
C56   C     C_R   0.519119 0.270900 0.498253 -0.179224
C57   C     C_3   0.391881 0.188796 0.077338 -0.978926
C58   C     C_3   0.898779 0.377742 0.596832 0.157533
C59   C     C_3   0.822255 0.363914 0.649427 -0.384039
C60   C     C_3   0.768029 0.293576 0.621380 -0.937451
C61   C     C_3   0.012469 0.669961 0.337917 0.106462
C62   C     C_3   0.009363 0.660445 0.247106 -0.343942
C63   C     C_3   0.943110 0.711574 0.207494 -0.992501
C64   C     C_3   0.928070 0.466037 0.348688 -0.390360
C65   C     C_3   0.853244 0.509171 0.311590 -0.816574
C66   C     C_3   0.065539 0.589124 0.650030 -0.333436
C67   C     C_R   0.473677 0.775129 0.433684 0.095116
C68   C     C_3   0.153144 0.630026 0.650071 -0.913930
C69   C     C_3   0.517637 0.747313 0.689998 0.147601
C70   C     C_3   0.564670 0.772249 0.767742 -0.331290
C71   C     C_3   0.503609 0.777960 0.836134 -0.934513
C72   C     C_3   0.629699 0.293586 0.333361 0.095405
C73   C     C_3   0.682286 0.357437 0.293689 -0.309122
C74   C     C_3   0.671917 0.353634 0.202973 -1.002171
C75   C     C_3   0.405993 0.743634 0.373712 -0.399079
C76   C     C_3   0.323635 0.787982 0.377344 -0.874091
C77   C     C_3   0.388090 0.236072 0.580875 -0.386577
C78   C     C_R   0.468518 0.216153 0.539304 0.097990
C79   C     C_3   0.309192 0.199969 0.537463 -0.929278
C80   C     C_3   0.301438 0.420710 0.715702 0.087749
C81   C     C_3   0.244146 0.364356 0.665986 -0.371246
C82   C     C_3   0.149921 0.379183 0.674779 -0.874583
C83   C     C_3   0.612284 0.668628 0.283461 0.102665
C84   C     C_3   0.699409 0.701097 0.260169 -0.365525
C85   C     C_3   0.698578 0.788346 0.248973 -0.964221
C86   C     C_R   0.502778 0.851739 0.425449 -0.183978
H1    H     H_    0.618589 0.875667 0.599594 0.153843
H2    H     H_    0.122609 0.254600 0.469525 0.238208
H3    H     H_    0.256657 0.304547 0.685620 0.223778
H4    H     H_    0.133430 0.379820 0.738630 0.249157
H5    H     H_    0.110882 0.333048 0.643378 0.279943
H6    H     H_    0.134861 0.435040 0.647044 0.288452
H7    H     H_    0.595024 0.697152 0.339697 0.179123
H8    H     H_    0.563018 0.684016 0.237009 0.103087
H9    H     H_    0.747773 0.687529 0.307679 0.235311
H10   H     H_    0.717579 0.673492 0.203666 0.219794
H11   H     H_    0.651815 0.803145 0.200614 0.263365
H12   H     H_    0.762877 0.810054 0.232422 0.269367
H13   H     H_    0.096766 0.219238 0.328233 0.266292
H14   H     H_    0.681533 0.817178 0.305250 0.270891
H15   H     H_    0.208595 0.212019 0.354232 0.269465
H16   H     H_    0.171972 0.293146 0.297109 0.251224
H17   H     H_    0.982446 0.774587 0.463809 0.137649
H18   H     H_    0.067560 0.719925 0.506500 0.140274
H19   H     H_    0.933882 0.810675 0.596352 0.231322
H20   H     H_    0.015827 0.755387 0.644015 0.224282
H21   H     H_    0.128245 0.837809 0.581054 0.263711
H22   H     H_    0.059014 0.893895 0.640369 0.267998
H23   H     H_    0.663368 0.150482 0.420855 0.148809
H24   H     H_    0.046076 0.894160 0.533004 0.265540
H25   H     H_    0.724847 0.547450 0.661478 0.166481
H26   H     H_    0.712697 0.520370 0.761302 0.059831
H27   H     H_    0.750144 0.685069 0.696281 0.253302
H28   H     H_    0.743294 0.662278 0.800380 0.231140
H29   H     H_    0.865737 0.574400 0.790735 0.264028
H30   H     H_    0.893893 0.671058 0.759035 0.259898
H31   H     H_    0.871575 0.595967 0.685467 0.295924
H32   H     H_    0.255427 0.406508 0.318881 0.157489
H33   H     H_    0.275719 0.392163 0.216892 0.174624
H34   H     H_    0.480285 0.885570 0.375197 0.152363
H35   H     H_    0.294020 0.547684 0.311203 0.243157
H36   H     H_    0.311754 0.537447 0.206371 0.210627
H37   H     H_    0.160728 0.486780 0.184270 0.253915
H38   H     H_    0.170738 0.583848 0.222747 0.271159
H39   H     H_    0.142777 0.505789 0.288557 0.281500
H40   H     H_    0.735718 0.548808 0.887211 0.136842
H41   H     H_    0.658953 0.506496 0.950828 0.137221
H42   H     H_    0.742287 0.669722 0.962348 0.218496
H43   H     H_    0.656729 0.636930 0.023450 0.223467
H44   H     H_    0.746068 0.531046 0.077554 0.266996
H45   H     H_    0.452582 0.096083 0.568504 0.149469
H46   H     H_    0.799633 0.623940 0.092432 0.267772
H47   H     H_    0.831726 0.561195 0.013797 0.268678
H48   H     H_    0.433513 0.304994 0.184698 0.149876
H49   H     H_    0.482526 0.327194 0.090332 0.140314
H50   H     H_    0.296894 0.269153 0.110966 0.218125
H51   H     H_    0.345952 0.290395 0.017558 0.225262
H52   H     H_    0.452492 0.188350 0.045136 0.264817
H53   H     H_    0.344352 0.149657 0.045699 0.266790
H54   H     H_    0.403079 0.167000 0.138903 0.264289
H55   H     H_    0.942154 0.328660 0.603617 0.171634
H56   H     H_    0.401012 0.413526 0.861491 0.187382
H57   H     H_    0.875168 0.378972 0.533292 0.140889
H58   H     H_    0.845050 0.355240 0.712169 0.225047
H59   H     H_    0.781991 0.415379 0.647579 0.222270
H60   H     H_    0.742850 0.302219 0.559446 0.290498
H61   H     H_    0.713234 0.285145 0.660871 0.266781
H62   H     H_    0.806521 0.240983 0.623449 0.260595
H63   H     H_    0.041099 0.728104 0.351617 0.131103
H64   H     H_    0.946571 0.668266 0.360365 0.153404
H65   H     H_    0.072702 0.677078 0.223982 0.217281
H66   H     H_    0.994174 0.599244 0.230690 0.241830
H67   H     H_    0.604525 0.580839 0.139477 0.193304
H68   H     H_    0.878417 0.694245 0.226561 0.264544
H69   H     H_    0.944685 0.705159 0.141652 0.271869
H70   H     H_    0.956777 0.773084 0.223563 0.267660
H71   H     H_    0.794761 0.498067 0.345250 0.272090
H72   H     H_    0.866524 0.571895 0.309751 0.260308
H73   H     H_    0.840107 0.488216 0.249549 0.241008
H74   H     H_    0.979213 0.463226 0.304818 0.201827
H75   H     H_    0.904499 0.406403 0.361078 0.194295
H76   H     H_    0.203406 0.587691 0.641542 0.259802
H77   H     H_    0.156446 0.674139 0.602684 0.264438
H78   H     H_    0.106836 0.406931 0.378406 0.124032
H79   H     H_    0.166319 0.658984 0.708617 0.247623
H80   H     H_    0.018720 0.628810 0.673490 0.214822
H81   H     H_    0.068437 0.540100 0.692142 0.226199
H82   H     H_    0.480409 0.692838 0.700237 0.176060
H83   H     H_    0.470741 0.792372 0.673739 0.089201
H84   H     H_    0.613542 0.729875 0.783966 0.273828
H85   H     H_    0.597485 0.829248 0.759159 0.198009
H86   H     H_    0.454429 0.820926 0.822059 0.252029
H87   H     H_    0.539783 0.796479 0.891447 0.267734
H88   H     H_    0.471886 0.720880 0.846876 0.275290
H89   H     H_    0.021586 0.333571 0.378582 0.148229
H90   H     H_    0.561282 0.299224 0.314635 0.151356
H91   H     H_    0.652056 0.236918 0.312550 0.125583
H92   H     H_    0.661499 0.414439 0.314279 0.258674
H93   H     H_    0.750733 0.351943 0.311307 0.220730
H94   H     H_    0.693975 0.297693 0.180339 0.265082
H95   H     H_    0.710437 0.401188 0.176398 0.271919
H96   H     H_    0.604102 0.360238 0.184232 0.251924
H97   H     H_    0.299534 0.786525 0.438847 0.260394
H98   H     H_    0.333973 0.848878 0.358930 0.254669
H99   H     H_    0.274274 0.760705 0.336194 0.253431
H100  H     H_    0.205430 0.324105 0.444949 0.213189
H101  H     H_    0.430858 0.747496 0.312591 0.193520
H102  H     H_    0.387447 0.682584 0.384383 0.223890
H103  H     H_    0.307419 0.217883 0.473981 0.272514
H104  H     H_    0.309442 0.136040 0.540410 0.266322
H105  H     H_    0.250671 0.219325 0.565673 0.249641
H106  H     H_    0.391710 0.215144 0.643414 0.216886
H107  H     H_    0.379830 0.298898 0.583397 0.241881
H108  H     H_    0.287427 0.480874 0.697875 0.149730
H109  H     H_    0.285975 0.412543 0.779343 0.123905
H110  H     H_    0.258908 0.369873 0.601938 0.232236
N1    N     N_R   0.500020 0.500030 0.707230 -0.179920
N2    N     N_R   0.499980 0.499970 0.292770 -0.178272
O1    O     O_R   0.500000 0.389130 0.566570 -0.595752
O2    O     O_3   0.940280 0.676980 0.520270 -0.639768
O3    O     O_3   0.616791 0.590744 0.708395 -0.574961
O4    O     O_3   0.381450 0.413179 0.294242 -0.618779
O5    O     O_3   0.616568 0.597544 0.876042 -0.637068
O6    O     O_3   0.387394 0.400359 0.123021 -0.643491
O7    O     O_3   0.943395 0.446207 0.622469 -0.650359
O8    O     O_3   0.066306 0.614706 0.372766 -0.646733
O9    O     O_3   0.577984 0.733114 0.631056 -0.604274
O10   O     O_3   0.640964 0.301125 0.417095 -0.656329
O11   O     O_3   0.387609 0.405001 0.702041 -0.616571
O12   O     O_R   0.500000 0.610870 0.433430 -0.630755
O13   O     O_3   0.618022 0.588609 0.298405 -0.609539
O14   O     O_R   0.499990 0.389100 0.433480 -0.565606
O15   O     O_R   0.500010 0.610900 0.566520 -0.555820
O16   O     O_R   0.376780 0.500010 0.566530 -0.603941
O17   O     O_R   0.623220 0.499990 0.433470 -0.571515
O18   O     O_R   0.376780 0.499980 0.433450 -0.593834
O19   O     O_R   0.623220 0.500020 0.566550 -0.615322
O20   O     O_3   0.051456 0.382035 0.488516 -0.651533
Zn1   Zn    Zn3+2 0.500000 0.500020 0.588860 1.007021
Zn2   Zn    Zn3+2 0.500000 0.499980 0.411140 1.001414

loop_
_geom_bond_atom_site_label_1
_geom_bond_atom_site_label_2
_ccdc_geom_bond_type
C25   C31   S    
C66   C68   S    
C34   C56   A    
C23   C45   A    
C22   C29   S    
C30   C64   S    
C34   C37   A    
C41   C42   S    
C38   O20   S    
C2    C4    A    
C75   H102  S    
C65   H73   S    
C40   H13   S    
C15   O6    S    
O15   Zn1   S    
C82   H6    S    
C72   O10   S    
C74   H95   S    
C77   C78   S    
C27   C33   T    
C26   C32   S    
C62   H66   S    
C66   H81   S    
C53   H47   S    
C52   H43   S    
C39   H2    S    
C19   C21   S    
C1    C56   S    
C24   C26   S    
C63   H70   S    
O16   Zn1   S    
C11   O3    S    
C38   C39   S    
C11   C14   A    
C49   H36   S    
C55   H50   S    
C54   H48   S    
C48   O4    S    
C56   C78   A    
C13   O4    S    
C57   H53   S    
C84   H10   S    
C16   O18   A    
C14   C18   A    
C77   H107  S    
C85   H12   S    
C40   H15   S    
C46   C47   S    
C39   H100  S    
C58   H57   S    
C28   C35   T    
C44   C46   S    
C22   C25   S    
C45   C67   A    
C76   H98   S    
C31   C33   S    
C70   C71   S    
C43   H24   S    
C76   H97   S    
C26   O2    S    
C61   H64   S    
C37   H23   S    
C61   O8    S    
C72   C73   S    
C81   H3    S    
C68   H79   S    
C16   C27   S    
C38   H78   S    
C59   C60   S    
C79   H105  S    
C1    O14   A    
C51   H40   S    
C25   O20   S    
C1    O1    A    
C60   H60   S    
C12   O15   A    
C41   O2    S    
C10   N2    A    
C9    N1    A    
C81   C82   S    
C48   H33   S    
C24   C30   S    
C77   C79   S    
C36   H1    S    
C52   H42   S    
C47   H30   S    
C75   H101  S    
C69   O9    S    
C8    C19   A    
C13   N2    A    
C46   H28   S    
C51   C52   S    
C32   C35   S    
C50   H38   S    
C84   C85   S    
C4    C6    S    
C62   H65   S    
O12   Zn2   S    
C9    O11   S    
C39   C40   S    
C53   H46   S    
C66   H80   S    
C12   C45   S    
C69   H83   S    
O14   Zn2   S    
C58   O7    S    
C34   O10   S    
C58   C59   S    
C83   H8    S    
C40   H16   S    
C79   H104  S    
C82   H5    S    
C41   H17   S    
C57   H54   S    
C84   H9    S    
C15   C19   A    
C75   C76   S    
C11   N1    A    
C62   C63   S    
C2    C78   A    
C72   H91   S    
C83   C84   S    
C7    C18   A    
C49   H35   S    
C14   O5    S    
C64   H74   S    
C2    H45   S    
O1    Zn1   S    
C50   H39   S    
C43   H21   S    
C4    C37   A    
C16   O16   A    
C8    H67   S    
C42   H20   S    
C47   H29   S    
C22   C32   S    
C51   O5    S    
C73   H92   S    
C44   H26   S    
C65   H71   S    
C48   C49   S    
C60   H61   S    
C59   H58   S    
C23   C36   A    
C55   C57   S    
C44   O3    S    
C67   C75   S    
C42   C43   S    
C73   C74   S    
C59   H59   S    
C17   O19   A    
C52   C53   S    
C68   H77   S    
C25   C30   S    
C7    C9    A    
C80   H109  S    
C54   C55   S    
C67   C86   A    
C46   H27   S    
C23   O9    S    
C38   H89   S    
C77   H106  S    
N2    Zn2   S    
C50   H37   S    
O18   Zn2   S    
C63   H68   S    
C80   C81   S    
C3    C5    S    
C55   H51   S    
C48   H32   S    
C71   H88   S    
C74   H96   S    
C68   H76   S    
O19   Zn1   S    
C80   H108  S    
C82   H4    S    
C41   H18   S    
C51   H41   S    
C64   C65   S    
C13   C15   A    
C70   H84   S    
C69   H82   S    
C12   O12   A    
C29   C31   S    
C85   H14   S    
C17   O17   A    
O17   Zn2   S    
C81   H110  S    
C30   C32   S    
C58   H55   S    
C64   H75   S    
C5    C6    T    
C3    C36   A    
C17   C28   S    
C54   O6    S    
C54   H49   S    
C24   O8    S    
C57   H52   S    
C18   C20   S    
C43   H22   S    
C72   H90   S    
C70   H85   S    
C61   C62   S    
C42   H19   S    
C69   C70   S    
C24   C31   S    
C85   H11   S    
C63   H69   S    
C29   C66   S    
C73   H93   S    
C44   H25   S    
C71   H87   S    
C10   O13   S    
C47   H31   S    
C74   H94   S    
C20   C21   T    
C22   O7    S    
C26   C29   S    
C8    C10   A    
C49   C50   S    
C79   H103  S    
C71   H86   S    
C86   H34   S    
C53   H44   S    
C60   H62   S    
N1    Zn1   S    
C61   H63   S    
C7    H56   S    
C83   O13   S    
C76   H99   S    
C65   H72   S    
C80   O11   S    
C3    C86   A    
C83   H7    S    
