data_mof_unit_26668.cif
_audit_creation_date              2012-12-10T17:49:43-0500
_audit_creation_method            fapswitch 2.2
_symmetry_space_group_name_H-M    P1
_symmetry_Int_Tables_number       1
_space_group_crystal_system       triclinic
_cell_length_a                    10.486378
_cell_length_b                    10.715607
_cell_length_c                    9.971408
_cell_angle_alpha                 89.276894
_cell_angle_beta                  89.620772
_cell_angle_gamma                 93.30387
_cell_volume                      1118.48456456

loop_
_atom_site_label
_atom_site_type_symbol
_atom_type_description
_atom_site_fract_x
_atom_site_fract_y
_atom_site_fract_z
_atom_type_partial_charge
C1    C     C_R   0.507538 0.260295 0.501905 0.864184
C2    C     C_R   0.496591 0.057869 0.630443 0.094306
C3    C     C_R   0.513243 0.126336 0.507579 -0.108839
C4    C     C_R   0.257599 0.499119 0.500538 0.842848
C5    C     C_R   0.514729 0.064780 0.384871 -0.229383
C6    C     C_R   0.498958 0.937335 0.382063 -0.227670
C7    C     C_R   0.471669 0.870517 0.500712 -0.106400
C8    C     C_R   0.329963 0.334769 0.142230 -0.193773
C9    C     C_R   0.245290 0.253949 0.073868 -0.213153
C10   C     C_R   0.244212 0.254416 0.934249 0.235496
C11   C     C_R   0.329526 0.336018 0.863439 -0.157573
C12   C     C_3   0.960978 0.502389 0.372009 -0.132355
C13   C     C_R   0.416213 0.418992 0.929510 0.043331
C14   C     C_R   0.416352 0.418756 0.073485 0.110987
C15   C     C_R   0.580913 0.579131 0.070131 0.213145
C16   C     C_R   0.487747 0.738394 0.499784 0.869110
C17   C     C_R   0.581042 0.579061 0.926673 0.224071
C18   C     C_R   0.742412 0.500461 0.499516 0.855251
C19   C     C_3   0.039130 0.496579 0.628327 -0.143441
C20   C     C_3   0.950621 0.395392 0.562247 -0.179143
C21   C     C_3   0.877637 0.499974 0.498558 0.037042
C22   C     C_3   0.963442 0.601156 0.564511 -0.189028
C23   C     C_3   0.036664 0.397821 0.435843 -0.180699
C24   C     C_3   0.049429 0.603594 0.438098 -0.177457
C25   C     C_3   0.350998 0.863192 0.986292 -0.936026
C26   C     C_3   0.673227 0.670596 0.139343 -0.845375
C27   C     C_3   0.152763 0.168315 0.859219 -0.934978
C28   C     C_3   0.674020 0.670568 0.854397 -0.819079
C29   C     C_3   0.122416 0.499053 0.501731 0.037429
C30   C     C_R   0.520985 0.107635 0.759654 -0.228620
C31   C     C_R   0.477025 0.043633 0.875097 -0.153990
C32   C     C_R   0.408500 0.928751 0.864508 0.247520
C33   C     C_R   0.397080 0.873167 0.738698 -0.177752
C34   C     C_R   0.453109 0.932627 0.623048 0.049103
H1    H     H_    0.905515 0.310800 0.612562 0.131187
H2    H     H_    0.925186 0.504800 0.267509 0.145070
H3    H     H_    0.071502 0.315250 0.383678 0.125505
H4    H     H_    0.529871 0.114780 0.290413 0.172639
H5    H     H_    0.577670 0.193498 0.774726 0.183272
H6    H     H_    0.493929 0.085447 0.972207 0.145105
H7    H     H_    0.368406 0.918873 0.078258 0.238349
H8    H     H_    0.246221 0.848035 0.973128 0.241364
H9    H     H_    0.393162 0.771307 0.000131 0.248245
H10   H     H_    0.653157 0.767870 0.110609 0.213091
H11   H     H_    0.669413 0.666916 0.247811 0.293994
H12   H     H_    0.343660 0.783949 0.732086 0.171499
H13   H     H_    0.772984 0.652156 0.111668 0.209694
H14   H     H_    0.092729 0.107545 0.928541 0.241823
H15   H     H_    0.089069 0.224282 0.796973 0.234157
H16   H     H_    0.206712 0.107669 0.792555 0.253957
H17   H     H_    0.671616 0.667538 0.746063 0.290969
H18   H     H_    0.653892 0.767829 0.880742 0.221880
H19   H     H_    0.773524 0.651971 0.882076 0.206895
H20   H     H_    0.510492 0.891312 0.286986 0.173830
H21   H     H_    0.324922 0.329100 0.248956 0.211627
H22   H     H_    0.180189 0.190964 0.130592 0.146060
H23   H     H_    0.326403 0.331566 0.756747 0.215033
H24   H     H_    0.075087 0.493959 0.732778 0.147519
H25   H     H_    0.928710 0.683753 0.616699 0.131478
H26   H     H_    0.094600 0.688190 0.387852 0.134847
N1    N     N_R   0.498800 0.498800 0.142780 -0.133641
N2    N     N_R   0.498760 0.498720 0.857170 -0.138071
O1    O     O_R   0.500000 0.316780 0.614690 -0.646935
O2    O     O_R   0.499990 0.316750 0.385360 -0.634717
O3    O     O_R   0.313960 0.499980 0.614650 -0.647116
O4    O     O_R   0.313940 0.499960 0.385310 -0.629887
O5    O     O_R   0.500010 0.683250 0.614640 -0.633483
O6    O     O_R   0.500000 0.683220 0.385310 -0.627730
O7    O     O_R   0.686060 0.500040 0.614690 -0.627108
O8    O     O_R   0.686040 0.500020 0.385350 -0.630556
Zn1   Zn    Zn3+2 0.500010 0.500020 0.653130 0.909779
Zn2   Zn    Zn3+2 0.499990 0.499980 0.346870 0.921287

loop_
_geom_bond_atom_site_label_1
_geom_bond_atom_site_label_2
_ccdc_geom_bond_type
C10   C27   S    
C27   H14   S    
C18   O8    A    
C18   C21   S    
C28   H18   S    
C19   C20   S    
C25   H9    S    
C26   H10   S    
C12   C23   S    
C23   C29   S    
C4    O3    A    
C28   H17   S    
C31   H6    S    
O7    Zn1   S    
C24   C29   S    
C26   H11   S    
C20   H1    S    
O4    Zn2   S    
C13   N2    A    
C8    C9    A    
C30   H5    S    
C16   O6    A    
C13   C14   A    
C12   H2    S    
C9    C10   A    
C4    C29   S    
C27   H16   S    
O6    Zn2   S    
C2    C34   A    
C18   O7    A    
C21   C22   S    
C33   H12   S    
C6    H20   S    
C1    O1    A    
C8    H21   S    
C19   H24   S    
C19   C22   S    
C5    H4    S    
C25   H7    S    
C22   H25   S    
C9    H22   S    
C15   C26   S    
C23   H3    S    
C14   N1    A    
C12   C21   S    
C1    C3    S    
C17   N2    A    
C31   C32   A    
C20   C23   S    
C30   C31   A    
C24   H26   S    
C33   C34   A    
C15   N1    A    
C16   O5    A    
C26   H13   S    
N1    Zn2   S    
C7    C16   S    
O1    Zn1   S    
C7    C34   A    
C22   C24   S    
C19   C29   S    
C1    O2    A    
C15   C17   A    
C8    C14   A    
C17   C28   S    
C3    C5    A    
C25   H8    S    
C28   H19   S    
C6    C7    A    
C12   C24   S    
C2    C30   A    
C32   C33   A    
C2    C3    A    
O3    Zn1   S    
C4    O4    A    
C11   C13   A    
C5    C6    A    
C25   C32   S    
N2    Zn1   S    
O5    Zn1   S    
O2    Zn2   S    
C10   C11   A    
C20   C21   S    
O8    Zn2   S    
C11   H23   S    
C27   H15   S    
