data_mof_unit_57973.cif
_audit_creation_date              2012-12-10T16:51:29-0500
_audit_creation_method            fapswitch 2.2
_symmetry_space_group_name_H-M    P1
_symmetry_Int_Tables_number       1
_space_group_crystal_system       triclinic
_cell_length_a                    7.823652
_cell_length_b                    8.56613
_cell_length_c                    12.047196
_cell_angle_alpha                 92.325823
_cell_angle_beta                  101.060292
_cell_angle_gamma                 94.219427
_cell_volume                      789.00495153

loop_
_atom_site_label
_atom_site_type_symbol
_atom_type_description
_atom_site_fract_x
_atom_site_fract_y
_atom_site_fract_z
_atom_type_partial_charge
C1    C     C_R   0.044763 0.794802 0.497414 0.967791
C2    C     C_R   0.397252 0.478611 0.989595 0.099175
C3    C     C_R   0.307973 0.428969 0.880182 0.031744
C4    C     C_R   0.567984 0.433418 0.025224 0.047858
C5    C     C_R   0.635254 0.317469 0.961340 0.106557
C6    C     C_R   0.532821 0.252273 0.858475 0.183463
C7    C     C_R   0.370718 0.308770 0.819290 -0.193257
C8    C     C_R   0.674774 0.504135 0.122395 -0.278238
C9    C     C_R   0.896355 0.325031 0.109312 0.160637
C10   C     C_R   0.158860 0.503427 0.832967 -0.104949
C11   C     C_2   0.068181 0.958588 0.496206 -0.370472
C12   C     C_R   0.105906 0.504244 0.710627 0.843894
C13   C     C_2   0.932502 0.041593 0.505185 -0.375261
C14   C     C_R   0.955466 0.205251 0.503064 0.964879
C15   C     C_R   0.891964 0.483165 0.289385 0.899343
C16   C     C_R   0.801794 0.267647 0.003693 -0.207379
C17   C     C_R   0.829633 0.443443 0.169449 -0.116173
C18   C     C_R   0.076584 0.596505 0.901856 -0.184028
C19   C     C_R   0.150486 0.625819 0.015690 -0.120324
C20   C     C_R   0.311796 0.571375 0.059078 -0.137546
H1    H     H_    0.804806 0.989992 0.513863 0.180745
H2    H     H_    0.469648 0.374818 0.416179 0.209332
H3    H     H_    0.530337 0.625132 0.583849 0.190536
H4    H     H_    0.856119 0.178151 0.958376 0.171172
H5    H     H_    0.635759 0.603329 0.166920 0.157714
H6    H     H_    0.958937 0.651052 0.866859 0.157439
H7    H     H_    0.363757 0.598962 0.147907 0.147966
H8    H     H_    0.086310 0.696251 0.069405 0.155145
H9    H     H_    0.291936 0.256519 0.740970 0.164335
H10   H     H_    0.195949 0.010237 0.487699 0.184978
N1    N     N_2   0.434800 0.456690 0.470850 -0.162570
N2    N     N_2   0.565200 0.543310 0.529150 -0.171461
O1    O     O_R   0.893060 0.738880 0.507150 -0.611343
O2    O     O_R   0.172250 0.711130 0.488470 -0.623014
O3    O     O_R   0.944700 0.520730 0.667600 -0.613557
O4    O     O_R   0.223890 0.492980 0.648920 -0.619822
O5    O     O_R   0.827750 0.288870 0.511530 -0.625303
O6    O     O_R   0.106940 0.261120 0.492850 -0.604064
O7    O     O_R   0.776110 0.507020 0.351080 -0.616710
O8    O     O_R   0.055300 0.479270 0.332400 -0.585883
Zn1   Zn    Zn3+2 0.813580 0.518530 0.512470 0.944177
Zn2   Zn    Zn3+2 0.186420 0.481470 0.487530 0.957778
I1    I     I_    0.125971 0.212850 0.173522 -0.412836
C21   C     C_3   0.594314 0.126022 0.787944 -0.918423
H11   H     H_    0.617773 0.020779 0.837782 0.240593
H12   H     H_    0.496406 0.089567 0.709808 0.239763
H13   H     H_    0.716873 0.170045 0.761744 0.245600

loop_
_geom_bond_atom_site_label_1
_geom_bond_atom_site_label_2
_ccdc_geom_bond_type
C2    C4    A    
N2    Zn1   S    
C6    C7    A    
C7    H9    S    
C20   H7    S    
C14   O6    A    
O4    Zn2   S    
C8    C17   A    
O2    Zn2   S    
C21   H13   S    
C4    C8    A    
O1    Zn1   S    
H3    N2    S    
O8    Zn2   S    
C2    C3    A    
C1    O1    A    
C16   H4    S    
C3    C10   A    
C6    C21   S    
C13   C14   S    
C14   O5    A    
C8    H5    S    
C11   C13   D    
C15   O7    A    
C10   C12   S    
C10   C18   A    
C9    C17   A    
N1    Zn2   S    
C9    C16   A    
C21   H12   S    
C1    O2    A    
O6    Zn2   S    
C3    C7    A    
O5    Zn1   S    
C5    C6    A    
O3    Zn1   S    
C15   O8    A    
C9    I1    S    
C12   O4    A    
H2    N1    S    
C13   H1    S    
C19   H8    S    
C21   H11   S    
O7    Zn1   S    
C18   C19   A    
C15   C17   S    
C5    C16   A    
C18   H6    S    
C2    C20   A    
N1    N2    D    
C19   C20   A    
C11   H10   S    
C4    C5    A    
C12   O3    A    
C1    C11   S    
