data_mof_unit_23254.cif
_audit_creation_date              2012-12-10T17:30:21-0500
_audit_creation_method            fapswitch 2.2
_symmetry_space_group_name_H-M    P1
_symmetry_Int_Tables_number       1
_space_group_crystal_system       triclinic
_cell_length_a                    11.964145
_cell_length_b                    12.860065
_cell_length_c                    14.993472
_cell_angle_alpha                 90.08519
_cell_angle_beta                  85.536503
_cell_angle_gamma                 94.892293
_cell_volume                      2291.48448223

loop_
_atom_site_label
_atom_site_type_symbol
_atom_type_description
_atom_site_fract_x
_atom_site_fract_y
_atom_site_fract_z
_atom_type_partial_charge
C1    C     C_R   0.524095 0.701496 0.496843 0.947449
C2    C     C_R   0.475974 0.298990 0.499658 0.972591
C3    C     C_R   0.702767 0.561992 0.941126 0.378526
C4    C     C_R   0.295206 0.451572 0.058536 0.385121
C5    C     C_R   0.457077 0.186453 0.504035 -0.275138
C6    C     C_R   0.540145 0.814995 0.499593 -0.279968
C7    C     C_R   0.638560 0.975701 0.546451 0.360799
C8    C     C_R   0.344394 0.022475 0.493681 0.317723
C9    C     C_R   0.642942 0.872177 0.516390 0.338177
C10   C     C_R   0.357554 0.130613 0.478175 0.319609
C11   C     C_R   0.442629 0.865751 0.494007 -0.182763
C12   C     C_R   0.543623 0.134651 0.535999 -0.194617
C13   C     C_R   0.441634 0.971318 0.508037 -0.053307
C14   C     C_R   0.541134 0.027256 0.532575 -0.064629
C15   C     C_R   0.957593 0.432231 0.397449 -0.206667
C16   C     C_R   0.042459 0.568138 0.602356 -0.195529
C17   C     C_R   0.840560 0.435262 0.409467 0.060258
C18   C     C_R   0.159495 0.565233 0.590296 0.061214
C19   C     C_R   0.856386 0.523171 0.547720 0.080066
C20   C     C_R   0.143610 0.476542 0.452383 0.073286
C21   C     C_R   0.974472 0.523087 0.538107 0.051797
C22   C     C_R   0.025559 0.477015 0.461817 0.059968
C23   C     C_R   0.499734 0.501068 0.673413 0.887576
C24   C     C_R   0.500281 0.499497 0.326553 0.917161
C25   C     C_R   0.399676 0.478606 0.191354 -0.082410
C26   C     C_R   0.599819 0.527843 0.808465 -0.106010
C27   C     C_R   0.500730 0.497585 0.230557 -0.108325
C28   C     C_R   0.499137 0.506378 0.769283 -0.103290
C29   C     C_R   0.601864 0.515942 0.178764 -0.165626
C30   C     C_R   0.397634 0.491019 0.821038 -0.165425
C31   C     C_R   0.603313 0.520397 0.086119 0.006889
C32   C     C_R   0.395666 0.490683 0.913717 0.008148
C33   C     C_R   0.499743 0.502784 0.046170 -0.008675
C34   C     C_R   0.499008 0.508620 0.953743 -0.005745
C35   C     C_R   0.397475 0.476157 0.098859 -0.046954
C36   C     C_R   0.601229 0.534388 0.900918 -0.038996
C37   C     C_R   0.705376 0.544897 0.033532 0.092107
C38   C     C_R   0.293208 0.469411 0.966240 0.089415
H1    H     H_    0.322746 0.468911 0.234187 0.219896
H2    H     H_    0.677078 0.536076 0.765877 0.212521
H3    H     H_    0.994493 0.395922 0.338244 0.199921
H4    H     H_    0.005589 0.604635 0.661467 0.210062
H5    H     H_    0.678022 0.532323 0.212205 0.189443
H6    H     H_    0.321497 0.473095 0.787850 0.182933
H7    H     H_    0.618222 0.179796 0.554947 0.244192
H8    H     H_    0.368093 0.822637 0.472515 0.246189
H9    H     H_    0.184242 0.440577 0.394643 0.181501
H10   H     H_    0.815662 0.558299 0.605836 0.168302
H11   H     H_    0.211847 0.598751 0.640443 0.156286
H12   H     H_    0.788244 0.402101 0.359158 0.146772
N1    N     N_R   0.207800 0.519350 0.516680 -0.123765
N2    N     N_R   0.792200 0.480650 0.483320 -0.116182
O1    O     O_R   0.421700 0.658830 0.504450 -0.628488
O2    O     O_R   0.578300 0.341170 0.495550 -0.632817
O3    O     O_R   0.609310 0.646410 0.493750 -0.543449
O4    O     O_R   0.390690 0.353590 0.506250 -0.554825
O5    O     O_R   0.406180 0.506230 0.637500 -0.639998
O6    O     O_R   0.593820 0.493770 0.362500 -0.633830
O7    O     O_R   0.593800 0.493820 0.626800 -0.632171
O8    O     O_R   0.406200 0.506180 0.373200 -0.621049
Zn1   Zn    Zn3+2 0.374730 0.508290 0.507150 1.026144
Zn2   Zn    Zn3+2 0.625270 0.491710 0.492850 1.032795
I1    I     I_    0.863561 0.540160 0.091843 -0.091891
I2    I     I_    0.136365 0.481653 0.907704 -0.112494
S1    S     S_3+6 0.822730 0.623528 0.876769 0.050803
O9    O     O_2   0.887098 0.540195 0.831618 -0.308996
O10   O     O_2   0.785433 0.693620 0.806617 -0.274253
O11   O     O_3   0.907835 0.697745 0.939956 -0.474427
H13   H     H_    0.976245 0.717400 0.900009 0.397722
S2    S     S_3+6 0.173338 0.392547 0.122283 0.043382
O12   O     O_2   0.207969 0.317567 0.189715 -0.279185
O13   O     O_2   0.113913 0.476951 0.170614 -0.308493
O14   O     O_3   0.083909 0.324572 0.058316 -0.479640
H14   H     H_    0.016051 0.305022 0.098884 0.393049
S3    S     S_3+6 0.261106 0.191126 0.413944 0.088670
O15   O     O_2   0.178344 0.242394 0.476446 -0.290832
O16   O     O_2   0.323736 0.272074 0.352387 -0.303829
O17   O     O_3   0.190976 0.103968 0.350494 -0.426351
H15   H     H_    0.132498 0.142755 0.325373 0.406591
S4    S     S_3+6 0.775466 0.823109 0.484780 0.107890
O18   O     O_2   0.807286 0.756108 0.559156 -0.262411
O19   O     O_2   0.767986 0.759332 0.400969 -0.286989
O20   O     O_3   0.876794 0.920649 0.463630 -0.426805
H16   H     H_    0.946348 0.885498 0.448941 0.428262
S5    S     S_3+6 0.748286 0.037311 0.607592 0.093921
O21   O     O_2   0.823318 0.110312 0.546344 -0.244580
O22   O     O_2   0.697700 0.098823 0.683561 -0.292123
O23   O     O_3   0.825184 0.949223 0.651097 -0.431058
H17   H     H_    0.891189 0.990654 0.672804 0.399205
S6    S     S_3+6 0.208099 0.952666 0.502831 0.075259
O24   O     O_2   0.186957 0.899848 0.415526 -0.226252
O25   O     O_2   0.202595 0.870559 0.574744 -0.316881
O26   O     O_3   0.106113 0.032266 0.528927 -0.426071
H18   H     H_    0.119330 0.057224 0.590060 0.364616

loop_
_geom_bond_atom_site_label_1
_geom_bond_atom_site_label_2
_ccdc_geom_bond_type
O6    Zn2   S    
O26   H18   S    
C27   C29   A    
O14   H14   S    
N1    Zn1   S    
C24   C27   S    
C6    C9    A    
C4    S2    S    
C15   C22   A    
S5    O21   D    
C23   O7    A    
C16   C21   A    
C21   C22   A    
C19   C21   A    
C20   N1    A    
O3    Zn2   S    
C15   C17   A    
C1    O1    A    
O1    Zn1   S    
C19   N2    A    
C7    C14   A    
O11   H13   S    
S1    O10   D    
C31   C33   A    
S2    O12   D    
C32   C38   A    
C4    C35   A    
C13   C14   A    
C29   H5    S    
C30   H6    S    
C3    S1    S    
S4    O20   S    
C17   N2    A    
C37   I1    S    
C18   N1    A    
C38   I2    S    
S5    O22   D    
C1    C6    S    
C15   H3    S    
C5    C12   A    
S4    O19   D    
C2    O2    A    
C6    C11   A    
C19   H10   S    
C12   H7    S    
O2    Zn2   S    
C31   C37   A    
O8    Zn1   S    
C9    S4    S    
C32   C34   A    
S3    O15   D    
C10   S3    S    
S6    O25   D    
O20   H16   S    
C24   O8    A    
S1    O11   S    
S2    O14   S    
C33   C34   A    
C16   C18   A    
C23   C28   S    
S3    O16   D    
C25   C35   A    
C8    C10   A    
C12   C14   A    
C2    C5    S    
C8    S6    S    
C16   H4    S    
S6    O26   S    
S5    O23   S    
C26   C36   A    
C23   O5    A    
O7    Zn2   S    
O17   H15   S    
C20   C22   A    
S4    O18   D    
C17   H12   S    
S2    O13   D    
O5    Zn1   S    
C25   C27   A    
C26   C28   A    
C28   C30   A    
C1    O3    A    
C5    C10   A    
C29   C31   A    
C2    O4    A    
C25   H1    S    
C30   C32   A    
C11   C13   A    
C26   H2    S    
S6    O24   D    
C7    S5    S    
C3    C36   A    
C33   C35   A    
C34   C36   A    
S3    O17   S    
C20   H9    S    
C8    C13   A    
C7    C9    A    
O23   H17   S    
C3    C37   A    
C24   O6    A    
S1    O9    D    
O4    Zn1   S    
C11   H8    S    
N2    Zn2   S    
C4    C38   A    
C18   H11   S    
