data_mof_unit_57427.cif
_audit_creation_date              2012-12-10T16:38:28-0500
_audit_creation_method            fapswitch 2.2
_symmetry_space_group_name_H-M    P1
_symmetry_Int_Tables_number       1
_space_group_crystal_system       triclinic
_cell_length_a                    10.836377
_cell_length_b                    10.910681
_cell_length_c                    17.648646
_cell_angle_alpha                 98.072252
_cell_angle_beta                  73.096366
_cell_angle_gamma                 98.143701
_cell_volume                      1965.47638576

loop_
_atom_site_label
_atom_site_type_symbol
_atom_type_description
_atom_site_fract_x
_atom_site_fract_y
_atom_site_fract_z
_atom_type_partial_charge
C1    C     C_R   0.157377 0.479549 0.517974 0.509236
C2    C     C_R   0.676743 0.452246 0.908312 -0.028311
C3    C     C_R   0.724252 0.380598 0.950871 -0.078882
C4    C     C_R   0.843212 0.520765 0.482623 0.514775
C5    C     C_R   0.683882 0.390946 0.034243 0.016468
C6    C     C_R   0.605197 0.486682 0.075275 0.016156
C7    C     C_R   0.721731 0.309916 0.078014 0.261547
C8    C     C_R   0.677913 0.323490 0.161241 -0.081158
C9    C     C_R   0.554696 0.489666 0.158373 -0.070978
C10   C     C_2   0.980879 0.529124 0.475883 -0.100412
C11   C     C_2   0.021244 0.472636 0.525188 -0.078094
C12   C     C_R   0.369034 0.710408 0.836342 -0.097797
C13   C     C_2   0.536741 0.965656 0.478493 -0.100957
C14   C     C_2   0.451186 0.039975 0.528063 0.217808
C15   C     C_R   0.470842 0.168788 0.516496 0.506626
C16   C     C_R   0.529453 0.832967 0.483345 0.539936
C17   C     C_R   0.563735 0.437230 0.287604 0.510699
C18   C     C_R   0.437436 0.564007 0.712917 0.507465
C19   C     C_R   0.428306 0.604318 0.797675 0.021543
C20   C     C_R   0.594610 0.412500 0.201098 -0.010220
C21   C     C_R   0.375949 0.756096 0.912957 -0.101770
C22   C     C_1   0.401860 0.861866 0.066848 0.253429
C23   C     C_R   0.491631 0.543175 0.837658 -0.092076
C24   C     C_1   0.739957 0.448636 0.823749 0.211762
C25   C     C_R   0.511258 0.594233 0.911785 0.014887
C26   C     C_R   0.447402 0.699815 0.951621 0.005348
C27   C     C_R   0.585696 0.537976 0.949328 -0.007608
C28   C     C_R   0.571821 0.571569 0.031750 0.014781
C29   C     C_R   0.528617 0.689711 0.066178 0.180082
C30   C     C_R   0.459998 0.749464 0.027674 -0.012075
H1    H     H_    0.049791 0.581255 0.430472 0.123315
H2    H     H_    0.905400 0.048443 0.069223 0.395885
H3    H     H_    0.299487 0.171905 0.684338 0.345914
H4    H     H_    0.405767 0.823621 0.225242 0.352178
H5    H     H_    0.954438 0.419973 0.571001 0.155749
H6    H     H_    0.615923 0.005391 0.431909 0.093988
H7    H     H_    0.483662 0.551845 0.190847 0.177848
H8    H     H_    0.709479 0.265639 0.195601 0.177463
H9    H     H_    0.792142 0.315649 0.917501 0.202749
H10   H     H_    0.327459 0.837814 0.940677 0.149653
H11   H     H_    0.318839 0.759357 0.806994 0.181652
H12   H     H_    0.523076 0.453961 0.810405 0.150461
N1    N     N_1   0.355452 0.951525 0.098023 -0.236471
N2    N     N_1   0.791057 0.445740 0.756175 -0.256767
O1    O     O_3   0.500000 0.500000 0.500000 -0.475662
O2    O     O_R   0.470800 0.371790 0.332500 -0.533766
O3    O     O_R   0.380610 0.619380 0.674980 -0.517754
O4    O     O_R   0.632640 0.524780 0.317540 -0.499973
O5    O     O_R   0.515950 0.484050 0.674980 -0.537600
O6    O     O_2   0.761124 0.101657 0.978252 -0.247022
O7    O     O_2   0.951788 0.250231 0.982949 -0.272342
O8    O     O_3   0.852528 0.115093 0.100307 -0.476838
O9    O     O_2   0.221230 0.903677 0.578707 -0.209909
O10   O     O_2   0.361125 0.941597 0.668506 -0.272226
O11   O     O_3   0.241014 0.123195 0.654488 -0.485137
O12   O     O_R   0.535460 0.243030 0.556410 -0.548776
O13   O     O_2   0.706882 0.728043 0.150732 -0.225469
O14   O     O_2   0.628589 0.911702 0.124804 -0.203136
O15   O     O_3   0.474552 0.778108 0.231325 -0.530899
O16   O     O_R   0.437420 0.784080 0.535340 -0.463096
O17   O     O_R   0.223560 0.397520 0.472140 -0.521961
O18   O     O_R   0.803560 0.575360 0.436110 -0.528198
O19   O     O_R   0.209690 0.568800 0.556400 -0.502761
O20   O     O_R   0.763190 0.458310 0.535350 -0.532421
O21   O     O_R   0.414000 0.207090 0.472140 -0.516462
O22   O     O_R   0.613120 0.765800 0.436110 -0.517069
S1    S     S_3+6 0.824612 0.192000 0.031737 0.038818
S2    S     S_3+6 0.316480 0.997119 0.608978 0.077415
S3    S     S_3+6 0.589509 0.779137 0.143526 0.031216
Zn1   Zn    Zn3+2 0.577310 0.422690 0.565550 0.969325
Zn2   Zn    Zn3+2 0.403760 0.371330 0.445150 0.991534
Zn3   Zn    Zn3+2 0.634990 0.589920 0.423760 1.008055
Zn4   Zn    Zn3+2 0.383940 0.616050 0.565540 1.046290

loop_
_geom_bond_atom_site_label_1
_geom_bond_atom_site_label_2
_ccdc_geom_bond_type
C13   H6    S    
H3    O11   S    
C19   C23   A    
C21   C26   A    
O14   S3    D    
C29   C30   A    
C12   C21   A    
O20   Zn1   S    
O1    Zn2   S    
O19   Zn4   S    
O6    S1    D    
C4    O20   A    
C9    C20   A    
O12   Zn1   S    
C22   N1    T    
C1    C11   S    
C17   O4    A    
C15   O12   A    
O17   Zn2   S    
C6    C9    A    
C11   H5    S    
C2    C3    A    
C25   C26   A    
O18   Zn3   S    
C7    C8    A    
O7    S1    D    
C13   C14   D    
C18   O3    A    
O1    Zn3   S    
C23   H12   S    
O2    Zn2   S    
C2    C27   A    
O8    S1    S    
C8    H8    S    
O15   S3    S    
C1    O19   A    
C12   C19   A    
C9    H7    S    
C28   C29   A    
C8    C20   A    
O4    Zn3   S    
C26   C30   A    
C29   S3    S    
O5    Zn1   S    
C23   C25   A    
C2    C24   S    
C5    C6    A    
C24   N2    T    
C6    C28   A    
C25   C27   A    
C10   C11   D    
C21   H10   S    
C4    C10   S    
C15   O21   A    
C4    O18   A    
O16   Zn4   S    
C17   C20   S    
O10   S2    D    
C17   O2    A    
O3    Zn4   S    
C12   H11   S    
O1    Zn4   S    
C18   C19   S    
C16   O16   A    
C13   C16   S    
O11   S2    S    
C27   C28   A    
C5    C7    A    
O9    S2    D    
C14   S2    S    
C14   C15   S    
H2    O8    S    
C16   O22   A    
C22   C30   S    
O13   S3    D    
O1    Zn1   S    
O21   Zn2   S    
H4    O15   S    
C7    S1    S    
C10   H1    S    
O22   Zn3   S    
C3    H9    S    
C18   O5    A    
C3    C5    A    
C1    O17   A    
