data_mof_unit_61023.cif
_audit_creation_date              2012-12-10T21:15:53-0500
_audit_creation_method            fapswitch 2.2
_symmetry_space_group_name_H-M    P1
_symmetry_Int_Tables_number       1
_space_group_crystal_system       triclinic
_cell_length_a                    13.635342
_cell_length_b                    16.766494
_cell_length_c                    17.4721
_cell_angle_alpha                 89.552074
_cell_angle_beta                  89.91648
_cell_angle_gamma                 82.885018
_cell_volume                      3963.53670726

loop_
_atom_site_label
_atom_site_type_symbol
_atom_type_description
_atom_site_fract_x
_atom_site_fract_y
_atom_site_fract_z
_atom_type_partial_charge
C1    C     C_R   0.498742 0.499661 0.646945 0.921285
C2    C     C_R   0.498635 0.500554 0.353117 0.928442
C3    C     C_R   0.475019 0.562078 0.145860 0.149077
C4    C     C_R   0.480020 0.440036 0.854133 0.148113
C5    C     C_R   0.543409 0.501411 0.114368 -0.037565
C6    C     C_R   0.544354 0.490351 0.885756 -0.036915
C7    C     C_1   0.553867 0.496858 0.034021 0.092521
C8    C     C_1   0.554192 0.493234 0.966125 0.092696
C9    C     C_R   0.538491 0.163513 0.562209 0.090070
C10   C     C_R   0.418901 0.840263 0.470409 0.090015
C11   C     C_R   0.538421 0.247626 0.560575 -0.004829
C12   C     C_R   0.421113 0.755941 0.471006 -0.005980
C13   C     C_R   0.460803 0.256517 0.439573 -0.020903
C14   C     C_R   0.578598 0.740083 0.529114 -0.023285
C15   C     C_R   0.459909 0.172544 0.438105 0.081100
C16   C     C_R   0.580365 0.823968 0.529294 0.079423
C17   C     C_R   0.499143 0.124499 0.500134 0.002651
C18   C     C_R   0.499490 0.875669 0.499815 0.001395
C19   C     C_1   0.499107 0.036629 0.500028 0.102550
C20   C     C_1   0.499199 0.963571 0.499892 0.101934
C21   C     C_R   0.686145 0.485647 0.499722 0.895172
C22   C     C_R   0.313860 0.514400 0.500024 0.914945
C23   C     C_1   0.210539 0.525841 0.493851 -0.072626
C24   C     C_1   0.789210 0.474812 0.491195 -0.085167
C25   C     C_2   0.019255 0.537305 0.477864 -0.122987
C26   C     C_2   0.979515 0.467512 0.470852 -0.123435
C27   C     C_1   0.876089 0.468804 0.481748 0.059827
C28   C     C_1   0.123271 0.533520 0.486618 0.067531
C29   C     C_R   0.593251 0.440679 0.160027 0.190754
C30   C     C_R   0.590094 0.543869 0.840266 0.189162
C31   C     C_R   0.575508 0.440704 0.237950 -0.241480
C32   C     C_R   0.572128 0.547020 0.762392 -0.242607
C33   C     C_R   0.508237 0.500655 0.270581 -0.165593
C34   C     C_R   0.508570 0.497473 0.729564 -0.167495
C35   C     C_R   0.456400 0.561493 0.224852 0.122210
C36   C     C_R   0.460989 0.443961 0.775191 0.118070
H1    H     H_    0.615581 0.394338 0.273404 0.190272
H2    H     H_    0.609165 0.587602 0.727148 0.187535
H3    H     H_    0.569121 0.277010 0.608217 0.167855
H4    H     H_    0.359164 0.729271 0.448246 0.175703
H5    H     H_    0.429925 0.292918 0.392032 0.168883
H6    H     H_    0.640638 0.701083 0.552417 0.164582
N1    N     N_R   0.499970 0.292770 0.499970 -0.118555
N2    N     N_R   0.500030 0.707230 0.500030 -0.118393
O1    O     O_R   0.500000 0.433430 0.610870 -0.605876
O2    O     O_R   0.500000 0.566570 0.389130 -0.586668
O3    O     O_R   0.500010 0.566520 0.610900 -0.612512
O4    O     O_R   0.499990 0.433480 0.389100 -0.626668
O5    O     O_R   0.640340 0.423880 0.499970 -0.608049
O6    O     O_R   0.359660 0.576120 0.500030 -0.617178
O7    O     O_R   0.640350 0.556960 0.500000 -0.605649
O8    O     O_R   0.359650 0.443040 0.500000 -0.585834
Zn1   Zn    Zn3+2 0.500000 0.411140 0.499980 0.993245
Zn2   Zn    Zn3+2 0.500000 0.588860 0.500020 0.994595
C37   C     C_2   0.038379 0.387329 0.458356 0.970539
O9    O     O_2   0.003676 0.326088 0.476848 -0.578651
O10   O     O_R   0.131250 0.381199 0.423226 -0.788898
H7    H     H_    0.162790 0.323479 0.417936 0.362092
C38   C     C_2   0.960203 0.618367 0.483880 0.966574
O11   O     O_2   0.996639 0.673339 0.514127 -0.574612
O12   O     O_R   0.865027 0.633044 0.452968 -0.790469
H8    H     H_    0.833549 0.690419 0.460876 0.360241
I1    I     I_    0.695026 0.346808 0.114460 -0.206762
I2    I     I_    0.685818 0.622209 0.886035 -0.211231
I3    I     I_    0.344726 0.647515 0.273590 -0.217023
I4    I     I_    0.354762 0.374620 0.726755 -0.215788
I5    I     I_    0.399398 0.652801 0.072733 -0.167485
I6    I     I_    0.411023 0.359951 0.927109 -0.168729
I7    I     I_    0.598150 0.099415 0.659918 -0.190030
I8    I     I_    0.292128 0.910261 0.424709 -0.175279
I9    I     I_    0.398675 0.122388 0.340878 -0.209019
I10   I     I_    0.707192 0.868272 0.574273 -0.210833

loop_
_geom_bond_atom_site_label_1
_geom_bond_atom_site_label_2
_ccdc_geom_bond_type
C12   H4    S    
C11   H3    S    
C37   O9    D    
C31   C33   A    
C11   N1    A    
C32   H2    S    
C15   I9    S    
C36   I4    S    
C18   C20   S    
C19   C20   T    
C16   I10   S    
C24   C27   T    
C3    C35   A    
C22   O6    A    
O7    Zn2   S    
C26   C37   S    
O2    Zn2   S    
C13   N1    A    
C13   H5    S    
O10   H7    S    
C5    C7    S    
C38   O11   D    
C29   C31   A    
C14   H6    S    
C2    O2    A    
C25   C28   S    
C30   C32   A    
C9    C11   A    
C1    O1    A    
C26   C27   S    
O6    Zn2   S    
C10   C12   A    
C10   C18   A    
O3    Zn2   S    
O5    Zn1   S    
C21   O5    A    
C10   I8    S    
C2    C33   S    
C16   C18   A    
C29   I1    S    
C17   C19   S    
C34   C36   A    
C4    C36   A    
C1    C34   S    
C22   O8    A    
C5    C29   A    
C37   O10   S    
C13   C15   A    
O4    Zn1   S    
C33   C35   A    
C14   C16   A    
C38   O12   S    
C4    C6    A    
C7    C8    T    
O12   H8    S    
C35   I3    S    
O1    Zn1   S    
N2    Zn2   S    
C21   O7    A    
O8    Zn1   S    
C3    I5    S    
C14   N2    A    
C30   I2    S    
C6    C30   A    
C21   C24   S    
C9    C17   A    
C15   C17   A    
C22   C23   S    
C12   N2    A    
C6    C8    S    
C25   C38   S    
C2    O4    A    
C25   C26   D    
C23   C28   T    
C4    I6    S    
N1    Zn1   S    
C1    O3    A    
C31   H1    S    
C9    I7    S    
C3    C5    A    
C32   C34   A    
