data_mof_unit_67255.cif
_audit_creation_date              2013-03-05T16:01:28-0500
_audit_creation_method            fapswitch 2.2
_symmetry_space_group_name_H-M    P1
_symmetry_Int_Tables_number       1
_space_group_crystal_system       triclinic
_cell_length_a                    20.029003
_cell_length_b                    20.310018
_cell_length_c                    8.710408
_cell_angle_alpha                 89.903599
_cell_angle_beta                  93.126574
_cell_angle_gamma                 90.276488
_cell_volume                      3537.98270312

loop_
_atom_site_label
_atom_site_type_symbol
_atom_site_description
_atom_site_fract_x
_atom_site_fract_y
_atom_site_fract_z
_atom_type_partial_charge
P1    P     P_3+3 0.136530 0.426510 0.931350 0.512393
P2    P     P_3+3 0.136530 0.573490 0.431350 0.511886
P3    P     P_3+3 0.636530 0.926510 0.931350 0.512291
P4    P     P_3+3 0.636530 0.073490 0.431350 0.511315
O1    O     O_2   0.130070 0.404060 0.104920 -0.364884
O2    O     O_2   0.130070 0.595940 0.604920 -0.362512
O3    O     O_2   0.630070 0.904060 0.104920 -0.364555
O4    O     O_2   0.630070 0.095940 0.604920 -0.362811
O5    O     O_3   0.075780 0.466370 0.861070 -0.415898
O6    O     O_3   0.075780 0.533630 0.361070 -0.416375
O7    O     O_3   0.575780 0.966370 0.861070 -0.415993
O8    O     O_3   0.575780 0.033630 0.361070 -0.416283
O9    O     O_3   0.022320 0.344950 0.359800 -0.377207
O10   O     O_3   0.022320 0.655050 0.859800 -0.362839
O11   O     O_3   0.522320 0.844950 0.359800 -0.376585
O12   O     O_3   0.522320 0.155050 0.859800 -0.361608
O13   O     O_2   0.129502 0.292712 0.244181 -0.402634
O14   O     O_2   0.133917 0.702770 0.746702 -0.414860
O15   O     O_2   0.629759 0.793037 0.244322 -0.404122
O16   O     O_2   0.634133 0.202465 0.746577 -0.413513
O17   O     O_3   0.215555 0.465762 0.932698 -0.595196
O18   O     O_3   0.215433 0.534552 0.433294 -0.595903
O19   O     O_3   0.715537 0.965780 0.932693 -0.595298
O20   O     O_3   0.715414 0.034523 0.433304 -0.595802
O21   O     O_3   0.040218 0.207626 0.337583 -0.503952
O22   O     O_3   0.051311 0.792750 0.834912 -0.517018
O23   O     O_3   0.540753 0.707783 0.337483 -0.506773
O24   O     O_3   0.551759 0.292405 0.835011 -0.518652
C1    C     C_3   0.965348 0.120824 0.433616 -0.139174
C2    C     C_3   0.982369 0.881452 0.935126 -0.135160
C3    C     C_3   0.466629 0.620544 0.433167 -0.133563
C4    C     C_3   0.484476 0.381374 0.937011 -0.144728
P5    P     P_3+3 0.863410 0.426100 0.379280 0.424254
P6    P     P_3+3 0.863410 0.573900 0.879280 0.424964
P7    P     P_3+3 0.363410 0.926100 0.379280 0.423195
P8    P     P_3+3 0.363410 0.073900 0.879280 0.428593
P9    P     P_3+3 0.913730 0.285617 0.924786 0.453074
P10   P     P_3+3 0.915602 0.715478 0.422821 0.459157
P11   P     P_3+3 0.413650 0.785689 0.924888 0.453468
P12   P     P_3+3 0.415730 0.215573 0.422521 0.455299
O25   O     O_2   0.869860 0.403670 0.205810 -0.384209
O26   O     O_2   0.869860 0.596330 0.705810 -0.379634
O27   O     O_2   0.369860 0.903670 0.205810 -0.382659
O28   O     O_2   0.369860 0.096330 0.705810 -0.380553
O29   O     O_3   0.977590 0.344880 0.951200 -0.359949
O30   O     O_3   0.977590 0.655120 0.451200 -0.355585
O31   O     O_3   0.477590 0.844880 0.951200 -0.360194
O32   O     O_3   0.477590 0.155120 0.451200 -0.357819
O33   O     O_2   0.862548 0.301280 0.045705 -0.382517
O34   O     O_2   0.862106 0.698436 0.537998 -0.402682
O35   O     O_2   0.362558 0.801291 0.046048 -0.380517
O36   O     O_2   0.362356 0.198927 0.538324 -0.402629
O37   O     O_3   0.791710 0.476013 0.365660 -0.605652
O38   O     O_3   0.790772 0.524528 0.868443 -0.617650
O39   O     O_3   0.292195 0.976243 0.365536 -0.614108
O40   O     O_3   0.290625 0.024847 0.867429 -0.600363
O41   O     O_3   0.944266 0.209034 0.990322 -0.526907
O42   O     O_3   0.947647 0.790409 0.497047 -0.533897
O43   O     O_3   0.444188 0.709041 0.990006 -0.527636
O44   O     O_3   0.448104 0.290565 0.495482 -0.540300
C5    C     C_3   0.995522 0.186161 0.900220 0.346175
C6    C     C_3   0.995844 0.816326 0.402212 0.299553
C7    C     C_3   0.495573 0.686365 0.900015 0.347408
C8    C     C_3   0.495332 0.316714 0.398456 0.338543
H1    H     H_    0.975191 0.181132 0.781338 0.022226
H2    H     H_    0.971526 0.822890 0.287410 0.094848
H3    H     H_    0.475331 0.681415 0.781034 0.021394
H4    H     H_    0.470206 0.323375 0.284619 0.089760
C9    C     C_3   0.018739 0.116580 0.958163 0.488816
C10   C     C_3   0.018870 0.885748 0.460759 0.524977
C11   C     C_3   0.518896 0.616772 0.957589 0.487374
C12   C     C_3   0.518837 0.385722 0.456364 0.499527
C13   C     C_3   0.797920 0.468044 0.777494 0.273808
C14   C     C_3   0.799613 0.530928 0.270200 0.365450
C15   C     C_3   0.298347 0.968094 0.777917 0.283501
C16   C     C_3   0.300966 0.030835 0.269772 0.365538
H5    H     H_    0.832611 0.477452 0.684454 0.124995
H6    H     H_    0.830796 0.519220 0.172475 0.108821
H7    H     H_    0.334344 0.976707 0.687137 0.120434
H8    H     H_    0.334649 0.020102 0.176013 0.117078
C17   C     C_3   0.728955 0.447200 0.696502 -0.269442
C18   C     C_3   0.730358 0.553819 0.201926 -0.288463
C19   C     C_3   0.230297 0.947990 0.692900 -0.253191
C20   C     C_3   0.232892 0.051488 0.194150 -0.279622
H9    H     H_    0.737981 0.431473 0.578135 0.186017
H10   H     H_    0.738551 0.583896 0.097723 0.151181
H11   H     H_    0.241332 0.924784 0.582376 0.169402
H12   H     H_    0.242305 0.091262 0.110248 0.153187
Ba1   Ba    Ba6+2 0.999980 0.452130 0.155200 1.537891
Ba2   Ba    Ba6+2 0.999980 0.547870 0.655200 1.541601
Ba3   Ba    Ba6+2 0.499980 0.952130 0.155200 1.538620
Ba4   Ba    Ba6+2 0.499980 0.047870 0.655200 1.542730
C21   C     C_3   0.216193 0.530894 0.981315 1.091814
C22   C     C_3   0.215560 0.469117 0.480289 1.095008
C23   C     C_3   0.716145 0.030890 0.981449 1.092155
C24   C     C_3   0.715455 0.969095 0.480284 1.095294
H13   H     H_    0.179676 0.559720 0.910144 -0.046018
H14   H     H_    0.179287 0.440527 0.407337 -0.039877
H15   H     H_    0.679579 0.059724 0.910427 -0.046512
H16   H     H_    0.679160 0.940546 0.407291 -0.039405
C25   C     C_3   0.286295 0.560636 0.962698 -0.459211
C26   C     C_3   0.285687 0.439736 0.463187 -0.461062
C27   C     C_3   0.786207 0.060685 0.962774 -0.459186
C28   C     C_3   0.785536 0.939612 0.463350 -0.461937
H17   H     H_    0.323036 0.532158 0.035858 0.166735
H18   H     H_    0.322274 0.468667 0.536148 0.167223
H19   H     H_    0.822945 0.032313 0.036182 0.166709
H20   H     H_    0.822091 0.968383 0.536742 0.167442
O45   O     O_3   0.924190 0.533610 0.949240 -0.407734
O46   O     O_3   0.924190 0.466390 0.449240 -0.407376
O47   O     O_3   0.424190 0.033610 0.949240 -0.409933
O48   O     O_3   0.424190 0.966390 0.449240 -0.406388
P13   P     P_3+3 0.086059 0.714731 0.876675 0.502911
P14   P     P_3+3 0.082963 0.282761 0.378130 0.478602
P15   P     P_3+3 0.586321 0.214408 0.876618 0.505843
P16   P     P_3+3 0.583201 0.782990 0.378163 0.475349
C29   C     C_3   0.008520 0.184103 0.469220 1.002730
C30   C     C_3   0.997705 0.805287 0.929987 1.064231
C31   C     C_3   0.509130 0.684133 0.469047 1.001834
C32   C     C_3   0.498105 0.305067 0.929831 1.063123
C33   C     C_R   0.236972 0.301698 0.002203 -0.127957
C34   C     C_R   0.237923 0.697210 0.500409 -0.118917
C35   C     C_R   0.736778 0.801581 0.002647 -0.129173
C36   C     C_R   0.738039 0.197086 0.500322 -0.115812
C37   C     C_R   0.149526 0.348925 0.815261 0.298171
C38   C     C_R   0.149772 0.650574 0.314784 0.284812
C39   C     C_R   0.649525 0.848954 0.815387 0.298339
C40   C     C_R   0.649790 0.150506 0.314841 0.282854
C41   C     C_R   0.119033 0.345482 0.663548 -0.292710
C42   C     C_R   0.119802 0.653324 0.162852 -0.256717
C43   C     C_R   0.619091 0.845574 0.663637 -0.292525
C44   C     C_R   0.619843 0.153177 0.162915 -0.254691
C45   C     C_R   0.130547 0.290858 0.567898 0.200949
C46   C     C_R   0.131853 0.707815 0.067053 0.290836
C47   C     C_R   0.630715 0.791030 0.567927 0.201958
C48   C     C_R   0.632007 0.207566 0.067011 0.287901
C49   C     C_R   0.176983 0.242821 0.615601 -0.231443
C50   C     C_R   0.176823 0.757214 0.115910 -0.344118
C51   C     C_R   0.677132 0.742981 0.615649 -0.231340
C52   C     C_R   0.676981 0.256952 0.115792 -0.340116
C53   C     C_R   0.211101 0.246169 0.760614 0.036567
C54   C     C_R   0.211167 0.753783 0.260472 0.055319
C55   C     C_R   0.711059 0.746174 0.760868 0.038664
C56   C     C_R   0.711265 0.253624 0.260398 0.055060
C57   C     C_R   0.198638 0.299471 0.861141 -0.083832
C58   C     C_R   0.199065 0.700013 0.360313 -0.079656
C59   C     C_R   0.698560 0.799445 0.861424 -0.084687
C60   C     C_R   0.699127 0.199908 0.360312 -0.081905
C61   C     C_R   0.796722 0.699445 0.944607 -0.029107
C62   C     C_R   0.796817 0.300451 0.444341 -0.019975
C63   C     C_R   0.297058 0.199670 0.943993 -0.030981
C64   C     C_R   0.296779 0.800516 0.444421 -0.016244
C65   C     C_R   0.785053 0.753094 0.044518 0.081523
C66   C     C_R   0.785707 0.246185 0.543192 0.085199
C67   C     C_R   0.285365 0.253300 0.043930 0.080106
C68   C     C_R   0.285567 0.746320 0.543369 0.087162
C69   C     C_R   0.848991 0.653031 0.986309 0.226647
C70   C     C_R   0.846900 0.348677 0.489488 0.237800
C71   C     C_R   0.349236 0.153174 0.985875 0.225892
C72   C     C_R   0.346908 0.848698 0.489546 0.237082
C73   C     C_R   0.888315 0.663645 0.123146 -0.407862
C74   C     C_R   0.882304 0.341453 0.632139 -0.498191
C75   C     C_R   0.388318 0.163561 0.123160 -0.408221
C76   C     C_R   0.382167 0.841584 0.632433 -0.499989
C77   C     C_R   0.873950 0.714329 0.225700 0.278990
C78   C     C_R   0.869320 0.289194 0.731839 0.249341
C79   C     C_R   0.374033 0.214335 0.225485 0.277791
C80   C     C_R   0.369149 0.789343 0.732089 0.249897
C81   C     C_R   0.822790 0.758751 0.185337 -0.339577
C82   C     C_R   0.821712 0.241659 0.686232 -0.344636
C83   C     C_R   0.323066 0.258933 0.184808 -0.341500
C84   C     C_R   0.321516 0.741825 0.686484 -0.339262
C85   C     C_R   0.757593 0.696216 0.804951 -0.145877
C86   C     C_R   0.757807 0.303766 0.304606 -0.118358
C87   C     C_R   0.257783 0.196323 0.804542 -0.140901
C88   C     C_R   0.257761 0.803870 0.304699 -0.144474
H21   H     H_    0.186009 0.202179 0.539013 0.170592
H22   H     H_    0.185235 0.798383 0.039968 0.143585
H23   H     H_    0.686231 0.702408 0.538991 0.169660
H24   H     H_    0.685506 0.297987 0.039663 0.144178
H25   H     H_    0.812782 0.798136 0.263838 0.154896
H26   H     H_    0.813050 0.200909 0.762364 0.157505
H27   H     H_    0.313086 0.298354 0.263260 0.155468
H28   H     H_    0.312835 0.701076 0.762616 0.156528
H29   H     H_    0.927463 0.629036 0.156040 0.161689
H30   H     H_    0.919722 0.377733 0.667869 0.170850
H31   H     H_    0.427157 0.128703 0.156631 0.162323
H32   H     H_    0.419502 0.877917 0.668353 0.171076
H33   H     H_    0.230882 0.341753 0.080448 0.163040
H34   H     H_    0.232268 0.656620 0.577808 0.163072
H35   H     H_    0.730761 0.841678 0.080820 0.163469
H36   H     H_    0.732410 0.156486 0.577707 0.162840
H37   H     H_    0.763879 0.655731 0.726955 0.165117
H38   H     H_    0.763345 0.344996 0.227833 0.161491
H39   H     H_    0.263992 0.155779 0.726674 0.164169
H40   H     H_    0.263340 0.845088 0.227939 0.161655
N1    N     N_3   0.964205 0.233852 0.527168 -0.245959
H41   H     H_    0.939726 0.257460 0.433634 0.120492
H42   H     H_    0.991703 0.268226 0.593837 0.083715
N2    N     N_3   0.939299 0.767022 0.874902 -0.169695
H43   H     H_    0.929865 0.775070 0.758118 0.177119
H44   H     H_    0.897739 0.783654 0.928805 0.026446
N3    N     N_3   0.464323 0.733587 0.526611 -0.246176
H45   H     H_    0.439727 0.757019 0.432970 0.120824
H46   H     H_    0.491515 0.768201 0.593227 0.084186
N4    N     N_3   0.439129 0.268266 0.872168 -0.168216
H47   H     H_    0.429575 0.278203 0.756254 0.175014
H48   H     H_    0.397896 0.284615 0.927782 0.028992
N5    N     N_3   0.681929 0.502071 0.684464 -0.170323
H49   H     H_    0.668358 0.514130 0.795000 0.155167
H50   H     H_    0.706136 0.543166 0.640622 0.136126
N6    N     N_3   0.687810 0.497343 0.158476 -0.182582
H51   H     H_    0.712431 0.469382 0.079254 0.123340
H52   H     H_    0.644279 0.514901 0.100920 0.146414
N7    N     N_3   0.188232 0.005251 0.657157 -0.165266
H53   H     H_    0.171554 0.024109 0.759593 0.161355
H54   H     H_    0.217304 0.041936 0.609106 0.137665
N8    N     N_3   0.200669 0.996417 0.110328 -0.190600
H55   H     H_    0.155396 0.012927 0.059013 0.139974
H56   H     H_    0.189168 0.958809 0.186823 0.133940
N9    N     N_3   0.696646 0.390848 0.768077 -0.150440
H57   H     H_    0.726270 0.348913 0.759058 0.141733
H58   H     H_    0.690541 0.400115 0.884078 0.093711
N10   N     N_3   0.696722 0.595268 0.311105 -0.212540
H59   H     H_    0.659128 0.621837 0.251132 0.207834
H60   H     H_    0.673847 0.565104 0.390180 0.138902
N11   N     N_3   0.191764 0.899217 0.775757 -0.155049
H61   H     H_    0.216901 0.854161 0.778352 0.136866
H62   H     H_    0.186705 0.914648 0.888494 0.108790
N12   N     N_3   0.189310 0.077593 0.308980 -0.217517
H63   H     H_    0.154466 0.108793 0.253410 0.205250
H64   H     H_    0.163193 0.038951 0.358007 0.143229
F1    F     F_    0.205334 0.532079 0.135245 -0.790190
F2    F     F_    0.203864 0.467085 0.633743 -0.787810
F3    F     F_    0.705363 0.031996 0.135417 -0.790172
F4    F     F_    0.703740 0.967103 0.633728 -0.787822
N13   N     N_3   0.289357 0.629322 0.012946 -0.186444
H65   H     H_    0.250430 0.655358 0.956318 0.116626
H66   H     H_    0.281907 0.631268 0.130702 0.165513
N14   N     N_3   0.288585 0.371238 0.515192 -0.190062
H67   H     H_    0.249574 0.344743 0.459357 0.118151
H68   H     H_    0.281580 0.369621 0.633217 0.161715
N15   N     N_3   0.789163 0.129425 0.012615 -0.187043
H69   H     H_    0.750330 0.155387 0.955433 0.116222
H70   H     H_    0.781472 0.131503 0.130240 0.164705
N16   N     N_3   0.788207 0.871049 0.514911 -0.190147
H71   H     H_    0.749257 0.844696 0.458459 0.118192
H72   H     H_    0.780920 0.869302 0.632795 0.161593
N17   N     N_3   0.306247 0.556624 0.804245 -0.217317
H73   H     H_    0.316818 0.507487 0.780521 0.152970
H74   H     H_    0.266639 0.571437 0.729636 0.168498
N18   N     N_3   0.306120 0.443294 0.305001 -0.216137
H75   H     H_    0.316117 0.492478 0.279561 0.156967
H76   H     H_    0.266900 0.427277 0.230397 0.166496
N19   N     N_3   0.806216 0.056528 0.804392 -0.217580
H77   H     H_    0.816714 0.007357 0.780883 0.152718
H78   H     H_    0.766644 0.071332 0.729671 0.168640
N20   N     N_3   0.806190 0.943313 0.305347 -0.216761
H79   H     H_    0.816249 0.992512 0.280189 0.156693
H80   H     H_    0.767059 0.927361 0.230405 0.166758
F5    F     F_    0.057194 0.167846 0.580583 -0.808426
F6    F     F_    0.014919 0.785204 0.077621 -0.807285
F7    F     F_    0.557786 0.668216 0.580704 -0.810339
F8    F     F_    0.514324 0.283715 0.077063 -0.804292
N21   N     N_3   0.936293 0.097943 0.574894 -0.213656
H81   H     H_    0.913665 0.052039 0.554591 0.120690
H82   H     H_    0.897715 0.129510 0.602931 0.110851
N22   N     N_3   0.942267 0.896630 0.066741 -0.224027
H83   H     H_    0.936190 0.947650 0.072820 0.114670
H84   H     H_    0.894116 0.876901 0.051794 0.097364
N23   N     N_3   0.437711 0.597269 0.574265 -0.214720
H85   H     H_    0.415297 0.551302 0.553562 0.120015
H86   H     H_    0.398967 0.628603 0.602575 0.109992
N24   N     N_3   0.443349 0.396984 0.066574 -0.224785
H87   H     H_    0.438319 0.448103 0.073309 0.114191
H88   H     H_    0.394884 0.378316 0.048711 0.097622
N25   N     N_3   0.910086 0.136663 0.322300 -0.229351
H89   H     H_    0.929384 0.158168 0.226274 0.220416
H90   H     H_    0.884459 0.093621 0.288818 0.094312
N26   N     N_3   0.945533 0.902567 0.793272 -0.169345
H91   H     H_    0.942625 0.953913 0.791744 0.126738
H92   H     H_    0.896137 0.885549 0.791049 0.079450
N27   N     N_3   0.411254 0.636013 0.321856 -0.229046
H93   H     H_    0.430349 0.657944 0.226112 0.221155
H94   H     H_    0.385956 0.592824 0.288100 0.093883
N28   N     N_3   0.449869 0.404155 0.794093 -0.167979
H95   H     H_    0.449416 0.455579 0.792772 0.133239
H96   H     H_    0.399741 0.389262 0.789613 0.076813
N29   N     N_3   0.069240 0.087545 0.864135 -0.229192
H97   H     H_    0.111484 0.117781 0.861884 0.125054
H98   H     H_    0.049505 0.079275 0.752536 0.146587
N30   N     N_3   0.070391 0.914891 0.368487 -0.219982
H99   H     H_    0.116131 0.891320 0.391918 0.121864
H100  H     H_    0.056688 0.908904 0.252534 0.059808
N31   N     N_3   0.569260 0.587839 0.863086 -0.229109
H101  H     H_    0.611458 0.618111 0.860236 0.124991
H102  H     H_    0.549354 0.579379 0.751727 0.147117
N32   N     N_3   0.569951 0.413038 0.359875 -0.226703
H103  H     H_    0.547081 0.432898 0.260074 0.060918
H104  H     H_    0.593524 0.452414 0.418416 0.158253
N33   N     N_3   0.077572 0.398210 0.601717 -0.142595
H105  H     H_    0.096442 0.443652 0.631393 0.208059
H106  H     H_    0.091062 0.406399 0.490811 0.144744
N34   N     N_3   0.078248 0.600112 0.101753 -0.136255
H107  H     H_    0.098071 0.555037 0.130600 0.202913
H108  H     H_    0.090153 0.592339 0.989662 0.138135
N35   N     N_3   0.577523 0.898249 0.601892 -0.142511
H109  H     H_    0.596367 0.943717 0.631395 0.208138
H110  H     H_    0.590926 0.906476 0.490942 0.144685
N36   N     N_3   0.578210 0.099979 0.101978 -0.135685
H111  H     H_    0.598118 0.054912 0.130585 0.202681
H112  H     H_    0.589926 0.092184 0.989778 0.137775
N37   N     N_3   0.006507 0.066866 0.377866 -0.176902
H113  H     H_    0.988454 0.049112 0.271079 0.155679
H114  H     H_    0.056316 0.080773 0.370684 0.206155
N38   N     N_3   0.045202 0.919418 0.954150 -0.199094
H115  H     H_    0.062905 0.932624 0.847972 0.213668
H116  H     H_    0.082636 0.891640 0.011518 0.121972
N39   N     N_3   0.508438 0.567087 0.377206 -0.186368
H117  H     H_    0.489587 0.548219 0.272106 0.150461
H118  H     H_    0.557892 0.581755 0.366335 0.203484
N40   N     N_3   0.548180 0.417394 0.959983 -0.203401
H119  H     H_    0.571214 0.422104 0.856016 0.214373
H120  H     H_    0.581112 0.391320 0.034622 0.127846
N41   N     N_3   0.051228 0.233113 0.907263 -0.176222
H121  H     H_    0.083802 0.221037 0.823381 0.095247
H122  H     H_    0.077327 0.230404 0.014024 0.220030
N42   N     N_3   0.052619 0.771327 0.398195 -0.157961
H123  H     H_    0.085321 0.788904 0.318831 0.094762
H124  H     H_    0.078240 0.770324 0.505920 0.206672
N43   N     N_3   0.551195 0.733406 0.907507 -0.175950
H125  H     H_    0.583848 0.721456 0.823709 0.095224
H126  H     H_    0.577214 0.730676 0.014363 0.219666
N44   N     N_3   0.552337 0.272077 0.391690 -0.158378
H127  H     H_    0.587258 0.292969 0.321693 0.112120
H128  H     H_    0.575315 0.267007 0.501683 0.211155
F9    F     F_    0.046847 0.122889 0.104898 -0.722225
F10   F     F_    0.045687 0.879777 0.608734 -0.680453
F11   F     F_    0.547253 0.622958 0.104130 -0.724491
F12   F     F_    0.547370 0.378992 0.602961 -0.678172
N45   N     N_3   0.962473 0.070545 0.961782 -0.215558
H129  H     H_    0.938825 0.067573 0.852638 0.057686
H130  H     H_    0.927123 0.088248 0.034094 0.136738
N46   N     N_3   0.962210 0.930945 0.460452 -0.199059
H131  H     H_    0.945700 0.940777 0.347190 0.041675
H132  H     H_    0.922225 0.908177 0.511037 0.156371
N47   N     N_3   0.462659 0.570709 0.961347 -0.215715
H133  H     H_    0.438472 0.568353 0.852695 0.057171
H134  H     H_    0.427660 0.588007 0.034993 0.137078
N48   N     N_3   0.462395 0.431334 0.460015 -0.211093
H135  H     H_    0.443227 0.440298 0.348306 0.038380
H136  H     H_    0.423521 0.408906 0.515387 0.158844
N49   N     N_3   0.824753 0.415172 0.874647 -0.219687
H137  H     H_    0.874411 0.426119 0.906960 0.193447
H138  H     H_    0.798517 0.413376 0.974724 0.142107
N50   N     N_3   0.830634 0.584104 0.360130 -0.219082
H139  H     H_    0.880660 0.572763 0.385618 0.174465
H140  H     H_    0.807140 0.587017 0.463958 0.169988
N51   N     N_3   0.323040 0.915045 0.877390 -0.221130
H141  H     H_    0.372584 0.925425 0.912075 0.192119
H142  H     H_    0.295791 0.914419 0.976192 0.150728
N52   N     N_3   0.328370 0.085237 0.361570 -0.224687
H143  H     H_    0.377527 0.074132 0.397146 0.181532
H144  H     H_    0.301409 0.089620 0.460247 0.158914

loop_
_geom_bond_atom_site_label_1
_geom_bond_atom_site_label_2
_geom_bond_distance
_ccdc_geom_bond_type
C17   N5    1.462551 S    
N19   H78   1.042869 S    
C45   C49   1.398127 A    
C54   C58   1.423009 A    
O8    Ba3   2.819434 S    
N40   H120  1.045759 S    
P6    O26   1.589255 D    
C36   H36   1.073553 S    
C48   C52   1.396064 A    
N33   H105  1.023832 S    
C47   C51   1.398100 A    
N3    H46   1.044389 S    
C83   H27   1.079923 S    
O20   C24   1.389761 S    
C23   H15   1.102511 S    
C18   N10   1.464587 S    
P15   C48   1.855216 S    
C1    N25   1.467674 S    
N23   H85   1.045634 S    
C1    N21   1.463747 S    
C66   C82   1.408228 A    
N24   H87   1.045633 S    
P2    Ba2   3.480967 S    
C61   C65   1.423751 A    
O10   Ba2   2.833993 S    
C8    N44   1.465067 S    
C64   C68   1.421413 A    
P2    O18   1.769834 S    
O4    Ba4   2.834162 S    
C63   C67   1.423690 A    
P4    O8    1.556132 S    
C20   N12   1.464568 S    
O28   Ba4   2.847231 S    
C51   H23   1.083831 S    
C53   C57   1.424994 A    
C25   H17   1.110797 S    
C42   C46   1.412673 A    
O31   Ba3   2.831963 S    
C87   H39   1.079640 S    
N49   H138  1.042593 S    
C7    H3    1.096660 S    
C77   C81   1.398625 A    
N36   H112  1.030126 S    
C9    F9    1.374167 S    
C76   C80   1.402205 A    
C21   C25   1.542372 S    
N4    H47   1.036998 S    
C22   F2    1.370070 S    
C79   C83   1.398726 A    
N38   H115  1.042611 S    
C10   N30   1.464299 S    
C3    N27   1.467628 S    
N7    H53   1.043687 S    
N11   H61   1.046190 S    
C10   N46   1.462939 S    
P8    O47   1.565225 S    
C11   N31   1.462314 S    
N12   H64   1.044612 S    
C20   N8    1.464591 S    
C41   C45   1.415867 A    
C7    C11   1.563948 S    
C86   H38   1.079816 S    
C24   C28   1.543221 S    
C37   C41   1.426910 A    
P8    O28   1.589255 D    
N32   H103  1.041817 S    
C55   C85   1.419289 A    
P9    O29   1.758300 S    
O12   P15   1.755912 S    
P5    C70   1.878311 S    
P11   O31   1.758371 S    
P12   O32   1.756384 S    
O43   C7    1.406974 S    
C20   H12   1.110744 S    
C76   H32   1.082360 S    
O5    Ba2   2.824487 S    
Ba4   O47   3.060288 S    
O41   C5    1.406919 S    
C2    N26   1.468613 S    
O44   C8    1.404264 S    
N30   H100  1.039264 S    
C12   N48   1.466728 S    
O21   P14   1.772748 S    
N28   H96   1.045890 S    
O17   C21   1.389425 S    
C52   H24   1.082863 S    
O19   C23   1.389379 S    
C34   C58   1.412336 A    
N48   H135  1.042427 S    
C39   C43   1.426695 A    
P3    O7    1.561164 S    
O11   Ba3   2.832703 S    
C5    H1    1.096584 S    
N6    H51   1.040665 S    
C22   C26   1.543460 S    
N2    H44   1.036021 S    
C56   C86   1.416815 A    
N51   H141  1.042074 S    
C38   C42   1.424163 A    
C27   H19   1.110788 S    
C15   H7    1.111821 S    
O1    Ba1   2.843318 S    
N18   H75   1.043650 S    
P10   C77   1.867700 S    
P11   O35   1.543832 D    
N39   H118  1.042176 S    
P12   O44   1.758657 S    
N20   H80   1.042976 S    
C30   N2    1.460796 S    
N31   H102  1.042617 S    
P16   C47   1.868763 S    
C6    C10   1.559252 S    
N17   H73   1.044506 S    
C8    H4    1.095695 S    
N38   H116  1.045175 S    
C1    N37   1.473268 S    
C4    N28   1.466726 S    
C33   H33   1.073807 S    
N37   H114  1.040668 S    
N52   H143  1.041579 S    
N1    H42   1.044383 S    
C5    N41   1.463016 S    
N41   H122  1.043135 S    
C51   C55   1.404303 A    
C62   C70   1.438399 A    
O6    Ba1   2.819434 S    
P7    O27   1.591069 D    
N34   H108  1.030205 S    
O40   C15   1.406535 S    
C74   C78   1.402567 A    
N25   H89   1.035459 S    
C82   H26   1.078951 S    
O18   C22   1.389920 S    
N12   H63   1.043676 S    
O14   P13   1.543068 D    
C23   C27   1.542150 S    
N29   H97   1.044104 S    
C18   N6    1.463548 S    
N45   H130  1.038829 S    
C6    H2    1.096363 S    
C25   N13   1.462774 S    
C11   N47   1.462454 S    
N26   H91   1.044765 S    
O24   C32   1.415395 S    
Ba3   Ba4   4.772557 S    
N44   H127  1.041046 S    
C2    C30   1.579750 S    
O2    Ba2   2.834162 S    
Ba1   O46   3.062489 S    
C68   C84   1.408219 A    
O26   Ba2   2.847231 S    
C63   C71   1.443537 A    
Ba3   O48   3.062489 S    
N9    H57   1.045848 S    
P5    Ba1   3.483718 S    
N8    H56   1.045831 S    
C44   C48   1.412059 A    
N50   H140  1.043885 S    
N5    H49   1.044444 S    
C28   N20   1.460263 S    
C13   N49   1.452914 S    
N21   H82   1.045764 S    
N11   H62   1.041625 S    
C78   C82   1.396504 A    
C28   N16   1.462759 S    
C21   H13   1.102491 S    
C43   N35   1.443883 S    
N16   H71   1.044942 S    
C13   H5    1.111614 S    
C42   N34   1.445282 S    
C25   N17   1.460176 S    
O22   C30   1.415552 S    
N46   H132  1.040951 S    
N42   H123  1.039527 S    
C2    N38   1.474492 S    
O16   P15   1.542873 D    
N25   H90   1.045433 S    
N20   H79   1.043652 S    
C37   C57   1.449646 A    
C15   N51   1.453089 S    
O15   P16   1.544769 D    
C24   H16   1.102571 S    
N14   H67   1.044989 S    
N24   H88   1.044237 S    
N1    H41   1.044720 S    
C73   C77   1.405116 A    
P10   O30   1.756571 S    
P6    C69   1.890598 S    
N46   H131  1.042554 S    
O32   Ba4   2.830693 S    
N27   H93   1.035400 S    
P5    O46   1.560147 S    
Ba2   O45   3.060288 S    
C17   H9    1.104408 S    
P7    O48   1.560147 S    
C50   H22   1.083531 S    
O42   C6    1.404257 S    
C19   H11   1.106128 S    
C27   N19   1.460127 S    
O25   Ba1   2.838005 S    
O37   C14   1.403547 S    
N10   H59   1.044551 S    
C16   C20   1.541265 S    
N49   H137  1.041836 S    
C6    N42   1.464254 S    
C36   C60   1.412262 A    
C41   N33   1.443725 S    
C7    N43   1.462936 S    
P1    O1    1.590228 D    
C72   C76   1.404688 A    
P3    O3    1.590228 D    
P4    O20   1.769758 S    
N4    H48   1.036237 S    
C22   H14   1.102529 S    
N15   H69   1.044924 S    
P3    Ba3   3.485893 S    
C13   C17   1.572881 S    
P11   C80   1.859331 S    
P7    C72   1.878184 S    
P12   C79   1.867424 S    
C73   H29   1.082182 S    
P8    C71   1.890282 S    
P10   O42   1.759136 S    
C71   C75   1.408670 A    
O29   Ba1   2.831963 S    
O9    P14   1.757580 S    
P4    O4    1.592043 D    
C29   F5    1.378117 S    
P8    Ba4   3.488718 S    
N40   H119  1.042566 S    
N32   H104  1.045943 S    
C14   C18   1.552154 S    
C34   H34   1.073538 S    
N33   H106  1.030237 S    
C10   F10   1.374457 S    
C63   C87   1.412227 A    
P4    C40   1.888703 S    
N35   H109  1.023778 S    
C16   H8    1.109843 S    
C31   N3    1.457775 S    
C50   C54   1.403307 A    
N31   H101  1.044127 S    
C40   C60   1.445390 A    
C54   C88   1.416715 A    
C21   F1    1.370250 S    
C18   H10   1.112360 S    
N10   H60   1.043999 S    
N43   H125  1.036159 S    
P8    O40   1.760207 S    
O24   P15   1.761030 S    
O38   C13   1.407536 S    
P9    O33   1.543851 D    
P11   O43   1.757152 S    
P1    O5    1.561164 S    
N48   H136  1.040755 S    
C81   H25   1.079772 S    
N6    H52   1.045665 S    
O12   Ba4   2.833993 S    
P13   C46   1.856172 S    
C3    N23   1.463720 S    
C2    N22   1.469175 S    
C35   H35   1.073834 S    
C69   C73   1.408637 A    
C28   H20   1.110072 S    
N18   H76   1.042943 S    
C35   C65   1.416781 A    
C49   C53   1.404545 A    
N36   H111  1.025087 S    
C33   C67   1.416817 A    
C34   C68   1.413723 A    
Ba4   O48   2.819570 S    
C52   C56   1.403002 A    
P1    C37   1.900326 S    
C12   N32   1.465944 S    
C19   N7    1.462507 S    
O30   Ba2   2.830693 S    
O10   P13   1.756650 S    
C17   N9    1.466915 S    
C26   N14   1.462815 S    
P5    O25   1.591069 D    
O22   P13   1.763142 S    
P6    O38   1.761339 S    
C15   C19   1.567920 S    
N37   H113  1.043620 S    
N52   H144  1.043856 S    
N44   H128  1.045157 S    
N41   H121  1.036246 S    
N39   H117  1.043807 S    
C80   C84   1.396590 A    
N22   H83   1.045693 S    
C14   H6    1.109648 S    
C65   C81   1.409790 A    
O11   P16   1.757532 S    
C14   N50   1.452342 S    
C44   N36   1.445482 S    
Ba1   Ba2   4.772557 S    
C61   C69   1.443415 A    
P4    Ba4   3.480967 S    
N3    H45   1.044789 S    
C64   C72   1.438376 A    
P1    O17   1.768264 S    
C36   C66   1.413711 A    
N27   H94   1.045443 S    
P3    O19   1.768099 S    
C56   C60   1.422702 A    
C38   C58   1.445446 A    
C19   N11   1.465849 S    
N45   H129  1.040474 S    
C55   C59   1.424842 A    
C12   F12   1.377085 S    
C26   N18   1.460171 S    
C4    N40   1.472027 S    
N30   H99   1.045751 S    
N26   H92   1.045599 S    
C43   C47   1.415326 A    
N7    H54   1.044359 S    
N28   H95   1.044540 S    
P3    C39   1.899242 S    
Ba1   O45   2.824619 S    
C9    N45   1.462457 S    
C75   H31   1.082246 S    
Ba3   O47   2.824619 S    
C16   N52   1.452819 S    
N5    H50   1.045354 S    
O7    Ba4   2.824487 S    
C31   F7    1.377940 S    
N2    H43   1.037278 S    
C32   F8    1.375614 S    
C27   N15   1.462719 S    
N21   H81   1.045764 S    
C61   C85   1.412120 A    
O23   P16   1.771413 S    
O3    Ba3   2.843318 S    
P2    O2    1.592043 D    
C23   F3    1.370216 S    
C4    C32   1.576882 S    
C40   C44   1.423882 A    
O13   P14   1.544993 D    
P5    O37   1.760424 S    
N16   H72   1.045509 S    
N17   H74   1.042875 S    
P7    O39   1.755280 S    
N42   H124  1.044858 S    
C74   H30   1.082332 S    
N15   H70   1.045309 S    
P12   O36   1.545185 D    
C1    C29   1.567463 S    
O27   Ba3   2.838005 S    
N35   H110  1.030181 S    
C75   C79   1.404779 A    
P6    Ba2   3.488718 S    
C67   C83   1.409839 A    
N47   H134  1.038524 S    
C84   H28   1.079015 S    
C30   F6    1.374833 S    
C3    C31   1.565889 S    
N14   H68   1.045570 S    
C24   F4    1.370048 S    
N51   H142  1.043934 S    
C88   H40   1.079670 S    
N43   H126  1.043149 S    
O39   C16   1.402496 S    
P2    C38   1.890051 S    
N34   H107  1.025034 S    
C62   C86   1.411725 A    
C35   C59   1.413551 A    
N13   H66   1.045366 S    
C33   C57   1.413587 A    
Ba2   O46   2.819570 S    
N19   H77   1.044452 S    
P2    O6    1.556132 S    
C29   N1    1.456971 S    
C5    C9    1.564098 S    
N23   H86   1.046001 S    
P1    Ba1   3.485893 S    
O9    Ba1   2.832703 S    
N22   H84   1.044197 S    
O21   C29   1.421500 S    
C46   C50   1.396380 A    
P9    O41   1.757074 S    
P9    C78   1.859616 S    
P10   O34   1.544948 D    
O23   C31   1.421102 S    
C32   N4    1.460915 S    
N9    H58   1.041947 S    
N47   H133  1.040468 S    
C85   H37   1.079679 S    
N8    H55   1.045308 S    
N50   H139  1.041200 S    
N29   H98   1.042767 S    
P14   C45   1.869539 S    
C9    N29   1.462662 S    
C26   H18   1.110149 S    
C11   F11   1.374190 S    
C8    C12   1.552596 S    
C4    N24   1.468945 S    
C70   C74   1.404479 A    
C64   C88   1.411751 A    
C3    N39   1.474008 S    
C49   H21   1.084215 S    
C62   C66   1.421602 A    
C53   C87   1.419283 A    
P6    O45   1.565225 S    
N13   H65   1.044949 S    
C39   C59   1.449710 A    
P7    Ba3   3.483718 S    
