data_mof_unit_64089.cif
_audit_creation_date              2012-12-10T20:02:44-0500
_audit_creation_method            fapswitch 2.2
_symmetry_space_group_name_H-M    P1
_symmetry_Int_Tables_number       1
_space_group_crystal_system       triclinic
_cell_length_a                    38.505138
_cell_length_b                    32.070058
_cell_length_c                    21.494035
_cell_angle_alpha                 89.987466
_cell_angle_beta                  56.397184
_cell_angle_gamma                 90.001783
_cell_volume                      22106.8120414

loop_
_atom_site_label
_atom_site_type_symbol
_atom_type_description
_atom_site_fract_x
_atom_site_fract_y
_atom_site_fract_z
_atom_type_partial_charge
C1    C     C_R   0.919258 0.499977 0.580800 0.911901
C2    C     C_R   0.080741 0.499985 0.419201 0.911995
C3    C     C_R   0.419258 0.999978 0.580800 0.911901
C4    C     C_R   0.580741 0.999985 0.419201 0.911995
C5    C     C_3   0.975965 0.460543 0.308572 -0.385331
C6    C     C_3   0.022235 0.459612 0.693357 -0.383197
C7    C     C_3   0.475956 0.960548 0.308582 -0.385342
C8    C     C_3   0.522235 0.959612 0.693357 -0.383198
C9    C     C_3   0.998292 0.499982 0.312072 0.175747
C10   C     C_3   0.001686 0.499978 0.687951 0.175638
C11   C     C_3   0.498292 0.999982 0.312072 0.175747
C12   C     C_3   0.501686 0.999978 0.687951 0.175638
C13   C     C_3   0.000033 0.500003 0.189695 0.174340
C14   C     C_3   0.999968 0.500183 0.810304 0.174326
C15   C     C_3   0.500033 0.000002 0.189695 0.174340
C16   C     C_3   0.499968 0.000183 0.810304 0.174327
C17   C     C_3   0.045166 0.500110 0.171614 -0.371637
C18   C     C_3   0.954869 0.502007 0.828368 -0.371744
C19   C     C_3   0.545166 0.000101 0.171614 -0.371636
C20   C     C_3   0.454869 0.002007 0.828368 -0.371744
C21   C     C_3   0.977041 0.460605 0.236095 -0.405779
C22   C     C_3   0.021414 0.459917 0.765584 -0.407095
C23   C     C_3   0.477033 0.960609 0.236104 -0.405772
C24   C     C_3   0.521414 0.959917 0.765584 -0.407097
C25   C     C_R   0.728294 0.470720 0.808226 -0.184283
C26   C     C_R   0.271685 0.471579 0.190329 -0.184264
C27   C     C_R   0.228294 0.970719 0.808226 -0.184285
C28   C     C_R   0.771685 0.971579 0.190329 -0.184263
C29   C     C_R   0.706516 0.500093 0.794337 0.170017
C30   C     C_R   0.293484 0.500109 0.205666 0.169935
C31   C     C_R   0.206516 0.000093 0.794337 0.170017
C32   C     C_R   0.793485 0.000109 0.205666 0.169935
C33   C     C_R   0.728007 0.529476 0.737162 -0.183973
C34   C     C_R   0.272013 0.528655 0.264289 -0.183923
C35   C     C_R   0.228007 0.029476 0.737162 -0.183973
C36   C     C_R   0.772013 0.028654 0.264289 -0.183923
C37   C     C_R   0.771453 0.529467 0.693666 -0.186427
C38   C     C_R   0.228568 0.528652 0.307784 -0.186457
C39   C     C_R   0.271453 0.029467 0.693666 -0.186428
C40   C     C_R   0.728568 0.028652 0.307784 -0.186458
C41   C     C_R   0.793230 0.500080 0.707525 0.171273
C42   C     C_R   0.206769 0.500107 0.292477 0.171376
C43   C     C_R   0.293230 0.000080 0.707525 0.171273
C44   C     C_R   0.706769 0.000107 0.292477 0.171376
C45   C     C_R   0.998012 0.499974 0.380402 0.834539
C46   C     C_R   0.001956 0.499960 0.619630 0.834600
C47   C     C_R   0.498013 0.999974 0.380402 0.834540
C48   C     C_R   0.501956 0.999960 0.619630 0.834600
C49   C     C_R   0.771744 0.470713 0.764730 -0.185900
C50   C     C_R   0.228235 0.471578 0.233824 -0.185894
C51   C     C_R   0.271744 0.970712 0.764730 -0.185900
C52   C     C_R   0.728235 0.971578 0.233824 -0.185896
C53   C     C_1   0.662076 0.500029 0.838662 -0.073049
C54   C     C_1   0.337924 0.500036 0.161338 -0.073065
C55   C     C_1   0.162076 0.000029 0.838662 -0.073049
C56   C     C_1   0.837924 0.000036 0.161338 -0.073065
C57   C     C_1   0.837668 0.500026 0.662911 -0.075830
C58   C     C_1   0.162331 0.500054 0.337092 -0.075803
C59   C     C_1   0.337668 0.000026 0.662911 -0.075831
C60   C     C_1   0.662332 0.000054 0.337092 -0.075803
C61   C     C_1   0.874991 0.499998 0.625355 -0.196997
C62   C     C_1   0.125009 0.500019 0.374648 -0.197019
C63   C     C_1   0.374991 0.999997 0.625355 -0.196997
C64   C     C_1   0.625009 0.000019 0.374648 -0.197019
C65   C     C_1   0.624748 0.499982 0.875784 -0.177972
C66   C     C_1   0.375252 0.499984 0.124216 -0.177977
C67   C     C_1   0.124748 0.999981 0.875784 -0.177972
C68   C     C_1   0.875252 0.999984 0.124216 -0.177977
C69   C     C_1   0.499997 0.662109 0.999978 -0.073245
C70   C     C_1   0.999997 0.162109 0.999978 -0.073245
C71   C     C_R   0.000003 0.580663 0.999999 0.911632
C72   C     C_R   0.500003 0.080663 0.999999 0.911634
C73   C     C_R   0.000128 0.500004 0.121532 0.835563
C74   C     C_R   0.999872 0.500188 0.878470 0.835559
C75   C     C_R   0.500128 0.000002 0.121532 0.835563
C76   C     C_R   0.499872 0.000188 0.878470 0.835560
C77   C     C_1   0.999988 0.337672 0.000000 -0.075857
C78   C     C_1   0.499988 0.837672 0.000000 -0.075857
C79   C     C_R   0.999997 0.419244 0.000001 0.912543
C80   C     C_R   0.499997 0.919244 0.000001 0.912541
C81   C     C_1   0.999990 0.374991 0.000003 -0.197051
C82   C     C_1   0.499990 0.874991 0.000003 -0.197051
C83   C     C_R   0.500000 0.419523 0.000006 0.900756
C84   C     C_R   1.000000 0.919523 0.000006 0.900756
C85   C     C_R   0.580476 0.499949 0.919704 0.901706
C86   C     C_R   0.419524 0.499949 0.080296 0.901753
C87   C     C_R   0.080476 0.999949 0.919704 0.901706
C88   C     C_R   0.919524 0.999949 0.080296 0.901753
C89   C     C_R   0.500000 0.580527 0.999994 0.902694
C90   C     C_R   0.000000 0.080527 0.999994 0.902694
C91   C     C_R   0.529721 0.271826 0.935516 -0.184118
C92   C     C_R   0.470307 0.271801 0.064519 -0.184101
C93   C     C_R   0.029721 0.771826 0.935515 -0.184118
C94   C     C_R   0.970307 0.771801 0.064519 -0.184101
C95   C     C_R   0.500013 0.293455 0.000019 0.169938
C96   C     C_R   0.000013 0.793455 0.000019 0.169938
C97   C     C_R   0.970310 0.728346 0.064516 -0.186103
C98   C     C_R   0.029722 0.728371 0.935511 -0.186149
C99   C     C_R   0.470309 0.228347 0.064515 -0.186103
C100  C     C_R   0.529722 0.228371 0.935511 -0.186149
C101  C     C_R   0.000016 0.706719 0.000011 0.171075
C102  C     C_R   0.500016 0.206719 0.000011 0.171075
C103  C     C_1   0.500008 0.337906 0.000019 -0.072987
C104  C     C_1   0.000008 0.837906 0.000019 -0.072987
C105  C     C_1   0.000014 0.662270 0.000004 -0.075823
C106  C     C_1   0.500014 0.162270 0.000004 -0.075823
C107  C     C_1   0.000011 0.624940 1.000000 -0.196911
C108  C     C_1   0.500011 0.124940 1.000000 -0.196912
C109  C     C_1   0.499999 0.624788 0.999982 -0.178253
C110  C     C_1   0.999999 0.124788 0.999982 -0.178253
C111  C     C_1   0.500003 0.375239 0.000016 -0.177620
C112  C     C_1   0.000003 0.875239 0.000016 -0.177620
C113  C     C_R   0.526779 0.728169 0.013384 -0.184064
C114  C     C_R   0.473208 0.728170 0.986582 -0.184061
C115  C     C_R   0.026779 0.228169 0.013385 -0.184065
C116  C     C_R   0.973209 0.228170 0.986582 -0.184059
C117  C     C_R   0.499996 0.706539 0.999980 0.169907
C118  C     C_R   0.999996 0.206539 0.999980 0.169907
C119  C     C_R   0.999989 0.293245 0.999994 0.171732
C120  C     C_R   0.499989 0.793245 0.999994 0.171732
C121  C     C_R   0.973207 0.271616 0.986587 -0.186203
C122  C     C_R   0.026776 0.271615 0.013394 -0.186268
C123  C     C_R   0.473207 0.771616 0.986587 -0.186202
C124  C     C_R   0.526775 0.771615 0.013394 -0.186268
C125  C     C_3   0.975753 0.539300 0.308786 -0.386049
C126  C     C_3   0.025963 0.538278 0.689355 -0.388234
C127  C     C_3   0.475762 0.039305 0.308776 -0.386036
C128  C     C_3   0.525963 0.038278 0.689355 -0.388234
C129  C     C_3   0.976863 0.539284 0.236271 -0.406501
C130  C     C_3   0.024638 0.538529 0.762082 -0.405120
C131  C     C_3   0.476871 0.039287 0.236263 -0.406507
C132  C     C_3   0.524638 0.038530 0.762082 -0.405120
C133  C     C_3   0.044018 0.500116 0.244143 -0.413654
C134  C     C_3   0.956017 0.502167 0.755838 -0.413542
C135  C     C_3   0.544018 0.000106 0.244143 -0.413655
C136  C     C_3   0.456017 0.002167 0.755838 -0.413541
H1    H     H_    0.991125 0.568216 0.310720 0.186750
H2    H     H_    0.012029 0.567830 0.685684 0.186807
H3    H     H_    0.491141 0.068218 0.310702 0.186749
H4    H     H_    0.512029 0.067830 0.685684 0.186807
H5    H     H_    0.993156 0.432046 0.203109 0.155717
H6    H     H_    0.004323 0.432007 0.799847 0.155873
H7    H     H_    0.493144 0.932046 0.203124 0.155717
H8    H     H_    0.504323 0.932007 0.799847 0.155873
H9    H     H_    0.060733 0.472170 0.245552 0.167610
H10   H     H_    0.938016 0.475078 0.755549 0.166050
H11   H     H_    0.560726 0.972155 0.245557 0.167618
H12   H     H_    0.438016 0.975078 0.755549 0.166050
H13   H     H_    0.062476 0.472115 0.137998 0.174408
H14   H     H_    0.936547 0.474608 0.862818 0.175782
H15   H     H_    0.562471 0.972102 0.138002 0.174401
H16   H     H_    0.436547 0.974608 0.862818 0.175782
H17   H     H_    0.788539 0.447909 0.775576 0.138873
H18   H     H_    0.211423 0.449428 0.221855 0.138780
H19   H     H_    0.288539 0.947909 0.775576 0.138873
H20   H     H_    0.711423 0.949428 0.221855 0.138781
H21   H     H_    0.711722 0.447917 0.852469 0.140102
H22   H     H_    0.288241 0.449426 0.144961 0.140160
H23   H     H_    0.211722 0.947917 0.852469 0.140103
H24   H     H_    0.788241 0.949426 0.144961 0.140160
H25   H     H_    0.711214 0.552258 0.726273 0.140169
H26   H     H_    0.288823 0.550782 0.276300 0.140219
H27   H     H_    0.211214 0.052258 0.726273 0.140169
H28   H     H_    0.788823 0.050782 0.276300 0.140219
H29   H     H_    0.788021 0.552246 0.649379 0.138650
H30   H     H_    0.212014 0.550780 0.353195 0.138534
H31   H     H_    0.288021 0.052246 0.649379 0.138650
H32   H     H_    0.712014 0.050780 0.353195 0.138534
H33   H     H_    0.052768 0.711695 0.885469 0.138857
H34   H     H_    0.947264 0.711651 0.114553 0.138891
H35   H     H_    0.552768 0.211695 0.885470 0.138857
H36   H     H_    0.447263 0.211651 0.114553 0.138891
H37   H     H_    0.552768 0.288520 0.885478 0.140085
H38   H     H_    0.447257 0.288476 0.114558 0.140108
H39   H     H_    0.052768 0.788520 0.885477 0.140085
H40   H     H_    0.947258 0.788476 0.114559 0.140108
H41   H     H_    0.047552 0.288303 0.023796 0.138396
H42   H     H_    0.952428 0.288305 0.976190 0.138416
H43   H     H_    0.547552 0.788303 0.023795 0.138396
H44   H     H_    0.452428 0.788305 0.976190 0.138416
H45   H     H_    0.942818 0.539849 0.357789 0.158324
H46   H     H_    0.058931 0.537231 0.640526 0.157657
H47   H     H_    0.442827 0.039862 0.357781 0.158328
H48   H     H_    0.558931 0.037231 0.640526 0.157657
H49   H     H_    0.944354 0.539991 0.250368 0.182373
H50   H     H_    0.057109 0.538133 0.748202 0.182924
H51   H     H_    0.444362 0.040000 0.250361 0.182369
H52   H     H_    0.557109 0.038133 0.748202 0.182924
H53   H     H_    0.060575 0.528168 0.245672 0.169216
H54   H     H_    0.940787 0.531009 0.753175 0.170881
H55   H     H_    0.560582 0.028153 0.245666 0.169208
H56   H     H_    0.440787 0.031009 0.753175 0.170881
H57   H     H_    0.062359 0.528178 0.138078 0.175444
H58   H     H_    0.938719 0.530626 0.861063 0.174138
H59   H     H_    0.562364 0.028166 0.138074 0.175451
H60   H     H_    0.438719 0.030626 0.861063 0.174138
H61   H     H_    0.991511 0.431712 0.310299 0.186446
H62   H     H_    0.005275 0.431508 0.693326 0.186140
H63   H     H_    0.491495 0.931714 0.310318 0.186448
H64   H     H_    0.505275 0.931508 0.693326 0.186140
H65   H     H_    0.943041 0.459784 0.357598 0.159529
H66   H     H_    0.055034 0.457267 0.644238 0.160380
H67   H     H_    0.443032 0.959797 0.357607 0.159525
H68   H     H_    0.555034 0.957267 0.644238 0.160380
H69   H     H_    0.944526 0.459763 0.250231 0.183182
H70   H     H_    0.053932 0.457968 0.751255 0.182589
H71   H     H_    0.444518 0.959772 0.250238 0.183184
H72   H     H_    0.553932 0.957968 0.751255 0.182590
O1    O     O_R   0.939010 0.534400 0.560970 -0.616147
O2    O     O_R   0.060990 0.534400 0.439030 -0.616077
O3    O     O_R   0.439010 0.034400 0.560970 -0.616147
O4    O     O_R   0.560990 0.034400 0.439030 -0.616077
O5    O     O_R   0.560960 0.500010 0.886780 -0.615466
O6    O     O_R   0.439040 0.500010 0.113220 -0.615500
O7    O     O_R   0.060960 0.000010 0.886780 -0.615466
O8    O     O_R   0.939040 0.000010 0.113220 -0.615500
O9    O     O_R   0.560970 0.499940 0.991330 -0.615576
O10   O     O_R   0.439030 0.499940 0.008670 -0.615610
O11   O     O_R   0.060970 0.999940 0.991330 -0.615576
O12   O     O_R   0.939030 0.999940 0.008670 -0.615610
O13   O     O_R   0.500000 0.561000 0.947810 -0.615801
O14   O     O_R   0.500000 0.561000 0.052190 -0.615798
O15   O     O_R   1.000000 0.061000 0.947810 -0.615801
O16   O     O_R   1.000000 0.061000 0.052190 -0.615798
O17   O     O_R   0.938970 0.465540 0.561010 -0.616336
O18   O     O_R   0.061030 0.465540 0.438990 -0.616278
O19   O     O_R   0.438970 0.965540 0.561010 -0.616336
O20   O     O_R   0.561030 0.965540 0.438990 -0.616278
O21   O     O_R   0.999990 0.534400 0.407410 -0.630513
O22   O     O_R   0.000010 0.534400 0.592590 -0.630425
O23   O     O_R   0.499990 0.034400 0.407410 -0.630514
O24   O     O_R   0.500010 0.034400 0.592590 -0.630425
O25   O     O_R   0.999950 0.465540 0.407450 -0.630696
O26   O     O_R   0.000050 0.465540 0.592550 -0.630830
O27   O     O_R   0.499950 0.965540 0.407450 -0.630696
O28   O     O_R   0.500050 0.965540 0.592550 -0.630830
O29   O     O_R   0.965540 0.560940 0.034450 -0.616143
O30   O     O_R   0.034460 0.560940 0.965550 -0.616157
O31   O     O_R   0.465540 0.060940 0.034450 -0.616142
O32   O     O_R   0.534460 0.060940 0.965550 -0.616157
O33   O     O_R   0.965550 0.499950 0.127040 -0.630017
O34   O     O_R   0.034450 0.499950 0.872960 -0.630031
O35   O     O_R   0.465550 0.999950 0.127040 -0.630018
O36   O     O_R   0.534450 0.999950 0.872960 -0.630031
O37   O     O_R   0.034410 0.500000 0.058200 -0.631862
O38   O     O_R   0.965590 0.500000 0.941800 -0.631851
O39   O     O_R   0.534410 1.000000 0.058200 -0.631861
O40   O     O_R   0.465590 1.000000 0.941800 -0.631851
O41   O     O_R   0.965550 0.438960 0.034430 -0.615941
O42   O     O_R   0.034450 0.438960 0.965570 -0.615960
O43   O     O_R   0.465550 0.938960 0.034430 -0.615942
O44   O     O_R   0.534450 0.938960 0.965570 -0.615961
O45   O     O_R   0.499940 0.439020 0.947690 -0.615359
O46   O     O_R   0.500060 0.439020 0.052310 -0.615362
O47   O     O_R   0.999940 0.939020 0.947690 -0.615359
O48   O     O_R   0.000060 0.939020 0.052310 -0.615362
Zn1   Zn    Zn3+2 0.000000 0.545950 0.500000 0.941094
Zn2   Zn    Zn3+2 0.500000 0.045950 0.500000 0.941094
Zn3   Zn    Zn3+2 0.000000 0.454000 0.500000 0.940887
Zn4   Zn    Zn3+2 0.500000 0.954000 0.500000 0.940887
Zn5   Zn    Zn3+2 0.954000 0.499940 0.045990 0.941045
Zn6   Zn    Zn3+2 0.046000 0.499940 0.954010 0.940974
Zn7   Zn    Zn3+2 0.454000 0.999940 0.045990 0.941045
Zn8   Zn    Zn3+2 0.546000 0.999940 0.954010 0.940974
Zn9   Zn    Zn3+2 0.499970 0.500020 0.930220 0.964756
Zn10  Zn    Zn3+2 0.500030 0.500020 0.069780 0.964756
Zn11  Zn    Zn3+2 0.999970 0.000020 0.930220 0.964756
Zn12  Zn    Zn3+2 0.000030 0.000020 0.069780 0.964756
H73   H     H_    0.547560 0.711481 0.023777 0.140253
H74   H     H_    0.452430 0.711483 0.976185 0.140279
H75   H     H_    0.047560 0.211481 0.023778 0.140253
H76   H     H_    0.952430 0.211483 0.976185 0.140279
H77   H     H_    0.992869 0.567924 0.203427 0.156174
H78   H     H_    0.009633 0.567776 0.793617 0.156045
H79   H     H_    0.492882 0.067925 0.203412 0.156174
H80   H     H_    0.509633 0.067776 0.793617 0.156045

loop_
_geom_bond_atom_site_label_1
_geom_bond_atom_site_label_2
_ccdc_geom_bond_type
C58   C62   T    
C122  H41   S    
C15   C75   S    
C9    C45   S    
C44   C60   S    
C129  H49   S    
C18   H58   S    
C127  H47   S    
C14   C18   S    
C129  H77   S    
C128  H48   S    
O21   Zn1   S    
C12   C48   S    
O31   Zn7   S    
C42   C58   S    
C31   C55   S    
C12   C128  S    
C39   H31   S    
C133  H53   S    
O25   Zn3   S    
C84   O48   A    
O2    Zn1   S    
C19   H59   S    
C30   C54   S    
C22   H70   S    
C84   C112  S    
O35   Zn7   S    
C136  H56   S    
O30   Zn6   S    
C131  H51   S    
C14   C74   S    
C49   H17   S    
C76   O36   A    
C113  H73   S    
C6    H66   S    
C11   C135  S    
C26   C50   A    
C89   O13   A    
C35   C39   A    
C74   O38   A    
C115  H75   S    
C15   C131  S    
C47   O23   A    
C126  C130  S    
C27   H23   S    
C132  H80   S    
O9    Zn10  S    
O5    Zn9   S    
C28   H24   S    
O10   Zn9   S    
C91   H37   S    
C103  C111  T    
C86   O10   A    
C21   H69   S    
C57   C61   T    
C18   H14   S    
C85   O9    A    
O8    Zn12  S    
C124  H43   S    
C7    H67   S    
C70   C110  T    
C8    C24   S    
C15   C19   S    
C98   H33   S    
C69   C109  T    
O42   Zn6   S    
O20   Zn4   S    
C72   C108  S    
C29   C33   A    
C95   C103  S    
O27   Zn4   S    
C80   O43   A    
C69   C117  S    
C10   C46   S    
C19   H15   S    
C72   O32   A    
C80   O44   A    
C26   H22   S    
O36   Zn8   S    
C87   O11   A    
C91   C100  A    
C130  H78   S    
C53   C65   T    
O15   Zn11  S    
O39   Zn8   S    
C7    C23   S    
C1    O1    A    
C43   C59   S    
O40   Zn7   S    
C44   C52   A    
C6    C22   S    
C15   C23   S    
C11   C47   S    
O48   Zn12  S    
C43   C51   A    
C16   C24   S    
C115  C122  A    
O24   Zn2   S    
C33   H25   S    
C100  H35   S    
C101  C105  S    
C2    C62   S    
C46   O22   A    
C132  H52   S    
C17   H57   S    
C76   O40   A    
C45   O21   A    
O32   Zn8   S    
O37   Zn6   S    
C128  C132  S    
C8    H68   S    
C41   C49   A    
C27   C51   A    
O3    Zn2   S    
C7    C11   S    
C2    O2    A    
C47   O27   A    
C119  C121  A    
C25   C29   A    
O26   Zn3   S    
C134  H10   S    
O23   Zn2   S    
C23   H7    S    
O28   Zn4   S    
C116  C121  A    
C30   C34   A    
C83   O46   A    
O29   Zn5   S    
O11   Zn12  S    
C71   O30   A    
C114  H74   S    
C75   O35   A    
O17   Zn3   S    
C45   O25   A    
C80   C82   S    
C116  C118  A    
C3    O19   A    
C89   O14   A    
C79   C81   S    
C8    H64   S    
O6    Zn10  S    
C34   C38   A    
C89   C109  S    
C37   H29   S    
C99   H36   S    
C3    O3    A    
C92   H38   S    
C56   C68   T    
C27   C31   A    
C93   H39   S    
C92   C95   A    
C33   C37   A    
C97   H34   S    
C88   O12   A    
C120  C124  A    
C32   C56   S    
C6    H62   S    
C35   H27   S    
O16   Zn12  S    
C78   C120  S    
C86   O6    A    
C13   C73   S    
C5    C9    S    
C28   C52   A    
C85   O5    A    
C105  C107  T    
C34   H26   S    
C78   C82   T    
O1    Zn1   S    
O22   Zn1   S    
C28   C32   A    
C16   C20   S    
C115  C118  A    
C51   H19   S    
C22   H6    S    
C84   O47   A    
C130  H50   S    
C127  H3    S    
O34   Zn6   S    
C72   O31   A    
C73   O33   A    
C125  H45   S    
C136  H12   S    
C20   C136  S    
C32   C36   A    
C94   C96   A    
C135  H55   S    
C48   O28   A    
O38   Zn5   S    
O19   Zn4   S    
C42   C50   A    
C113  C117  A    
C11   C127  S    
C50   H18   S    
C48   O24   A    
C83   O45   A    
C26   C30   A    
C93   C96   A    
C135  H11   S    
C46   O26   A    
C90   O16   A    
C17   C133  S    
C79   O41   A    
C68   C88   S    
C79   O42   A    
C31   C35   A    
C126  H46   S    
C133  H9    S    
C114  C123  A    
C71   O29   A    
C36   C40   A    
C75   O39   A    
C2    O18   A    
C106  C108  T    
C104  C112  T    
C100  C102  A    
C14   C130  S    
C119  C122  A    
C1    O17   A    
C38   H30   S    
O46   Zn10  S    
C13   C129  S    
C7    H63   S    
C88   O8    A    
C23   H71   S    
C71   C107  S    
C16   C76   S    
C73   O37   A    
C59   C63   T    
C38   C42   A    
C17   H13   S    
C10   C134  S    
O7    Zn11  S    
C123  H44   S    
C77   C119  S    
C1    C61   S    
O18   Zn3   S    
C66   C86   S    
C55   C67   T    
C120  C123  A    
C20   H16   S    
C65   C85   S    
C121  H42   S    
C54   C66   T    
C3    C63   S    
C52   H20   S    
C98   C101  A    
C131  H79   S    
C4    C64   S    
C67   C87   S    
C94   C97   A    
C87   O7    A    
C13   C17   S    
C60   C64   T    
C125  H1    S    
C134  H54   S    
C127  C131  S    
C96   C104  S    
C128  H4    S    
C41   C57   S    
C90   O15   A    
C10   C126  S    
C13   C21   S    
C5    H65   S    
C5    H61   S    
C14   C22   S    
C113  C124  A    
C29   C53   S    
C70   C118  S    
O14   Zn10  S    
C4    O4    A    
O4    Zn2   S    
C126  H2    S    
O45   Zn9   S    
C102  C106  S    
C18   C134  S    
C83   C111  S    
C24   H72   S    
C4    O20   A    
C37   C41   A    
C16   C132  S    
C25   C49   A    
C40   H32   S    
C114  C117  A    
O13   Zn9   S    
C6    C10   S    
O44   Zn8   S    
C25   H21   S    
C21   H5    S    
C74   O34   A    
C9    C125  S    
C125  C129  S    
C40   C44   A    
C99   C102  A    
C5    C21   S    
C39   C43   A    
C91   C95   A    
C77   C81   T    
C12   C136  S    
C94   H40   S    
C36   H28   S    
C24   H8    S    
C90   C110  S    
O47   Zn11  S    
O33   Zn5   S    
O41   Zn5   S    
C116  H76   S    
O12   Zn11  S    
C19   C135  S    
C93   C98   A    
C20   H60   S    
C97   C101  A    
C8    C12   S    
C92   C99   A    
O43   Zn7   S    
C9    C133  S    
