data_mof_unit_20246.cif
_audit_creation_date              2012-12-10T17:33:47-0500
_audit_creation_method            fapswitch 2.2
_symmetry_space_group_name_H-M    P1
_symmetry_Int_Tables_number       1
_space_group_crystal_system       triclinic
_cell_length_a                    11.676625
_cell_length_b                    12.406826
_cell_length_c                    13.203037
_cell_angle_alpha                 116.989038
_cell_angle_beta                  76.387109
_cell_angle_gamma                 101.173707
_cell_volume                      1648.15954434

loop_
_atom_site_label
_atom_site_type_symbol
_atom_type_description
_atom_site_fract_x
_atom_site_fract_y
_atom_site_fract_z
_atom_type_partial_charge
C1    C     C_R   0.510429 0.855020 0.286542 0.828565
C2    C     C_R   0.455677 0.228496 0.836097 -0.254741
C3    C     C_R   0.591876 0.812055 0.083173 -0.158641
C4    C     C_R   0.616644 0.731663 0.967843 -0.132312
C5    C     C_R   0.573318 0.609711 0.931205 -0.178404
C6    C     C_R   0.499522 0.566062 0.009445 0.149908
C7    C     C_R   0.463243 0.651470 0.124161 0.103169
C8    C     C_R   0.459378 0.440796 0.977345 0.015615
C9    C     C_R   0.374901 0.404630 0.055874 -0.057334
C10   C     C_R   0.329868 0.492412 0.163307 -0.146698
C11   C     C_R   0.372148 0.613876 0.196404 -0.207942
C12   C     C_R   0.715674 0.999959 0.499758 0.868671
C13   C     C_R   0.501478 0.350063 0.869596 -0.336700
C14   C     C_R   0.373955 0.193514 0.915012 0.537194
C15   C     C_R   0.518024 0.772745 0.162930 -0.100369
C16   C     C_R   0.702037 0.344768 0.334256 0.456708
C17   C     C_R   0.338992 0.758949 0.644614 0.121684
C18   C     C_R   0.304797 0.663795 0.676952 -0.247609
C19   C     C_R   0.367820 0.562065 0.623492 -0.127914
C20   C     C_R   0.467228 0.553565 0.536174 -0.051221
C21   C     C_R   0.500272 0.653814 0.505866 0.091565
C22   C     C_R   0.533818 0.448813 0.477582 -0.163407
C23   C     C_R   0.481858 0.145044 0.713717 0.857635
C24   C     C_R   0.636745 0.447837 0.394051 -0.150881
C25   C     C_R   0.673090 0.550003 0.371810 0.394809
C26   C     C_R   0.602700 0.645222 0.419605 0.484714
C27   C     C_R   0.502401 0.343604 0.498132 0.073756
C28   C     C_R   0.662021 0.243692 0.357013 -0.032560
C29   C     C_R   0.284315 0.000093 0.500314 0.798829
C30   C     C_1   0.837526 0.999961 0.499577 -0.171283
C31   C     C_1   0.940103 0.999764 0.499569 -0.007622
C32   C     C_1   0.059921 0.999585 0.499750 0.004799
C33   C     C_1   0.162492 0.999689 0.500020 -0.160818
C34   C     C_R   0.334506 0.281128 0.024757 0.531297
Cu1   Cu    Cu3+1 0.526510 0.098270 0.475420 0.950467
Cu2   Cu    Cu3+1 0.473490 0.901730 0.524580 1.010995
H1    H     H_    0.427437 0.336156 0.560878 0.129857
H2    H     H_    0.289542 0.837605 0.686757 0.170338
H3    H     H_    0.336978 0.492009 0.653176 0.133716
H4    H     H_    0.229009 0.668905 0.743957 0.157171
H5    H     H_    0.261567 0.467483 0.222582 0.188318
H6    H     H_    0.569442 0.371462 0.808653 0.188242
H7    H     H_    0.633251 0.904629 0.110455 0.160534
H8    H     H_    0.597008 0.552863 0.840546 0.129016
H9    H     H_    0.673011 0.763264 0.906850 0.149900
H10   H     H_    0.329912 0.677993 0.278395 0.156799
H11   H     H_    0.706993 0.162057 0.310364 0.137449
N1    N     N_R   0.566700 0.246290 0.438210 -0.211550
N2    N     N_R   0.434010 0.754320 0.561170 -0.190533
O1    O     O_R   0.533340 0.972510 0.318140 -0.589021
O2    O     O_R   0.488570 0.806530 0.359650 -0.511514
O3    O     O_R   0.685190 0.083000 0.479260 -0.592836
O4    O     O_R   0.640410 0.917020 0.520770 -0.516239
O5    O     O_R   0.511430 0.193470 0.640350 -0.599644
O6    O     O_R   0.466660 0.027490 0.681860 -0.534948
O7    O     O_R   0.359590 0.082980 0.479230 -0.569678
O8    O     O_R   0.314810 0.917000 0.520740 -0.599488
F1    F     F_    0.327703 0.076013 0.884468 -0.633924
O9    O     O_3   0.774835 0.554571 0.294069 -0.478254
C35   C     C_3   0.866718 0.625135 0.356467 -0.193238
H12   H     H_    0.880986 0.589086 0.415437 0.114309
H13   H     H_    0.849016 0.722082 0.406069 0.173168
H14   H     H_    0.950183 0.621318 0.294390 0.179792
O10   O     O_3   0.796843 0.338978 0.246302 -0.530330
C36   C     C_3   0.899560 0.315453 0.268955 -0.246038
H15   H     H_    0.910382 0.368351 0.361113 0.124857
H16   H     H_    0.978051 0.343231 0.216673 0.219286
H17   H     H_    0.899452 0.216697 0.242235 0.164720
F2    F     F_    0.641016 0.723326 0.372283 -0.627805
F3    F     F_    0.253714 0.245662 0.099260 -0.646354

loop_
_geom_bond_atom_site_label_1
_geom_bond_atom_site_label_2
_ccdc_geom_bond_type
C27   N1    A    
C14   C34   A    
C21   C26   A    
C28   H11   S    
C16   C28   A    
C6    C7    A    
C1    C15   S    
C29   O7    A    
C23   O6    A    
C8    C9    A    
C25   O9    S    
C1    O1    A    
C34   F3    S    
C19   C20   A    
C30   C31   T    
C22   C27   A    
C36   H17   S    
C32   C33   T    
Cu1   O1    S    
C21   N2    A    
C17   C18   A    
Cu1   O7    S    
C24   C25   A    
O9    C35   S    
C16   C24   A    
Cu2   O6    S    
O10   C36   S    
Cu1   O5    S    
C7    C11   A    
C1    O2    A    
C3    H7    S    
C8    C13   A    
Cu2   O2    S    
C19   H3    S    
C27   H1    S    
C35   H14   S    
C14   F1    S    
Cu1   N1    S    
C7    C15   A    
C13   H6    S    
C12   O3    A    
C5    H8    S    
C29   O8    A    
C9    C34   A    
Cu2   O8    S    
C10   H5    S    
C4    H9    S    
C36   H15   S    
C5    C6    A    
C2    C14   A    
C22   C24   A    
C10   C11   A    
C17   N2    A    
C3    C4    A    
C12   O4    A    
C29   C33   S    
Cu1   O3    S    
C3    C15   A    
C20   C21   A    
C23   O5    A    
C35   H13   S    
C18   C19   A    
C9    C10   A    
C17   H2    S    
C2    C23   S    
C26   F2    S    
C2    C13   A    
C18   H4    S    
C35   H12   S    
C11   H10   S    
C6    C8    A    
Cu2   O4    S    
C16   O10   S    
C12   C30   S    
C25   C26   A    
C28   N1    A    
Cu2   N2    S    
C31   C32   S    
C20   C22   A    
C4    C5    A    
C36   H16   S    
Cu1   Cu2   S    
