data_mof_unit_47363.cif
_audit_creation_date              2013-03-05T16:41:36-0500
_audit_creation_method            fapswitch 2.2
_symmetry_space_group_name_H-M    P1
_symmetry_Int_Tables_number       1
_space_group_crystal_system       triclinic
_cell_length_a                    13.923916
_cell_length_b                    16.672306
_cell_length_c                    17.713204
_cell_angle_alpha                 90.548106
_cell_angle_beta                  95.189634
_cell_angle_gamma                 84.773674
_cell_volume                      4078.12560406

loop_
_atom_site_label
_atom_site_type_symbol
_atom_site_description
_atom_site_fract_x
_atom_site_fract_y
_atom_site_fract_z
_atom_type_partial_charge
O1    O     O_R   0.500010 0.432070 0.608760 -0.618047
O2    O     O_R   0.499990 0.567930 0.391240 -0.589162
O3    O     O_R   0.500000 0.567880 0.608730 -0.579041
O4    O     O_R   0.500000 0.432120 0.391270 -0.563057
C1    C     C_R   0.491680 0.500926 0.644159 0.801332
C2    C     C_R   0.499731 0.499602 0.355744 0.794659
O5    O     O_R   0.637850 0.422490 0.500000 -0.569023
O6    O     O_R   0.362150 0.577510 0.500000 -0.576905
O7    O     O_R   0.637840 0.558310 0.499970 -0.577690
O8    O     O_R   0.362160 0.441690 0.500030 -0.591413
C3    C     C_R   0.682956 0.486934 0.501091 0.834803
C4    C     C_R   0.317093 0.513079 0.499538 0.811446
Cu1   Cu    Cu3+1 0.500000 0.419580 0.500020 0.940178
Cu2   Cu    Cu3+1 0.500000 0.580420 0.499980 0.949549
C5    C     C_1   0.214291 0.521131 0.498420 -0.119162
C6    C     C_1   0.785904 0.478947 0.503638 -0.123572
C7    C     C_2   0.023421 0.532619 0.493402 -0.082586
C8    C     C_2   0.976883 0.467519 0.509711 -0.082558
C9    C     C_1   0.872699 0.473111 0.506155 0.014344
C10   C     C_1   0.127562 0.527067 0.496677 0.031568
C11   C     C_R   0.603112 0.473747 0.166181 -0.059807
C12   C     C_R   0.499718 0.575287 0.848553 -0.086730
C13   C     C_R   0.595099 0.474481 0.244840 -0.097894
C14   C     C_R   0.480197 0.576495 0.768756 -0.136423
C15   C     C_R   0.505103 0.498110 0.273179 -0.143948
C16   C     C_R   0.481279 0.502564 0.727735 -0.171195
C17   C     C_R   0.422229 0.521721 0.223052 0.061512
C18   C     C_R   0.481395 0.429533 0.768753 0.065451
C19   C     C_R   0.432111 0.526385 0.144060 0.106564
C20   C     C_R   0.517771 0.427634 0.846089 0.087646
C21   C     C_R   0.522018 0.499992 0.116351 -0.014680
C22   C     C_R   0.522212 0.500952 0.886206 -0.010540
C23   C     C_1   0.530212 0.499599 0.035720 0.023723
C24   C     C_1   0.530732 0.499644 0.967950 0.013473
C25   C     C_R   0.445156 0.173583 0.443319 -0.101879
C26   C     C_R   0.559222 0.826999 0.553574 -0.094718
C27   C     C_R   0.439160 0.259692 0.447808 0.232192
C28   C     C_R   0.563756 0.740518 0.550110 0.214636
N1    N     N_R   0.500030 0.298780 0.500030 -0.181650
N2    N     N_R   0.499970 0.701220 0.499970 -0.185113
C29   C     C_R   0.560651 0.250900 0.552223 0.183982
C30   C     C_R   0.435694 0.749019 0.450194 0.216303
C31   C     C_R   0.550718 0.166105 0.558495 -0.112810
C32   C     C_R   0.439693 0.834556 0.446723 -0.102491
C33   C     C_R   0.496834 0.126458 0.501199 -0.068691
C34   C     C_R   0.499041 0.874242 0.500164 -0.083021
C35   C     C_1   0.497256 0.037237 0.500591 0.119112
C36   C     C_1   0.497929 0.963566 0.500291 0.108912
C37   C     C_2   0.028604 0.388942 0.534938 0.839650
O9    O     O_2   0.991573 0.326558 0.518755 -0.601672
O10   O     O_R   0.117690 0.385820 0.578617 -0.766392
H1    H     H_    0.144097 0.328732 0.592670 0.324585
C38   C     C_2   0.971602 0.611037 0.467932 0.830253
O11   O     O_2   0.007205 0.673675 0.485696 -0.596568
O12   O     O_R   0.884062 0.613675 0.422238 -0.742494
H2    H     H_    0.857339 0.670657 0.407998 0.343642
C39   C     C_2   0.695931 0.444083 0.135669 0.869190
O13   O     O_2   0.697843 0.388168 0.090522 -0.615768
O14   O     O_R   0.780582 0.480396 0.158045 -0.709333
H3    H     H_    0.838765 0.454768 0.133336 0.333785
C40   C     C_2   0.496352 0.651463 0.893403 0.882818
O15   O     O_2   0.426263 0.701287 0.884067 -0.577908
O16   O     O_R   0.573274 0.665507 0.946815 -0.748806
H4    H     H_    0.562547 0.718993 0.973879 0.338547
C41   C     C_2   0.680660 0.448077 0.297601 0.856638
O17   O     O_2   0.685129 0.382854 0.329311 -0.569607
O18   O     O_R   0.756037 0.497786 0.310363 -0.689650
H5    H     H_    0.812558 0.471601 0.344205 0.350542
C42   C     C_2   0.452061 0.654757 0.729406 0.929445
O19   O     O_2   0.500899 0.711583 0.741747 -0.562994
O20   O     O_R   0.368519 0.663434 0.678936 -0.729407
H6    H     H_    0.357435 0.718898 0.655011 0.339527
C43   C     C_3   0.323175 0.539609 0.253023 -0.423134
C44   C     C_3   0.258687 0.470702 0.234030 -0.369020
C45   C     C_3   0.152407 0.497512 0.242442 -0.818513
H7    H     H_    0.142768 0.518864 0.301021 0.246607
H8    H     H_    0.126190 0.546880 0.201962 0.261174
H9    H     H_    0.108091 0.446057 0.230121 0.255355
H10   H     H_    0.265165 0.447803 0.175497 0.226672
H11   H     H_    0.282879 0.419467 0.272660 0.219800
H12   H     H_    0.327980 0.547006 0.315272 0.166807
H13   H     H_    0.288728 0.598212 0.230285 0.209902
C46   C     C_3   0.432947 0.357429 0.733625 -0.383700
C47   C     C_3   0.347485 0.336402 0.776841 -0.381361
C48   C     C_3   0.305513 0.260541 0.744410 -0.778557
H14   H     H_    0.281091 0.268691 0.683312 0.251869
H15   H     H_    0.360917 0.208173 0.751182 0.269506
H16   H     H_    0.242482 0.247839 0.775093 0.248017
H17   H     H_    0.369101 0.326462 0.838026 0.221566
H18   H     H_    0.289891 0.387351 0.771861 0.239966
H19   H     H_    0.399288 0.370158 0.675620 0.239915
H20   H     H_    0.487278 0.304831 0.729899 0.189551
C49   C     C_3   0.349363 0.563660 0.089031 -0.434567
C50   C     C_3   0.361473 0.652756 0.075794 -0.347339
C51   C     C_3   0.278909 0.691428 0.021835 -0.747102
H21   H     H_    0.275672 0.659226 0.966588 0.271873
H22   H     H_    0.208710 0.689644 0.046722 0.240866
H23   H     H_    0.290930 0.755268 0.011909 0.263448
H24   H     H_    0.362520 0.685655 0.130739 0.225641
H25   H     H_    0.431205 0.658745 0.051474 0.246090
H26   H     H_    0.346560 0.530581 0.034252 0.196674
H27   H     H_    0.277170 0.559133 0.109006 0.213303
C52   C     C_3   0.554077 0.348370 0.885890 -0.425748
C53   C     C_3   0.664904 0.341018 0.899724 -0.328798
C54   C     C_3   0.702883 0.261277 0.937911 -0.737106
H28   H     H_    0.671563 0.255832 0.992919 0.284006
H29   H     H_    0.683803 0.209959 0.900781 0.241635
H30   H     H_    0.782935 0.258485 0.948563 0.246245
H31   H     H_    0.696802 0.344472 0.844623 0.209339
H32   H     H_    0.689138 0.391259 0.936129 0.259808
H33   H     H_    0.520898 0.344391 0.940334 0.208606
H34   H     H_    0.534111 0.295161 0.852297 0.208038
C55   C     C_2   0.394957 0.132711 0.378414 0.832383
O21   O     O_2   0.328555 0.092198 0.388734 -0.543163
O22   O     O_R   0.423804 0.141088 0.305580 -0.750598
H35   H     H_    0.384174 0.110600 0.266037 0.340542
C56   C     C_2   0.617628 0.869154 0.613451 0.842735
O23   O     O_2   0.677747 0.913020 0.595848 -0.571313
O24   O     O_R   0.601474 0.860538 0.689555 -0.715446
H36   H     H_    0.645191 0.892454 0.724816 0.342904
C57   C     C_3   0.357252 0.304741 0.397917 -0.386584
C58   C     C_3   0.258956 0.294461 0.428364 -0.369542
C59   C     C_3   0.175229 0.336441 0.377974 -0.798127
H37   H     H_    0.179534 0.402425 0.380052 0.245482
H38   H     H_    0.177001 0.314827 0.318573 0.257915
H39   H     H_    0.105427 0.323105 0.398398 0.277214
H40   H     H_    0.246818 0.229849 0.431682 0.252242
H41   H     H_    0.258033 0.319606 0.486579 0.252666
H42   H     H_    0.364414 0.368708 0.392125 0.242383
H43   H     H_    0.357128 0.282443 0.338714 0.198870
C60   C     C_3   0.643701 0.694762 0.601663 -0.371122
C61   C     C_3   0.744348 0.700481 0.573948 -0.379395
C62   C     C_3   0.823251 0.657253 0.628352 -0.778962
H44   H     H_    0.822527 0.684722 0.685699 0.263464
H45   H     H_    0.812010 0.592392 0.632252 0.234946
H46   H     H_    0.895266 0.662705 0.607807 0.271297
H47   H     H_    0.747153 0.673184 0.516750 0.263059
H48   H     H_    0.760052 0.764179 0.569476 0.247418
H49   H     H_    0.643333 0.718462 0.660192 0.237772
H50   H     H_    0.633932 0.631465 0.608789 0.241037
C63   C     C_3   0.641175 0.284681 0.603462 -0.382004
C64   C     C_3   0.741212 0.261278 0.574999 -0.292930
C65   C     C_3   0.822150 0.281615 0.634107 -0.768687
H51   H     H_    0.819593 0.347802 0.643014 0.230806
H52   H     H_    0.815098 0.251626 0.688814 0.260580
H53   H     H_    0.893332 0.259845 0.614502 0.286362
H54   H     H_    0.751249 0.196178 0.561482 0.260820
H55   H     H_    0.748117 0.293917 0.521707 0.253079
H56   H     H_    0.634272 0.349844 0.609138 0.240035
H57   H     H_    0.638859 0.263350 0.662412 0.174874
C66   C     C_3   0.356879 0.714228 0.397844 -0.398721
C67   C     C_3   0.255018 0.736375 0.423274 -0.357086
C68   C     C_3   0.177712 0.705499 0.366523 -0.780443
H58   H     H_    0.185428 0.727419 0.308545 0.249018
H59   H     H_    0.184115 0.638728 0.366503 0.236025
H60   H     H_    0.104757 0.727831 0.382279 0.291393
H61   H     H_    0.249340 0.709925 0.479845 0.258861
H62   H     H_    0.239537 0.802360 0.428498 0.252580
H63   H     H_    0.360524 0.735048 0.338940 0.202873
H64   H     H_    0.365848 0.649481 0.393029 0.243793
C69   C     C_2   0.590894 0.118436 0.626836 0.849903
O25   O     O_2   0.677525 0.112510 0.646856 -0.579390
O26   O     O_R   0.528104 0.078087 0.667106 -0.750462
H65   H     H_    0.562881 0.046976 0.711976 0.344739
C70   C     C_2   0.381245 0.883442 0.386541 0.845617
O27   O     O_2   0.314509 0.931152 0.403120 -0.537493
O28   O     O_R   0.403329 0.875158 0.311306 -0.760194
H66   H     H_    0.358586 0.911800 0.275616 0.343035

loop_
_geom_bond_atom_site_label_1
_geom_bond_atom_site_label_2
_geom_bond_distance
_ccdc_geom_bond_type
C65   H53   1.108601 S    
C20   C22   1.411447 A    
O12   H2    1.013811 S    
C30   C32   1.434360 A    
C70   O27   1.221742 D    
C1    C16   1.500197 S    
C17   C19   1.421841 A    
C43   C44   1.537923 S    
C51   H21   1.111005 S    
C57   H43   1.109174 S    
C45   H7    1.109431 S    
O5    Cu1   1.924469 S    
C69   O25   1.221518 D    
C51   H23   1.110469 S    
C63   H56   1.086403 S    
C59   H37   1.107259 S    
N1    C29   1.398076 A    
C48   H14   1.110483 S    
O5    C3    1.292116 A    
C46   H20   1.110271 S    
C54   H29   1.110929 S    
C49   C50   1.532772 S    
C12   C22   1.409324 A    
O1    C1    1.303694 A    
C25   C27   1.432321 A    
C14   C16   1.424408 A    
C42   O19   1.222429 D    
C56   O24   1.397458 S    
C53   H31   1.112359 S    
C59   H38   1.110576 S    
C2    C15   1.470998 S    
C61   H48   1.108589 S    
O22   H35   1.013818 S    
O4    Cu1   1.939611 S    
C7    C10   1.440492 S    
C52   H33   1.111424 S    
C8    C9    1.440828 S    
C58   H40   1.108422 S    
C42   O20   1.398900 S    
C60   H50   1.086235 S    
O26   H65   1.013770 S    
C61   C62   1.527286 S    
C37   O10   1.398355 S    
C20   C52   1.526646 S    
C14   C42   1.488853 S    
C62   H46   1.108790 S    
C66   C67   1.538784 S    
C21   C23   1.442952 S    
C26   C34   1.402925 A    
C68   H59   1.108664 S    
C33   C35   1.486930 S    
O14   H3    1.013870 S    
C70   O28   1.397315 S    
C28   N2    1.399665 A    
C44   H11   1.108338 S    
Cu1   Cu2   2.681581 S    
C18   C46   1.531299 S    
C29   C31   1.439277 A    
O2    C2    1.296038 A    
C47   H18   1.112183 S    
C43   H12   1.105007 S    
C53   C54   1.526140 S    
C69   O26   1.398175 S    
C32   C34   1.401016 A    
C63   H57   1.110471 S    
C7    C8    1.359906 D    
C34   C36   1.487895 S    
C38   O12   1.398282 S    
C5    C10   1.200243 T    
C54   H30   1.110336 S    
C67   H62   1.106233 S    
C44   C45   1.526433 S    
C48   H15   1.111022 S    
O10   H1    1.013543 S    
C35   C36   1.227409 T    
C64   H55   1.110048 S    
C47   C48   1.526842 S    
O4    C2    1.293892 A    
C49   H26   1.110863 S    
O28   H66   1.013801 S    
C59   H39   1.108806 S    
C41   O18   1.396947 S    
C61   H47   1.109160 S    
C38   O11   1.222777 D    
O18   H5    1.013093 S    
C52   H34   1.106002 S    
C22   C24   1.442282 S    
O7    Cu2   1.921109 S    
C11   C39   1.487216 S    
C26   C56   1.487958 S    
C11   C21   1.408045 A    
C3    C6    1.424137 S    
C46   C47   1.539741 S    
C4    C5    1.423820 S    
C50   H25   1.110147 S    
O6    C4    1.292004 A    
C40   O16   1.398295 S    
C23   C24   1.201100 T    
C50   C51   1.526047 S    
C68   H60   1.108513 S    
C30   C66   1.523884 S    
C45   H8    1.110870 S    
C57   C58   1.539981 S    
O3    Cu2   1.939610 S    
O8    C4    1.293678 A    
C27   C57   1.523189 S    
C31   C69   1.491598 S    
C41   O17   1.222644 D    
C44   H10   1.109920 S    
O7    C3    1.293496 A    
C62   H44   1.110777 S    
C12   C14   1.414990 A    
C39   O14   1.397784 S    
O1    Cu1   1.935363 S    
C47   H17   1.108148 S    
C60   C61   1.537441 S    
C25   C33   1.401837 A    
C7    C38   1.487957 S    
C43   H13   1.110892 S    
C26   C28   1.438432 A    
C53   H32   1.110472 S    
C55   O21   1.221150 D    
C54   H28   1.110677 S    
C48   H16   1.110325 S    
C65   H52   1.110896 S    
C67   H61   1.110837 S    
O6    Cu2   1.924470 S    
C64   H54   1.108293 S    
C57   H42   1.086807 S    
O3    C1    1.305159 A    
O8    Cu1   1.921109 S    
C49   H27   1.104525 S    
O24   H36   1.013737 S    
C51   H22   1.110893 S    
C15   C17   1.418982 A    
C46   H19   1.104220 S    
C29   C63   1.522899 S    
C16   C18   1.423666 A    
C28   C60   1.526331 S    
C13   C41   1.482373 S    
C11   C13   1.407643 A    
C58   C59   1.523388 S    
C18   C20   1.416489 A    
C27   N1    1.394977 A    
C17   C43   1.525614 S    
C56   O23   1.223082 D    
C66   H64   1.078762 S    
C12   C40   1.490943 S    
C19   C49   1.530300 S    
C39   O13   1.222430 D    
C50   H24   1.112191 S    
C6    C9    1.200376 T    
N2    C30   1.397930 A    
C25   C55   1.483588 S    
C32   C70   1.483847 S    
C13   C15   1.413322 A    
C58   H41   1.110132 S    
C40   O15   1.222911 D    
O2    Cu2   1.935367 S    
C45   H9    1.110324 S    
Cu1   N1    2.013978 S    
C60   H49   1.106214 S    
Cu2   N2    2.013980 S    
O16   H4    1.013812 S    
O20   H6    1.013987 S    
C67   C68   1.526258 S    
C19   C21   1.417147 A    
C37   O9    1.222731 D    
C52   C53   1.534295 S    
C62   H45   1.110342 S    
C64   C65   1.526628 S    
C68   H58   1.110886 S    
C63   C64   1.539783 S    
C31   C33   1.403429 A    
C65   H51   1.111030 S    
C8    C37   1.488509 S    
C66   H63   1.109696 S    
C55   O22   1.397386 S    
