data_mof_unit_29469.cif
_audit_creation_date              2013-03-05T16:02:23-0500
_audit_creation_method            fapswitch 2.2
_symmetry_space_group_name_H-M    P1
_symmetry_Int_Tables_number       1
_space_group_crystal_system       triclinic
_cell_length_a                    14.947529
_cell_length_b                    14.149675
_cell_length_c                    10.685989
_cell_angle_alpha                 89.590729
_cell_angle_beta                  88.209712
_cell_angle_gamma                 90.083177
_cell_volume                      2258.95125125

loop_
_atom_site_label
_atom_site_type_symbol
_atom_site_description
_atom_site_fract_x
_atom_site_fract_y
_atom_site_fract_z
_atom_type_partial_charge
O1    O     O_R   0.367860 0.580280 0.500020 -0.625781
O2    O     O_R   0.367860 0.419720 0.500020 -0.619031
C1    C     C_R   0.327151 0.499893 0.496205 0.878040
O3    O     O_R   0.500000 0.580270 0.314790 -0.621332
O4    O     O_R   0.500000 0.419730 0.314790 -0.629441
C2    C     C_R   0.501501 0.500252 0.257787 0.856064
Zn1   Zn    Zn3+2 0.500020 0.607200 0.499990 0.929525
Zn2   Zn    Zn3+2 0.500020 0.392800 0.499990 0.928017
O5    O     O_R   0.632160 0.580270 0.499960 -0.626124
O6    O     O_R   0.632160 0.419730 0.499960 -0.622802
O7    O     O_R   0.500030 0.580270 0.685200 -0.635461
O8    O     O_R   0.500030 0.419730 0.685200 -0.633519
C3    C     C_R   0.672918 0.499985 0.500016 0.885450
C4    C     C_R   0.492279 0.499621 0.741935 0.840221
C5    C     C_3   0.427554 0.571317 0.079015 -0.434140
C6    C     C_3   0.472628 0.400248 0.075918 -0.437036
H1    H     H_    0.435843 0.642650 0.120034 0.182224
H2    H     H_    0.522933 0.345811 0.099140 0.171736
H3    H     H_    0.361366 0.545495 0.115862 0.181020
H4    H     H_    0.410948 0.376776 0.128050 0.193937
C7    C     C_3   0.429699 0.580543 0.935183 0.057027
C8    C     C_3   0.458966 0.400649 0.934415 0.043249
H5    H     H_    0.463488 0.648581 0.909781 0.166845
H6    H     H_    0.503306 0.344882 0.893362 0.169781
H7    H     H_    0.615467 0.581265 0.867198 0.181133
H8    H     H_    0.630736 0.457769 0.881054 0.172037
C9    C     C_3   0.595690 0.527635 0.060782 0.404992
C10   C     C_3   0.500930 0.500564 0.121148 0.083983
C11   C     C_3   0.489578 0.499099 0.879040 0.087889
C12   C     C_3   0.588365 0.517184 0.916548 -0.507102
C13   C     C_R   0.814138 0.434351 0.423990 -0.273455
C14   C     C_R   0.768269 0.499460 0.499048 -0.061898
C15   C     C_R   0.813039 0.562977 0.573994 -0.230442
C16   C     C_R   0.905662 0.561242 0.575134 0.042023
C17   C     C_R   0.953038 0.497298 0.496855 0.069992
C18   C     C_R   0.906704 0.433955 0.420661 0.153624
C19   C     C_R   0.951268 0.622247 0.653130 -0.323465
C20   C     C_R   0.044395 0.619856 0.655324 0.543397
C21   C     C_R   0.091991 0.559092 0.573376 -0.001300
C22   C     C_R   0.046437 0.497312 0.493901 -0.058993
C23   C     C_R   0.093926 0.436334 0.410559 0.137064
C24   C     C_R   0.046044 0.373136 0.336205 -0.218468
C25   C     C_R   0.953278 0.371686 0.341994 -0.234741
C26   C     C_R   0.184412 0.557972 0.570985 -0.295912
C27   C     C_R   0.231600 0.499550 0.488404 -0.080853
C28   C     C_R   0.187841 0.440805 0.403283 0.148613
H9    H     H_    0.777651 0.385554 0.366417 0.143545
H10   H     H_    0.775578 0.612030 0.633033 0.148173
H11   H     H_    0.914833 0.671383 0.713070 0.165908
H12   H     H_    0.220441 0.601940 0.634866 0.197110
H13   H     H_    0.079379 0.323653 0.273832 0.161702
H14   H     H_    0.917903 0.322481 0.283860 0.149094
C29   C     C_R   0.569194 0.797613 0.440304 -0.095212
C30   C     C_R   0.570255 0.203116 0.443079 -0.091239
N1    N     N_R   0.500070 0.750030 0.500050 -0.108612
N2    N     N_R   0.500070 0.249970 0.500050 -0.108500
C31   C     C_R   0.430428 0.800145 0.554256 0.269797
C32   C     C_R   0.429288 0.199209 0.551251 0.269868
C33   C     C_R   0.426218 0.899672 0.541273 0.056020
C34   C     C_R   0.425487 0.099702 0.539155 0.058524
C35   C     C_R   0.499557 0.949660 0.487132 0.001209
C36   C     C_R   0.499502 0.050465 0.486896 -0.000228
C37   C     C_R   0.572086 0.898804 0.434246 -0.048734
C38   C     C_R   0.573641 0.101980 0.438481 -0.051090
C39   C     C_R   0.350110 0.950409 0.582219 -0.209858
C40   C     C_R   0.349514 0.048131 0.580293 -0.214210
C41   C     C_R   0.648340 0.051343 0.386827 0.211063
C42   C     C_R   0.644519 0.950188 0.376352 0.206250
H15   H     H_    0.623159 0.755852 0.400335 0.160893
H16   H     H_    0.623490 0.245443 0.401020 0.159272
H17   H     H_    0.289628 0.915424 0.616203 0.167893
H18   H     H_    0.288466 0.082391 0.612418 0.159219
O9    O     O_3   0.088973 0.681686 0.731455 -0.608443
C43   C     C_3   0.089764 0.642576 0.853147 -0.352143
H19   H     H_    0.129431 0.689601 0.912906 0.201507
H20   H     H_    0.122275 0.571767 0.853411 0.162159
H21   H     H_    0.020927 0.637893 0.895528 0.169330
C44   C     C_3   0.239635 0.387654 0.301580 -0.936088
H22   H     H_    0.310057 0.410748 0.290609 0.247307
H23   H     H_    0.238022 0.310652 0.322237 0.248177
H24   H     H_    0.210026 0.401548 0.209210 0.223171
C45   C     C_3   0.360353 0.751472 0.635139 -0.863386
H25   H     H_    0.348650 0.790715 0.723777 0.207521
H26   H     H_    0.296938 0.745945 0.584406 0.244919
H27   H     H_    0.382498 0.682262 0.665166 0.291240
C46   C     C_3   0.357854 0.247667 0.628319 -0.872826
H28   H     H_    0.341645 0.207006 0.715271 0.201834
H29   H     H_    0.382523 0.314814 0.661247 0.294600
H30   H     H_    0.296600 0.257438 0.573517 0.240949
C47   C     C_3   0.733027 0.105313 0.349905 -0.942524
H31   H     H_    0.793177 0.059875 0.343157 0.255887
H32   H     H_    0.724143 0.142874 0.259590 0.236182
H33   H     H_    0.748909 0.157279 0.423383 0.236219
C48   C     C_3   0.714786 0.896961 0.299561 -0.931285
H34   H     H_    0.751982 0.942648 0.231308 0.253219
H35   H     H_    0.762274 0.861618 0.362499 0.245502
H36   H     H_    0.682465 0.843301 0.240510 0.232673
C49   C     C_3   0.333792 0.589151 0.885682 -0.938058
H37   H     H_    0.311886 0.664018 0.890538 0.245439
H38   H     H_    0.330095 0.565554 0.787621 0.229690
H39   H     H_    0.283662 0.547899 0.941539 0.248787
C50   C     C_3   0.361642 0.372011 0.907010 -0.900350
H40   H     H_    0.339922 0.400621 0.816516 0.241358
H41   H     H_    0.356086 0.293805 0.906316 0.236099
H42   H     H_    0.313004 0.397384 0.979644 0.246364
C51   C     C_3   0.624197 0.630560 0.091389 -0.882194
H43   H     H_    0.689937 0.647385 0.044932 0.234018
H44   H     H_    0.576195 0.683757 0.057538 0.219933
H45   H     H_    0.632305 0.640228 0.193326 0.251529
C52   C     C_3   0.671524 0.462375 0.107530 -0.906925
H46   H     H_    0.662501 0.387766 0.079839 0.219542
H47   H     H_    0.737342 0.485235 0.066393 0.245231
H48   H     H_    0.675878 0.465288 0.210916 0.229392

loop_
_geom_bond_atom_site_label_1
_geom_bond_atom_site_label_2
_geom_bond_distance
_ccdc_geom_bond_type
C6    C10   1.564674 S    
C8    C11   1.571470 S    
C16   C19   1.395907 A    
O9    C43   1.410009 S    
C3    C14   1.425005 S    
C17   C18   1.410595 A    
Zn1   N1    2.021002 S    
C29   H15   1.079689 S    
Zn2   N2    2.020996 S    
C5    C10   1.560611 S    
C27   C28   1.411568 A    
C5    H3    1.113508 S    
C19   C20   1.393412 A    
C43   H20   1.114210 S    
C20   C21   1.409203 A    
O7    C4    1.291726 A    
C44   H23   1.110222 S    
C25   H14   1.084387 S    
C31   C33   1.415788 A    
C51   H43   1.111705 S    
C31   C45   1.500438 S    
C32   C34   1.416043 A    
C49   H37   1.110348 S    
C50   H42   1.108767 S    
C34   C36   1.410819 A    
C16   C17   1.412625 A    
C23   C24   1.409617 A    
C35   C37   1.407949 A    
O5    C3    1.289838 A    
C52   H46   1.107596 S    
C36   C38   1.408381 A    
O1    Zn1   2.011302 S    
C2    C10   1.460385 S    
C9    C52   1.555304 S    
C40   H18   1.081482 S    
C43   H21   1.112864 S    
C23   C28   1.404833 A    
O6    C3    1.287922 A    
C35   C36   1.426344 A    
C6    H4    1.111328 S    
C24   H13   1.081511 S    
C48   H35   1.110099 S    
C34   C40   1.406120 A    
C13   H9    1.085647 S    
C9    C12   1.556649 S    
C50   H40   1.103995 S    
O3    Zn1   2.018077 S    
C32   C46   1.497908 S    
C29   N1    1.370816 A    
C30   N2    1.370634 A    
C33   C35   1.410339 A    
C43   H19   1.109367 S    
C41   C42   1.437662 A    
C38   C41   1.426262 A    
O3    C2    1.289400 A    
C21   C22   1.412127 A    
C28   C44   1.518859 S    
C46   H28   1.109487 S    
C48   H36   1.110365 S    
C39   H17   1.081609 S    
C7    C11   1.571121 S    
C1    C27   1.433287 S    
C41   C47   1.517537 S    
C42   C48   1.516916 S    
O1    C1    1.290705 A    
Zn1   O7    2.012831 S    
C11   C12   1.563286 S    
C19   H11   1.084388 S    
C47   H32   1.110145 S    
C13   C14   1.392900 A    
C30   H16   1.079967 S    
Zn2   O8    2.018176 S    
C15   C16   1.385168 A    
C50   H41   1.109672 S    
C52   H48   1.109783 S    
Zn2   O6    2.011032 S    
C22   C23   1.419409 A    
O8    C4    1.290214 A    
H8    C12   1.114829 S    
C45   H26   1.109532 S    
C7    H5    1.114394 S    
C8    H6    1.114755 S    
C24   C25   1.386188 A    
C4    C11   1.464366 S    
C49   H39   1.106465 S    
C26   C27   1.390256 A    
C47   H33   1.110372 S    
C26   H12   1.082184 S    
H7    C12   1.114966 S    
C5    H1    1.111568 S    
C37   C42   1.425843 A    
C6    C8    1.532111 S    
C44   H22   1.104218 S    
O2    Zn2   2.012388 S    
C46   H30   1.110442 S    
O4    Zn2   2.012731 S    
C21   C26   1.381021 A    
C45   H27   1.083816 S    
C49   H38   1.105051 S    
C8    C50   1.546894 S    
C14   C15   1.392477 A    
N1    C31   1.375618 A    
C17   C22   1.395456 A    
C33   C39   1.405979 A    
C7    C49   1.548138 S    
C29   C37   1.433344 A    
C44   H24   1.110682 S    
C47   H31   1.106890 S    
O4    C2    1.287966 A    
C51   H44   1.107318 S    
N2    C32   1.375009 A    
O2    C1    1.289085 A    
C46   H29   1.083682 S    
C48   H34   1.107183 S    
C52   H47   1.111658 S    
C9    C51   1.556662 S    
Zn1   O5    2.012120 S    
C5    C7    1.540916 S    
C30   C38   1.433143 A    
C6    H2    1.109460 S    
C39   C40   1.382792 A    
C9    C10   1.583328 S    
C15   H10   1.085654 S    
C13   C18   1.382998 A    
C18   C25   1.394071 A    
C45   H25   1.110642 S    
C20   O9    1.383314 S    
C51   H45   1.109195 S    
