data_mof_unit_62655.cif
_audit_creation_date              2012-12-10T19:13:37-0500
_audit_creation_method            fapswitch 2.2
_symmetry_space_group_name_H-M    P1
_symmetry_Int_Tables_number       1
_space_group_crystal_system       triclinic
_cell_length_a                    10.941603
_cell_length_b                    16.006493
_cell_length_c                    14.751992
_cell_angle_alpha                 90.070396
_cell_angle_beta                  101.246019
_cell_angle_gamma                 89.956049
_cell_volume                      2534.00437368

loop_
_atom_site_label
_atom_site_type_symbol
_atom_type_description
_atom_site_fract_x
_atom_site_fract_y
_atom_site_fract_z
_atom_type_partial_charge
C1    C     C_R   0.500110 0.340858 0.499931 0.822575
C2    C     C_R   0.499815 0.659123 0.500062 0.841252
C3    C     C_R   0.612394 0.498198 0.968329 -0.155453
C4    C     C_R   0.387625 0.502499 0.031674 -0.155522
C5    C     C_R   0.499975 0.500316 0.902865 0.042733
C6    C     C_R   0.500041 0.500295 0.097138 0.043061
C7    C     C_R   0.387589 0.502529 0.935827 -0.137318
C8    C     C_R   0.612431 0.498209 0.064176 -0.137026
C9    C     C_1   0.499945 0.500155 0.802737 0.150251
C10   C     C_1   0.500060 0.500119 0.197264 0.150345
C11   C     C_R   0.262087 0.505063 0.464304 0.873119
C12   C     C_R   0.737914 0.505107 0.535693 0.872886
C13   C     C_2   0.126978 0.514259 0.447304 -0.371422
C14   C     C_2   0.873008 0.514600 0.552650 -0.371615
C15   C     C_2   0.067766 0.550881 0.508965 0.156428
C16   C     C_2   0.932055 0.550714 0.490675 0.157422
C17   C     C_R   0.400117 0.957789 0.528363 0.269144
C18   C     C_R   0.599526 0.042027 0.471789 0.273424
C19   C     C_R   0.498084 0.912582 0.501728 0.016981
C20   C     C_R   0.501471 0.087270 0.498321 0.020504
C21   C     C_R   0.596193 0.954627 0.473397 -0.211800
C22   C     C_R   0.403299 0.045194 0.526605 -0.219098
C23   C     C_1   0.498624 0.823044 0.500848 -0.036195
C24   C     C_1   0.500959 0.176849 0.499174 -0.047347
C25   C     C_1   0.500502 0.251830 0.499720 -0.170942
C26   C     C_1   0.499223 0.748093 0.500272 -0.137750
Cu1   Cu    Cu3+1 0.500030 0.500000 0.589230 1.008365
Cu2   Cu    Cu3+1 0.499970 0.500000 0.410770 1.008318
H1    H     H_    0.926366 0.490014 0.617025 0.154639
H2    H     H_    0.073768 0.488951 0.383204 0.154191
H3    H     H_    0.329442 0.080525 0.548345 0.163247
H4    H     H_    0.669940 0.919251 0.451565 0.171777
H5    H     H_    0.700573 0.496546 0.112659 0.147052
H6    H     H_    0.299449 0.504249 0.887345 0.148075
H7    H     H_    0.700519 0.496502 0.945332 0.136078
H8    H     H_    0.299499 0.504175 0.054671 0.136401
N1    N     N_1   0.500040 0.499980 0.276720 -0.140507
N2    N     N_1   0.499960 0.500020 0.723280 -0.140419
O1    O     O_R   0.500060 0.380310 0.575330 -0.571206
O2    O     O_R   0.499940 0.619690 0.424670 -0.559901
O3    O     O_R   0.500000 0.380310 0.424640 -0.574015
O4    O     O_R   0.500000 0.619690 0.575360 -0.562812
O5    O     O_R   0.320710 0.500010 0.547660 -0.543903
O6    O     O_R   0.679290 0.499990 0.452340 -0.544169
O7    O     O_R   0.320650 0.500010 0.396960 -0.578621
O8    O     O_R   0.679350 0.499990 0.603040 -0.578449
I1    I     I_    0.843487 0.614186 0.367595 -0.356480
I2    I     I_    0.156225 0.615990 0.631047 -0.364213
N3    N     N_2   0.300016 0.916795 0.559286 -0.424320
H9    H     H_    0.318907 0.857268 0.584823 0.272741
C27   C     C_3   0.180584 0.922975 0.497028 -0.647707
H10   H     H_    0.108168 0.891915 0.528402 0.239104
H11   H     H_    0.184639 0.891641 0.430399 0.233317
H12   H     H_    0.153233 0.989387 0.484143 0.224087
N4    N     N_2   0.699878 0.082968 0.441126 -0.424510
H13   H     H_    0.681706 0.142852 0.416518 0.260796
C28   C     C_3   0.819628 0.075425 0.502760 -0.675614
H14   H     H_    0.892090 0.106662 0.471599 0.226001
H15   H     H_    0.846260 0.008749 0.514256 0.234938
H16   H     H_    0.816558 0.105769 0.570088 0.229080

loop_
_geom_bond_atom_site_label_1
_geom_bond_atom_site_label_2
_ccdc_geom_bond_type
C6    C10   S    
C1    O3    A    
C19   C23   S    
N4    H13   S    
C4    H8    S    
C11   O5    A    
C19   C21   A    
C2    O2    A    
C18   C21   A    
C27   H11   S    
Cu2   O3    S    
C17   C22   A    
C3    H7    S    
C27   H12   S    
N4    C28   S    
C2    C26   S    
C24   C25   T    
C1    C25   S    
C11   C13   S    
Cu1   O4    S    
C28   H14   S    
C18   N4    S    
C2    O4    A    
C4    C7    A    
Cu2   N1    S    
Cu1   O8    S    
C12   O8    A    
C9    N2    T    
C17   C19   A    
C20   C22   A    
C3    C8    A    
C18   C20   A    
C8    H5    S    
C13   C15   D    
C20   C24   S    
C21   H4    S    
C14   C16   D    
Cu2   O7    S    
C11   O7    A    
C28   H15   S    
C22   H3    S    
C1    O1    A    
C14   H1    S    
Cu1   O1    S    
C15   C16   S    
Cu1   O5    S    
C13   H2    S    
C7    H6    S    
C16   I1    S    
C4    C6    A    
N3    H9    S    
C10   N1    T    
C23   C26   T    
C17   N3    S    
Cu1   Cu2   S    
C5    C7    A    
Cu2   O2    S    
C12   O6    A    
C28   H16   S    
C6    C8    A    
C5    C9    S    
Cu1   N2    S    
C3    C5    A    
C15   I2    S    
Cu2   O6    S    
C27   H10   S    
C12   C14   S    
N3    C27   S    
