data_mof_unit_11410.cif
_audit_creation_date              2013-03-05T16:01:04-0500
_audit_creation_method            fapswitch 2.2
_symmetry_space_group_name_H-M    P1
_symmetry_Int_Tables_number       1
_space_group_crystal_system       triclinic
_cell_length_a                    8.23011
_cell_length_b                    12.694352
_cell_length_c                    18.728049
_cell_angle_alpha                 98.907964
_cell_angle_beta                  90.655417
_cell_angle_gamma                 98.735831
_cell_volume                      1909.38026767

loop_
_atom_site_label
_atom_site_type_symbol
_atom_site_description
_atom_site_fract_x
_atom_site_fract_y
_atom_site_fract_z
_atom_type_partial_charge
P1    P     P_3+3 0.041040 0.394770 0.336330 0.489978
O1    O     O_2   0.873090 0.425890 0.325140 -0.321634
O2    O     O_3   0.122420 0.434370 0.414380 -0.404090
O3    O     O_3   0.659500 0.627100 0.368810 -0.378327
O4    O     O_2   0.780413 0.557648 0.245509 -0.338757
O5    O     O_3   0.008079 0.254182 0.320195 -0.541521
O6    O     O_3   0.702050 0.754001 0.265190 -0.472030
H1    H     H_    0.666116 0.882500 0.341616 0.104700
C1    C     C_3   0.503908 0.869213 0.248353 -0.884567
H2    H     H_    0.419191 0.919676 0.277405 0.224564
H3    H     H_    0.590273 0.920349 0.218546 0.318238
P2    P     P_3+3 0.672880 0.754030 0.556100 0.513421
P3    P     P_3+3 0.128429 0.825267 0.407140 0.474002
O7    O     O_2   0.848200 0.768190 0.534530 -0.345682
O8    O     O_3   0.081160 0.685950 0.404810 -0.395709
O9    O     O_2   0.991386 0.878153 0.447522 -0.375774
O10   O     O_3   0.692778 0.787933 0.650172 -0.521096
O11   O     O_3   0.110775 0.855138 0.319413 -0.530782
C2    C     C_3   0.109979 0.760351 0.269542 0.446113
H4    H     H_    0.006803 0.698439 0.278894 0.178989
H5    H     H_    0.226133 0.727356 0.274275 -0.007639
C3    C     C_3   0.087646 0.784407 0.193213 -0.784044
H6    H     H_    0.964627 0.807283 0.186219 0.333379
H7    H     H_    0.180906 0.852595 0.182879 0.239471
C4    C     C_3   0.292528 0.808295 0.711679 0.874884
H8    H     H_    0.392906 0.764205 0.723753 -0.005778
C5    C     C_3   0.209835 0.847564 0.781434 -1.158740
H9    H     H_    0.304909 0.885174 0.824111 0.247545
H10   H     H_    0.130950 0.908189 0.772200 0.285416
H11   H     H_    0.131094 0.780030 0.800943 0.244283
Ba1   Ba    Ba6+2 0.852780 0.548340 0.465070 1.626106
C6    C     C_3   0.951041 0.213613 0.382049 0.277390
H12   H     H_    0.828342 0.234897 0.392590 0.110828
H13   H     H_    0.033808 0.246614 0.430162 0.080556
C7    C     C_3   0.940873 0.091021 0.369151 -0.060158
H14   H     H_    0.844861 0.053831 0.402435 0.089073
H15   H     H_    0.060014 0.069490 0.385246 0.140881
C8    C     C_3   0.729500 0.701269 0.681504 0.453911
H16   H     H_    0.844858 0.677155 0.660026 0.102856
H17   H     H_    0.628041 0.631901 0.671066 0.116414
C9    C     C_3   0.751742 0.738409 0.762789 -1.038654
H18   H     H_    0.853398 0.807301 0.774352 0.280686
H19   H     H_    0.779443 0.672266 0.790805 0.221887
H20   H     H_    0.638151 0.765726 0.784789 0.253365
P4    P     P_3+3 0.148670 0.605320 0.663680 0.472826
O12   O     O_2   0.316610 0.574140 0.674900 -0.396552
O13   O     O_3   0.067290 0.565720 0.585630 -0.350005
O14   O     O_3   0.530210 0.372990 0.631200 -0.348159
O15   O     O_3   0.174911 0.745235 0.661504 -0.566893
P5    P     P_3+3 0.065579 0.175380 0.598063 0.525936
O16   O     O_3   0.611340 0.366290 0.463630 -0.361681
O17   O     O_3   0.108550 0.314140 0.595200 -0.363307
O18   O     O_2   0.193656 0.121695 0.551791 -0.332786
O19   O     O_3   0.115154 0.157688 0.685983 -0.429088
Ba2   Ba    Ba6+2 0.337060 0.451750 0.534940 1.607953
P6    P     P_3+3 0.642443 0.619597 0.276432 0.530510
C10   C     C_3   0.593491 0.818028 0.302075 0.503799
H21   H     H_    0.499286 0.774262 0.333512 -0.030966
H22   H     H_    0.434125 0.804900 0.207963 0.236810
O20   O     O_3   0.578370 0.633800 0.536380 -0.405264
C11   C     C_3   0.415677 0.224994 0.309993 0.747296
H23   H     H_    0.334917 0.274849 0.342552 0.066420
C12   C     C_3   0.311075 0.132514 0.260694 -0.890765
H24   H     H_    0.248806 0.073860 0.293381 0.259160
H25   H     H_    0.218155 0.163685 0.229654 0.267539
H26   H     H_    0.389407 0.089513 0.221983 0.265764
P7    P     P_3+3 0.523960 0.230110 0.443587 0.432577
O21   O     O_2   0.341510 0.231850 0.465510 -0.404645
O22   O     O_3   0.525822 0.181605 0.350621 -0.585167
H27   H     H_    0.098769 0.711863 0.153165 0.217726
C13   C     C_3   0.990091 0.189162 0.730869 0.425245
H28   H     H_    0.963476 0.270336 0.723564 0.051938
H29   H     H_    0.877275 0.128095 0.719074 0.037756
C14   C     C_3   0.044023 0.195161 0.809555 -0.910249
H30   H     H_    0.154495 0.257583 0.823322 0.281366
H31   H     H_    0.943705 0.217124 0.845346 0.208877
H32   H     H_    0.073216 0.115770 0.819061 0.255310
P8    P     P_3+3 0.545657 0.385888 0.725532 0.468602
C15   C     C_3   0.560532 0.194677 0.754308 0.452333
H33   H     H_    0.685968 0.235663 0.772027 -0.030723
O23   O     O_2   0.431766 0.466650 0.754648 -0.374145
O24   O     O_3   0.447643 0.266478 0.751715 -0.479156
H34   H     H_    0.565243 0.146090 0.699941 0.138480
H35   H     H_    0.591752 0.063902 0.812773 0.238310
C16   C     C_3   0.504380 0.121680 0.809413 -0.857273
H36   H     H_    0.379545 0.076755 0.793764 0.287054
H37   H     H_    0.500014 0.170654 0.863663 0.217717
C17   C     C_R   0.999869 0.441218 0.046550 0.064462
C18   C     C_R   0.901845 0.386329 0.094405 0.141371
C19   C     C_R   0.741479 0.335983 0.071771 -0.116337
C20   C     C_R   0.676509 0.343601 0.003680 -0.202582
C21   C     C_R   0.772834 0.397817 0.955304 0.140126
C22   C     C_R   0.935916 0.445085 0.976228 0.039507
C23   C     C_R   0.709521 0.403407 0.886047 -0.270482
C24   C     C_R   0.810263 0.448955 0.834557 -0.015566
C25   C     C_R   0.973035 0.498578 0.856027 0.023787
C26   C     C_R   0.034441 0.496920 0.927162 -0.028884
C27   C     C_R   0.756449 0.443601 0.761558 0.130831
C28   C     C_R   0.864141 0.486594 0.712170 -0.482510
C29   C     C_R   0.019297 0.544751 0.733814 0.210136
C30   C     C_R   0.075278 0.550033 0.806684 -0.036835
C31   C     C_R   0.160971 0.492343 0.068861 -0.019315
C32   C     C_R   0.221224 0.495248 0.140985 -0.003449
C33   C     C_R   0.117119 0.444525 0.190742 -0.017992
C34   C     C_R   0.962666 0.385452 0.164747 -0.127410
H38   H     H_    0.664707 0.291944 0.107092 0.173273
H39   H     H_    0.551251 0.305821 0.988552 0.133851
H40   H     H_    0.823157 0.479296 0.656287 0.163902
H41   H     H_    0.582569 0.369450 0.872335 0.175313
H42   H     H_    0.885977 0.340199 0.199327 0.200932
C35   C     C_R   0.232872 0.602214 0.831380 -0.170180
C36   C     C_R   0.295629 0.595993 0.899602 0.154626
C37   C     C_R   0.196563 0.544558 0.948553 0.036320
C38   C     C_R   0.260081 0.542026 0.018914 -0.029670
C39   C     C_R   0.459102 0.638635 0.918513 -0.220269
C40   C     C_R   0.523155 0.633484 0.986243 -0.083780
C41   C     C_R   0.423247 0.589364 0.038546 -0.016561
C42   C     C_R   0.383789 0.549411 0.162979 -0.201475
C43   C     C_R   0.485110 0.594275 0.109630 0.298771
C44   C     C_R   0.434624 0.556827 0.237245 0.237061
C45   C     C_R   0.324789 0.513912 0.286347 -0.445900
C46   C     C_R   0.169110 0.455815 0.264960 0.220769
H43   H     H_    0.312558 0.645933 0.797589 0.145839
H44   H     H_    0.538655 0.675214 0.880596 0.138816
H45   H     H_    0.651875 0.665833 0.996832 0.191137
H46   H     H_    0.364521 0.521895 0.342458 0.176906
C47   C     C_R   0.761327 0.184090 0.534171 -0.505198
C48   C     C_R   0.420471 0.811286 0.480172 -0.428216
C49   C     C_R   0.397127 0.987576 0.453597 -0.198411
C50   C     C_R   0.331101 0.879618 0.450882 0.236692
C51   C     C_R   0.574019 0.850457 0.514596 0.283808
C52   C     C_R   0.639076 0.962236 0.522381 -0.028295
C53   C     C_R   0.548967 0.031185 0.490529 -0.037048
C54   C     C_R   0.613248 0.141935 0.496235 0.285121
C55   C     C_R   0.854472 0.117095 0.562931 0.097086
C56   C     C_R   0.792043 0.007185 0.559094 -0.132108
H47   H     H_    0.326219 0.036178 0.427373 0.163583
H48   H     H_    0.865838 0.958487 0.583852 0.194893
H49   H     H_    0.810610 0.268647 0.536423 0.164546
H50   H     H_    0.368838 0.726936 0.476815 0.174643
Br1   Br    Br    0.891298 0.030176 0.268219 -0.477095
Br2   Br    Br    0.541887 0.313088 0.249291 -0.568765
N1    N     N_R   0.649084 0.649826 0.125734 0.247186
O25   O     O_R   0.769964 0.596046 0.110944 -0.415472
O26   O     O_R   0.676541 0.753358 0.124993 -0.408490
N2    N     N_R   0.363810 0.902459 0.680207 0.218369
O27   O     O_R   0.519998 0.939077 0.688789 -0.464423
O28   O     O_R   0.269690 0.954521 0.647066 -0.355380

loop_
_geom_bond_atom_site_label_1
_geom_bond_atom_site_label_2
_geom_bond_distance
_ccdc_geom_bond_type
O14   Ba2   2.784233 S    
O5    C6    1.396873 S    
C34   H42   1.078051 S    
C12   H25   1.110110 S    
P2    C51   1.829553 S    
C5    H10   1.110900 S    
C43   N1    1.430115 S    
C9    H18   1.107536 S    
O4    P6    1.545457 D    
C24   C25   1.416331 A    
C47   C54   1.393089 A    
O7    Ba1   2.896761 S    
C42   C44   1.432674 A    
Ba2   O21   2.896986 S    
C19   C20   1.399901 A    
C24   C27   1.420577 A    
C55   C56   1.402204 A    
P4    O12   1.515418 D    
C28   H40   1.081705 S    
P5    O19   1.747890 S    
C14   H31   1.110579 S    
P3    O11   1.751693 S    
C21   C22   1.409099 A    
C2    H5    1.108304 S    
C47   C55   1.389789 A    
O11   C2    1.403433 S    
P5    C55   1.852469 S    
C41   C43   1.408722 A    
C8    H16   1.102611 S    
C33   C46   1.428868 A    
N1    O25   1.298689 A    
P1    Ba1   3.400227 S    
C40   C41   1.413407 A    
P1    O1    1.515080 D    
O14   P8    1.750149 S    
C11   C12   1.520165 S    
C42   C43   1.438403 A    
C36   C37   1.404374 A    
C37   C38   1.418872 A    
O2    Ba2   2.811270 S    
O19   C13   1.402286 S    
C2    H4    1.101238 S    
C52   C53   1.421490 A    
C14   H32   1.110528 S    
O12   Ba2   2.853256 S    
P8    C27   1.853564 S    
P5    O17   1.752470 S    
P3    C50   1.836717 S    
C4    N2    1.460656 S    
C39   C40   1.382763 A    
C1    H2    1.108570 S    
C9    H19   1.106398 S    
O16   Ba2   2.901770 S    
C11   H23   1.109797 S    
O17   Ba2   2.742855 S    
P4    O13   1.576606 S    
C12   H26   1.110956 S    
C8    H17   1.109273 S    
Ba1   O13   2.810620 S    
Ba2   O20   2.805535 S    
O3    P6    1.720822 S    
C5    H11   1.105482 S    
P6    C44   1.864158 S    
C31   C32   1.426690 A    
C47   H49   1.082505 S    
O6    P6    1.747963 S    
C33   C34   1.413661 A    
N2    O28   1.301378 A    
C16   H37   1.109978 S    
P5    O18   1.543598 D    
C14   H30   1.110652 S    
C35   H43   1.070653 S    
P7    O21   1.563709 D    
O3    Ba1   2.784893 S    
C6    C7    1.526676 S    
C20   H39   1.083540 S    
C2    C3    1.522080 S    
H35   C16   1.110165 S    
C19   H38   1.079879 S    
C8    C9    1.522612 S    
C56   H48   1.078143 S    
C20   C21   1.402421 A    
C13   H29   1.111510 S    
C4    H8    1.105549 S    
C16   H36   1.109078 S    
P1    O5    1.741846 S    
O1    Ba1   2.852924 S    
P1    O2    1.576607 S    
C7    H14   1.106770 S    
C6    H13   1.110763 S    
Ba1   O20   2.902669 S    
P2    O10   1.747319 S    
C31   C38   1.407837 A    
H1    C10   1.108630 S    
C15   O24   1.402234 S    
P8    O24   1.748341 S    
C28   C29   1.396091 A    
P4    O15   1.763244 S    
C52   C56   1.422584 A    
C25   C26   1.423796 A    
P7    C54   1.827612 S    
C21   C23   1.408246 A    
O16   P7    1.749787 S    
O2    Ba1   2.918421 S    
C1    H3    1.104254 S    
C45   C46   1.398470 A    
C7    Br1   1.941791 S    
C49   C53   1.413516 A    
P2    O7    1.494825 D    
C40   H45   1.080772 S    
P3    O8    1.745766 S    
P2    Ba1   3.430727 S    
C53   C54   1.412128 A    
C9    H20   1.107719 S    
C3    H7    1.108747 S    
C32   C42   1.432728 A    
C4    C5    1.529707 S    
C26   C37   1.405043 A    
C51   C52   1.422934 A    
C48   C51   1.396818 A    
C22   C26   1.406097 A    
C15   C16   1.521268 S    
C44   C45   1.408594 A    
O13   Ba2   2.919319 S    
N2    O27   1.298037 A    
C11   O22   1.403490 S    
N1    O26   1.301566 A    
C17   C22   1.423348 A    
C39   H44   1.081170 S    
C35   C36   1.390686 A    
C7    H15   1.107789 S    
Ba1   O16   2.806160 S    
C12   H24   1.106436 S    
P4    C29   1.883131 S    
C48   C50   1.387900 A    
C13   C14   1.521319 S    
C17   C31   1.412701 A    
O8    Ba1   2.742218 S    
C30   C35   1.401913 A    
C23   H41   1.079912 S    
Ba1   Ba2   4.578577 S    
C6    H12   1.096650 S    
C49   C50   1.388368 A    
C13   H28   1.113583 S    
C15   H34   1.110083 S    
P8    O23   1.535406 D    
C10   H21   1.112351 S    
C29   C30   1.423761 A    
C3    H27   1.110069 S    
C1    C10   1.519542 S    
O10   C8    1.393858 S    
C48   H50   1.082313 S    
C23   C24   1.413138 A    
C4    O15   1.404164 S    
C38   C41   1.405260 A    
C15   H33   1.105494 S    
P2    O20   1.590310 S    
C11   Br2   1.920871 S    
C45   H46   1.081919 S    
C49   H47   1.076609 S    
C17   C18   1.406690 A    
P4    Ba2   3.400817 S    
C27   C28   1.402534 A    
P3    O9    1.545012 D    
C18   C34   1.406164 A    
C32   C33   1.433038 A    
C3    H6    1.106625 S    
P7    O22   1.755615 S    
C18   C19   1.406117 A    
C25   C30   1.423536 A    
C1    H22   1.106773 S    
O6    C10   1.413112 S    
C36   C39   1.391784 A    
P1    C46   1.898145 S    
C5    H9    1.110433 S    
