data_mof_unit_24854.cif
_audit_creation_date              2012-12-10T16:37:39-0500
_audit_creation_method            fapswitch 2.2
_symmetry_space_group_name_H-M    P1
_symmetry_Int_Tables_number       1
_space_group_crystal_system       triclinic
_cell_length_a                    10.847149
_cell_length_b                    10.883083
_cell_length_c                    15.396632
_cell_angle_alpha                 96.960873
_cell_angle_beta                  75.394828
_cell_angle_gamma                 98.664886
_cell_volume                      1732.18274127

loop_
_atom_site_label
_atom_site_type_symbol
_atom_type_description
_atom_site_fract_x
_atom_site_fract_y
_atom_site_fract_z
_atom_type_partial_charge
C1    C     C_R   0.158086 0.478167 0.519752 0.852745
C2    C     C_R   0.544811 0.490701 0.109725 -0.257902
C3    C     C_R   0.605753 0.291103 0.124375 -0.052068
C4    C     C_R   0.841843 0.522436 0.481084 0.889435
C5    C     C_R   0.420239 0.573249 0.841803 -0.075060
C6    C     C_2   0.978046 0.536946 0.477737 -0.381277
C7    C     C_2   0.022488 0.468132 0.526261 -0.295095
C8    C     C_2   0.541079 0.967913 0.478907 -0.408761
C9    C     C_2   0.449409 0.036247 0.527317 -0.129207
C10   C     C_R   0.469120 0.167636 0.519254 0.833278
C11   C     C_R   0.528941 0.833416 0.480912 0.877216
C12   C     C_R   0.361483 0.713521 0.975783 -0.176686
C13   C     C_R   0.555299 0.443442 0.258369 0.830568
C14   C     C_R   0.443761 0.551661 0.742488 0.783457
C15   C     C_R   0.587763 0.248405 0.037534 -0.046358
C16   C     C_R   0.578053 0.411029 0.161109 -0.077040
C17   C     C_R   0.380420 0.687082 0.883280 -0.194099
C18   C     C_R   0.662110 0.214775 0.174970 0.118091
C19   C     C_R   0.777459 0.261739 0.199954 -0.161714
C20   C     C_R   0.833216 0.189230 0.244848 -0.145903
C21   C     C_R   0.774687 0.069265 0.264779 -0.116806
C22   C     C_R   0.659232 0.022366 0.241168 -0.143660
C23   C     C_R   0.391206 0.631427 0.028713 0.013522
C24   C     C_R   0.602451 0.095074 0.197000 -0.117828
C25   C     C_R   0.319615 0.984415 0.576494 0.161433
C26   C     C_R   0.286402 0.994970 0.670994 -0.146976
C27   C     C_R   0.164927 0.944082 0.717495 -0.135497
C28   C     C_R   0.075724 0.883594 0.669875 -0.083665
C29   C     C_R   0.107495 0.874827 0.575700 -0.127724
C30   C     C_R   0.228812 0.925739 0.529044 -0.114186
C31   C     C_1   0.490066 0.150355 0.872087 0.155578
C32   C     C_1   0.637512 0.133461 0.995501 0.169813
C33   C     C_R   0.344729 0.654613 0.127853 0.095306
C34   C     C_R   0.448063 0.521975 0.986127 0.037306
C35   C     C_R   0.271191 0.558643 0.178956 -0.140175
C36   C     C_R   0.241453 0.575310 0.272925 -0.130699
C37   C     C_R   0.281455 0.688875 0.316648 -0.129303
C38   C     C_R   0.349084 0.786814 0.266382 -0.145311
C39   C     C_R   0.380797 0.769980 0.172284 -0.175640
C40   C     C_R   0.444319 0.486002 0.895194 0.057232
C41   C     C_R   0.505969 0.445507 0.030055 0.048041
C42   C     C_R   0.529791 0.322246 0.991727 0.045449
C43   C     C_R   0.494625 0.279107 0.909381 -0.023891
C44   C     C_R   0.457021 0.361562 0.861556 -0.229693
H1    H     H_    0.960159 0.397373 0.566426 0.167940
H2    H     H_    0.818574 0.012759 0.298814 0.137503
H3    H     H_    0.614117 0.929550 0.257022 0.141662
H4    H     H_    0.512649 0.058282 0.179475 0.117577
H5    H     H_    0.354885 0.041564 0.708340 0.141419
H6    H     H_    0.140013 0.951424 0.790414 0.137449
H7    H     H_    0.981827 0.844054 0.705934 0.133320
H8    H     H_    0.038120 0.828754 0.538883 0.127995
H9    H     H_    0.252248 0.919504 0.456223 0.111677
H10   H     H_    0.241502 0.469361 0.146046 0.132906
H11   H     H_    0.189135 0.499260 0.311615 0.145734
H12   H     H_    0.629292 0.013735 0.438760 0.146393
H13   H     H_    0.260483 0.700855 0.389428 0.116989
H14   H     H_    0.379047 0.874999 0.300333 0.124727
H15   H     H_    0.437586 0.844849 0.134118 0.131957
H16   H     H_    0.544119 0.586995 0.135960 0.168465
H17   H     H_    0.360494 0.754984 0.844304 0.178863
H18   H     H_    0.320722 0.797893 0.006568 0.151620
H19   H     H_    0.430600 0.324800 0.799317 0.165609
H20   H     H_    0.042031 0.604392 0.435703 0.143136
H21   H     H_    0.824865 0.353887 0.183701 0.135807
H22   H     H_    0.922312 0.225703 0.263560 0.134862
N1    N     N_1   0.485768 0.047461 0.841946 -0.220937
N2    N     N_1   0.677973 0.041814 0.962692 -0.193903
O1    O     O_3   0.500000 0.500000 0.500000 -0.487370
O2    O     O_R   0.463530 0.379110 0.309170 -0.635803
O3    O     O_R   0.388210 0.611730 0.699360 -0.639220
O4    O     O_R   0.624720 0.532760 0.292120 -0.642503
O5    O     O_R   0.523540 0.476390 0.699360 -0.642623
O6    O     O_R   0.537910 0.240570 0.564270 -0.641729
O7    O     O_R   0.438950 0.782540 0.540270 -0.623380
O8    O     O_R   0.222350 0.398740 0.468260 -0.646747
O9    O     O_R   0.800790 0.578160 0.427210 -0.647050
O10   O     O_R   0.212140 0.566330 0.564260 -0.628058
O11   O     O_R   0.764730 0.456770 0.540270 -0.634208
O12   O     O_R   0.412790 0.208310 0.468260 -0.644647
O13   O     O_R   0.610350 0.768590 0.427210 -0.649511
Zn1   Zn    Zn3+2 0.580150 0.419820 0.574680 0.967721
Zn2   Zn    Zn3+2 0.401380 0.373730 0.437510 0.967132
Zn3   Zn    Zn3+2 0.631680 0.593260 0.413140 0.966184
Zn4   Zn    Zn3+2 0.386790 0.613180 0.574670 0.976798

loop_
_geom_bond_atom_site_label_1
_geom_bond_atom_site_label_2
_ccdc_geom_bond_type
C41   C42   A    
C19   C20   A    
C8    H12   S    
C9    C25   S    
C15   C32   S    
C11   O13   A    
C31   N1    T    
C12   C23   A    
C26   C27   A    
C29   C30   A    
C31   C43   S    
C18   C24   A    
C7    H1    S    
C20   H22   S    
C36   C37   A    
C38   C39   A    
C28   H7    S    
C2    H16   S    
C5    C17   A    
C13   O2    A    
C2    C41   A    
C3    C18   S    
C18   C19   A    
C14   O3    A    
C6    H20   S    
O1    Zn1   S    
C17   H17   S    
O3    Zn4   S    
O7    Zn4   S    
C35   C36   A    
C8    C9    D    
C23   C33   S    
C12   C17   A    
C2    C16   A    
C9    C10   S    
C27   H6    S    
C32   N2    T    
C22   H3    S    
C38   H14   S    
C21   C22   A    
C35   H10   S    
C1    O10   A    
C34   C41   A    
O6    Zn1   S    
O12   Zn2   S    
O8    Zn2   S    
C44   H19   S    
C30   H9    S    
C24   H4    S    
C14   O5    A    
C4    O11   A    
C4    C6    S    
C26   H5    S    
C10   O12   A    
O9    Zn3   S    
C25   C26   A    
C43   C44   A    
C37   C38   A    
O1    Zn2   S    
C12   H18   S    
C23   C34   A    
C39   H15   S    
C33   C39   A    
O2    Zn2   S    
C5    C14   S    
O4    Zn3   S    
O10   Zn4   S    
C34   C40   A    
C13   C16   S    
C42   C43   A    
O5    Zn1   S    
O13   Zn3   S    
O1    Zn4   S    
C21   H2    S    
C25   C30   A    
C28   C29   A    
C1    C7    S    
C1    O8    A    
C15   C42   A    
O11   Zn1   S    
C6    C7    D    
C13   O4    A    
C4    O9    A    
O1    Zn3   S    
C11   O7    A    
C10   O6    A    
C8    C11   S    
C33   C35   A    
C19   H21   S    
C22   C24   A    
C40   C44   A    
C20   C21   A    
C5    C40   A    
C27   C28   A    
C36   H11   S    
C3    C15   A    
C37   H13   S    
C3    C16   A    
C29   H8    S    
