data_mof_unit_23041.cif
_audit_creation_date              2012-10-26T21:19:41-0400
_audit_creation_method            fapswitch 2.2
_symmetry_space_group_name_H-M    P1
_symmetry_Int_Tables_number       1
_space_group_crystal_system       triclinic
_cell_length_a                    10.836801
_cell_length_b                    15.248133
_cell_length_c                    13.798773
_cell_angle_alpha                 89.912576
_cell_angle_beta                  90.745111
_cell_angle_gamma                 89.650696
_cell_volume                      2279.88470176

loop_
_atom_site_label
_atom_site_type_symbol
_atom_type_description
_atom_site_fract_x
_atom_site_fract_y
_atom_site_fract_z
_atom_type_partial_charge
C1    C     C_R   0.496724 0.329489 0.500141 0.587573
C2    C     C_R   0.545290 0.815068 0.422181 -0.010626
C3    C     C_R   0.486670 0.232343 0.500792 0.019684
C4    C     C_R   0.495558 0.766765 0.500304 0.019343
C5    C     C_R   0.466581 0.185000 0.413213 -0.018205
C6    C     C_R   0.441981 0.812661 0.578757 -0.032485
C7    C     C_R   0.464251 0.093760 0.414532 -0.126477
C8    C     C_R   0.436602 0.903745 0.577274 -0.130274
C9    C     C_R   0.482966 0.047452 0.500925 0.003358
C10   C     C_R   0.487047 0.951050 0.500612 0.002415
C11   C     C_R   0.576113 0.438673 0.108597 -0.007202
C12   C     C_R   0.498184 0.670138 0.499962 0.590616
C13   C     C_R   0.410902 0.449557 0.891608 -0.001898
C14   C     C_R   0.573216 0.441488 0.211206 0.107909
C15   C     C_R   0.414112 0.451868 0.789037 0.111829
C16   C     C_R   0.262358 0.502778 0.499267 0.602008
C17   C     C_R   0.737623 0.498501 0.500760 0.602313
C18   C     C_R   0.429433 0.558389 0.207455 0.061917
C19   C     C_R   0.584429 0.547884 0.792251 0.052578
C20   C     C_R   0.428995 0.558696 0.105597 -0.134706
C21   C     C_R   0.585182 0.548090 0.894143 -0.142118
C22   C     C_R   0.502181 0.498609 0.054521 -0.048974
C23   C     C_R   0.871379 0.500712 0.502924 0.011662
C24   C     C_R   0.498451 0.498776 0.945440 -0.044665
C25   C     C_R   0.170937 0.811727 0.482105 -0.125409
C26   C     C_R   0.801110 0.198844 0.530470 -0.128002
C27   C     C_R   0.127645 0.729557 0.510137 -0.094501
C28   C     C_R   0.841779 0.280548 0.498386 -0.095388
C29   C     C_R   0.126317 0.659696 0.444029 -0.009257
C30   C     C_R   0.873406 0.345728 0.565715 -0.003436
C31   C     C_R   0.170014 0.672791 0.349886 -0.102257
C32   C     C_R   0.860364 0.329540 0.665163 -0.092096
C33   C     C_R   0.216099 0.754870 0.322581 0.000116
C34   C     C_R   0.128511 0.501239 0.497335 0.016889
C35   C     C_R   0.820208 0.247506 0.697210 0.010215
C36   C     C_R   0.216060 0.824313 0.388814 -0.101868
C37   C     C_R   0.792177 0.181824 0.629713 -0.106492
C38   C     C_R   0.932607 0.577050 0.472507 -0.011713
C39   C     C_R   0.067130 0.425148 0.528611 -0.007892
C40   C     C_2   0.655126 0.373047 0.059360 0.237418
C41   C     C_2   0.317289 0.395398 0.941034 0.232234
C42   C     C_1   0.260138 0.768829 0.225861 0.175194
C43   C     C_1   0.810424 0.230157 0.799381 0.216514
C44   C     C_2   0.862828 0.658367 0.446888 0.241952
C45   C     C_R   0.937845 0.425760 0.533231 -0.079877
C46   C     C_2   0.136523 0.343488 0.554114 0.238736
C47   C     C_1   0.503779 0.224711 0.683858 0.235634
C48   C     C_1   0.602335 0.773847 0.339600 0.256518
C49   C     C_1   0.443336 0.226597 0.320477 0.258671
C50   C     C_1   0.384953 0.768818 0.659604 0.214572
C51   C     C_R   0.062057 0.577216 0.469436 -0.078746
C52   C     C_R   0.497232 0.093234 0.587809 -0.130685
C53   C     C_R   0.542237 0.906251 0.423957 -0.130336
C54   C     C_R   0.495526 0.184349 0.589256 -0.023151
Cu1   Cu    Cu3+1 0.500000 0.499990 0.596430 1.015442
Cu2   Cu    Cu3+1 0.500000 0.500010 0.403570 1.013911
H1    H     H_    0.250322 0.888211 0.368236 0.129471
H2    H     H_    0.653580 0.586403 0.932916 0.128586
H3    H     H_    0.169697 0.865738 0.532879 0.129232
H4    H     H_    0.778040 0.148253 0.478476 0.131015
H5    H     H_    0.091419 0.720986 0.582301 0.144621
H6    H     H_    0.852661 0.292076 0.421509 0.137814
H7    H     H_    0.164594 0.619983 0.297564 0.115690
H8    H     H_    0.886211 0.379515 0.717302 0.125280
H9    H     H_    0.511804 0.057895 0.655282 0.121370
H10   H     H_    0.584243 0.942442 0.365410 0.121319
H11   H     H_    0.657553 0.369936 0.980880 0.141986
H12   H     H_    0.762220 0.117832 0.653785 0.122865
H13   H     H_    0.314507 0.392505 0.019517 0.139126
H14   H     H_    0.892837 0.699569 0.387597 0.131180
H15   H     H_    0.107490 0.302683 0.613978 0.129222
H16   H     H_    0.446836 0.058592 0.347519 0.122220
H17   H     H_    0.390264 0.937724 0.635524 0.122442
H18   H     H_    0.629359 0.396365 0.253644 0.166685
H19   H     H_    0.348241 0.414361 0.746846 0.175961
H20   H     H_    0.373557 0.605146 0.245764 0.128835
H21   H     H_    0.651778 0.586241 0.753843 0.144906
H22   H     H_    0.371374 0.605516 0.066683 0.145723
N1    N     N_R   0.500000 0.500020 0.258690 -0.245745
N2    N     N_R   0.500000 0.499980 0.741310 -0.248856
N3    N     N_1   0.295670 0.780145 0.148144 -0.284564
N4    N     N_1   0.802477 0.216247 0.881523 -0.225831
N5    N     N_1   0.510259 0.256177 0.760002 -0.272823
N6    N     N_1   0.647838 0.741016 0.273342 -0.275298
N7    N     N_1   0.424220 0.259290 0.245986 -0.259343
N8    N     N_1   0.339182 0.733858 0.724273 -0.276910
O1    O     O_R   0.500010 0.371450 0.581430 -0.494062
O2    O     O_2   0.241773 0.353041 0.894591 -0.494975
O3    O     O_2   0.775487 0.682372 0.495183 -0.515451
O4    O     O_2   0.223185 0.318925 0.505459 -0.507340
O5    O     O_R   0.499990 0.628550 0.418570 -0.499407
O6    O     O_R   0.500010 0.371460 0.418560 -0.501950
O7    O     O_R   0.499990 0.628540 0.581440 -0.485611
O8    O     O_R   0.319640 0.500000 0.581430 -0.509261
O9    O     O_R   0.680360 0.500000 0.418570 -0.504051
O10   O     O_R   0.319640 0.500010 0.418560 -0.492500
O11   O     O_R   0.680360 0.499990 0.581440 -0.498411
O12   O     O_2   0.718706 0.321283 0.105951 -0.481646

loop_
_geom_bond_atom_site_label_1
_geom_bond_atom_site_label_2
_ccdc_geom_bond_type
C1    O1    A    
Cu2   O9    S    
C15   H19   S    
Cu1   Cu2   S    
C23   C45   A    
C27   C29   A    
C12   O5    A    
C52   H9    S    
Cu1   O7    S    
C13   C41   S    
C42   N3    T    
C34   C51   A    
C17   C23   S    
Cu2   N1    S    
C33   C42   S    
C14   H18   S    
C19   C21   A    
C47   C54   S    
C40   O12   D    
C3    C54   A    
C37   H12   S    
C33   C36   A    
C7    C9    A    
C19   H21   S    
C10   C53   A    
C30   C45   S    
C16   C34   S    
Cu2   O5    S    
C18   N1    A    
C40   H11   S    
C31   C33   A    
C44   H14   S    
C17   O9    A    
C47   N5    T    
C4    C12   S    
C35   C43   S    
C9    C10   S    
C39   C45   A    
C5    C49   S    
C11   C40   S    
C9    C52   A    
Cu1   O8    S    
C52   C54   A    
C16   O10   A    
C34   C39   A    
C32   C35   A    
C31   H7    S    
C32   H8    S    
C4    C6    A    
C36   H1    S    
C7    H16   S    
C5    C7    A    
C6    C8    A    
C38   C51   A    
C2    C48   S    
C48   N6    T    
C13   C24   A    
C1    C3    S    
C27   H5    S    
C2    C4    A    
C38   C44   S    
C49   N7    T    
C15   N2    A    
Cu1   O11   S    
C14   N1    A    
C6    C50   S    
C53   H10   S    
C46   H15   S    
C39   C46   S    
C20   C22   A    
C1    O6    A    
C13   C15   A    
C22   C24   S    
C12   O7    A    
C41   H13   S    
C29   C51   S    
Cu2   O10   S    
C41   O2    D    
C18   H20   S    
C35   C37   A    
C16   O8    A    
C3    C5    A    
C2    C53   A    
C26   C37   A    
C46   O4    D    
C25   C27   A    
C23   C38   A    
C11   C22   A    
C26   C28   A    
C20   H22   S    
C28   C30   A    
C21   H2    S    
C29   C31   A    
C30   C32   A    
Cu1   N2    S    
C17   O11   A    
C8    H17   S    
C11   C14   A    
C18   C20   A    
Cu1   O1    S    
C19   N2    A    
C50   N8    T    
C25   C36   A    
Cu2   O6    S    
C8    C10   A    
C21   C24   A    
C43   N4    T    
C25   H3    S    
C26   H4    S    
C44   O3    D    
C28   H6    S    
