data_mof_unit_25319.cif
_audit_creation_date              2012-12-11T15:55:38-0500
_audit_creation_method            fapswitch 2.2
_symmetry_space_group_name_H-M    P1
_symmetry_Int_Tables_number       1
_space_group_crystal_system       triclinic
_cell_length_a                    6.967142
_cell_length_b                    14.397214
_cell_length_c                    16.237839
_cell_angle_alpha                 89.926972
_cell_angle_beta                  89.883159
_cell_angle_gamma                 90.154968
_cell_volume                      1628.76529059

loop_
_atom_site_label
_atom_site_type_symbol
_atom_type_description
_atom_site_fract_x
_atom_site_fract_y
_atom_site_fract_z
_atom_type_partial_charge
O1    O     O_R   0.505680 0.583900 0.413320 -0.555519
O2    O     O_R   0.176010 0.594950 0.586080 -0.508669
O3    O     O_R   0.005680 0.416100 0.586680 -0.548659
C1    C     C_R   0.344992 0.617713 0.614504 0.787736
O4    O     O_R   0.175960 0.594930 0.413930 -0.545758
O5    O     O_R   0.005640 0.416080 0.413300 -0.505009
C2    C     C_R   0.345102 0.616987 0.385168 0.745448
O6    O     O_R   0.505720 0.583920 0.586700 -0.516773
O7    O     O_3   0.339190 0.441320 0.500000 -0.373182
V1    V     V_3+5 0.064350 0.510890 0.500000 1.545712
O8    O     O_R   0.675920 0.405050 0.413920 -0.527383
C3    C     C_R   0.844589 0.383305 0.384674 0.807758
O9    O     O_R   0.675960 0.405070 0.586070 -0.545946
C4    C     C_R   0.844460 0.380822 0.612588 0.803858
V2    V     V_3+5 0.564340 0.489110 0.500000 1.518892
O10   O     O_3   0.839370 0.558680 0.500000 -0.371456
C5    C     C_R   0.914420 0.339741 0.757673 -0.109893
C6    C     C_R   0.850704 0.312526 0.680452 -0.222737
C7    C     C_R   0.781155 0.220564 0.672263 0.332140
C8    C     C_R   0.805754 0.155436 0.738139 0.337636
C9    C     C_R   0.878223 0.184564 0.815793 -0.279639
C10   C     C_R   0.920386 0.279523 0.824584 -0.046360
C11   C     C_3   0.088515 0.333161 0.858419 0.991560
C12   C     C_3   0.083382 0.396303 0.782430 -0.386165
H1    H     H_    0.204323 0.390298 0.738248 0.123318
H2    H     H_    0.041982 0.469099 0.796483 0.225122
C13   C     C_R   0.027845 0.249629 0.198759 0.245090
C14   C     C_R   0.020409 0.308573 0.267438 0.533429
C15   C     C_R   0.856015 0.313801 0.316397 -0.371230
C16   C     C_R   0.693220 0.264069 0.289530 0.325199
C17   C     C_R   0.716997 0.187021 0.236348 0.328939
C18   C     C_R   0.880652 0.183673 0.185421 -0.345250
C19   C     C_R   0.196806 0.703973 0.734012 0.616225
C20   C     C_R   0.208409 0.767899 0.798756 -0.287520
H3    H     H_    0.083073 0.778420 0.837165 0.230197
C21   C     C_R   0.380136 0.815639 0.815481 -0.340482
C22   C     C_R   0.540014 0.799351 0.764416 0.581393
C23   C     C_R   0.527214 0.738771 0.696819 0.348614
C24   C     C_R   0.356083 0.687808 0.682219 -0.391033
C25   C     C_R   0.197513 0.740084 0.295597 -0.217823
H4    H     H_    0.064662 0.734223 0.330010 0.164252
C26   C     C_R   0.208340 0.804440 0.231014 0.605110
C27   C     C_R   0.378756 0.814588 0.184366 -0.318167
C28   C     C_R   0.537895 0.758869 0.205300 0.617804
C29   C     C_R   0.526579 0.695563 0.270669 -0.249621
H5    H     H_    0.651262 0.653662 0.284678 0.160825
C30   C     C_R   0.356386 0.685143 0.316439 -0.229267
O11   O     O_R   0.229200 0.915950 0.913350 -0.555526
O12   O     O_R   0.559090 0.905000 0.086080 -0.498351
O13   O     O_R   0.729280 0.083880 0.086680 -0.546303
C31   C     C_R   0.389971 0.882828 0.115080 0.773828
O14   O     O_R   0.558920 0.904980 0.913920 -0.500504
O15   O     O_R   0.729110 0.083860 0.913300 -0.538896
C32   C     C_R   0.390190 0.883113 0.884922 0.793210
O16   O     O_R   0.229360 0.915970 0.086730 -0.512076
O17   O     O_3   0.395680 0.058580 0.000030 -0.398080
V3    V     V_3+5 0.670570 0.989070 0.999990 1.637126
O18   O     O_R   0.058820 0.094950 0.913870 -0.543819
C33   C     C_R   0.890130 0.118255 0.886046 0.778570
O19   O     O_R   0.058990 0.094970 0.086020 -0.536667
C34   C     C_R   0.890752 0.115200 0.116360 0.819620
V4    V     V_3+5 0.170560 0.010930 0.999930 1.539059
O20   O     O_3   0.895590 0.941310 0.999960 -0.343903
O21   O     O_3   0.714599 0.190833 0.596578 -0.550010
C35   C     C_3   0.512882 0.183847 0.600375 -0.190364
H6    H     H_    0.458977 0.163988 0.538608 0.164704
H7    H     H_    0.446121 0.251594 0.616634 0.116843
H8    H     H_    0.466199 0.129030 0.644460 0.145582
O22   O     O_3   0.619841 0.104515 0.251573 -0.553916
C36   C     C_3   0.426298 0.111958 0.229140 -0.056987
H9    H     H_    0.358415 0.042557 0.235576 0.117328
H10   H     H_    0.413104 0.132280 0.163496 0.176832
H11   H     H_    0.347746 0.159377 0.271011 0.181242
F1    F     F_    0.030417 0.656188 0.723803 -0.627600
F2    F     F_    0.708896 0.843715 0.778412 -0.659967
O23   O     O_3   0.686741 0.727864 0.647056 -0.482005
C37   C     C_3   0.672555 0.790437 0.580442 -0.094549
H12   H     H_    0.660497 0.863606 0.601876 0.120479
H13   H     H_    0.548991 0.772728 0.540031 0.073540
H14   H     H_    0.805042 0.785119 0.542744 0.143316
F3    F     F_    0.052163 0.857838 0.215621 -0.630428
F4    F     F_    0.704254 0.763907 0.161883 -0.622827
O24   O     O_3   0.766623 0.062515 0.724779 -0.538764
C38   C     C_3   0.935485 0.020472 0.694533 -0.131222
H15   H     H_    0.052902 0.022976 0.740893 0.104498
H16   H     H_    0.983844 0.052969 0.635760 0.122416
H17   H     H_    0.905579 0.946383 0.681469 0.203159
O25   O     O_3   0.256571 0.279941 0.874822 -0.555641
C39   C     C_3   0.345127 0.241698 0.804224 -0.298164
H18   H     H_    0.448084 0.292490 0.777559 0.151079
H19   H     H_    0.242000 0.217936 0.756609 0.101271
H20   H     H_    0.428481 0.179925 0.823501 0.189256
F5    F     F_    0.034011 0.383573 0.926768 -0.722109
O26   O     O_3   0.183713 0.255400 0.146853 -0.569658
C40   C     C_3   0.135468 0.313802 0.080900 -0.092505
H21   H     H_    0.262514 0.319931 0.039996 0.202064
H22   H     H_    0.098252 0.384935 0.102489 0.162424
H23   H     H_    0.015339 0.283596 0.044636 0.155350
F6    F     F_    0.160487 0.371770 0.278588 -0.671938
O27   O     O_3   0.518549 0.308962 0.289337 -0.518081
C41   C     C_3   0.528854 0.386577 0.234474 0.015051
H24   H     H_    0.672423 0.402411 0.207251 0.017673
H25   H     H_    0.481123 0.449953 0.267425 0.165156
H26   H     H_    0.432809 0.374904 0.181511 0.187468

loop_
_geom_bond_atom_site_label_1
_geom_bond_atom_site_label_2
_ccdc_geom_bond_type
O18   V4    S    
C25   C30   A    
C41   H24   S    
C3    C15   S    
C4    C6    S    
C40   H21   S    
C38   H17   S    
C1    O6    A    
O15   C33   A    
C40   H23   S    
C23   O23   S    
C37   H12   S    
O11   C32   A    
C15   C16   A    
C21   C22   A    
C22   C23   A    
C12   H2    S    
C18   C34   S    
C9    C33   S    
C28   F4    S    
O5    C3    A    
C16   C17   A    
V2    O10   S    
O16   V4    S    
C16   O27   S    
O12   V3    S    
O17   V3    S    
O19   V4    S    
C20   H3    S    
O8    V2    S    
C7    C8    A    
C35   H7    S    
C11   C12   S    
C36   H9    S    
O1    V2    S    
C39   H19   S    
O7    V1    S    
C20   C21   A    
O25   C39   S    
C29   C30   A    
C22   F2    S    
C41   H25   S    
O9    C4    A    
O22   C36   S    
C26   F3    S    
O14   C32   A    
V3    O20   S    
O23   C37   S    
C37   H13   S    
C5    C12   S    
C12   H1    S    
O4    C2    A    
O15   V3    S    
C6    C7    A    
O12   C31   A    
O18   C33   A    
C29   H5    S    
C11   F5    S    
O19   C34   A    
C2    C30   S    
O2    C1    A    
C27   C28   A    
V4    O20   S    
O11   V4    S    
O24   C38   S    
C1    C24   S    
C7    O21   S    
C35   H8    S    
C36   H11   S    
C5    C6    A    
C19   C24   A    
C38   H15   S    
C39   H20   S    
O3    C4    A    
C14   F6    S    
C25   H4    S    
C41   H26   S    
C11   O25   S    
O9    V2    S    
O17   V4    S    
C26   C27   A    
O2    V1    S    
C28   C29   A    
C37   H14   S    
C14   C15   A    
C13   C18   A    
O1    C2    A    
O13   V3    S    
C17   C18   A    
C38   H16   S    
O5    V1    S    
O8    C3    A    
C40   H22   S    
O6    V2    S    
C5    C10   A    
O21   C35   S    
O7    V2    S    
O4    V1    S    
O3    V1    S    
V1    O10   S    
C27   C31   S    
C23   C24   A    
C25   C26   A    
O27   C41   S    
C19   C20   A    
C31   O16   A    
O26   C40   S    
C21   C32   S    
O14   V3    S    
C19   F1    S    
C17   O22   S    
C8    C9    A    
C35   H6    S    
C8    O24   S    
C13   C14   A    
O13   C34   A    
C10   C11   S    
C13   O26   S    
C36   H10   S    
C39   H18   S    
C9    C10   A    
