data_mof_unit_28058.cif
_audit_creation_date              2013-03-05T15:46:35-0500
_audit_creation_method            fapswitch 2.2
_symmetry_space_group_name_H-M    P1
_symmetry_Int_Tables_number       1
_space_group_crystal_system       triclinic
_cell_length_a                    17.338714
_cell_length_b                    24.251843
_cell_length_c                    14.950428
_cell_angle_alpha                 89.867613
_cell_angle_beta                  125.373574
_cell_angle_gamma                 89.832703
_cell_volume                      5125.97118414

loop_
_atom_site_label
_atom_site_type_symbol
_atom_site_description
_atom_site_fract_x
_atom_site_fract_y
_atom_site_fract_z
_atom_type_partial_charge
C1    C     C_R   0.310072 0.376096 0.908268 -0.117847
C2    C     C_R   0.686726 0.371056 0.091266 -0.130982
C3    C     C_R   0.853129 0.847804 0.909079 -0.068446
C4    C     C_R   0.150817 0.848555 0.091612 -0.127242
H1    H     H_    0.252350 0.371067 0.823201 0.109665
H2    H     H_    0.743475 0.363285 0.175359 0.131210
H3    H     H_    0.815513 0.834342 0.824995 0.079316
H4    H     H_    0.189849 0.834999 0.176016 0.101900
N1    N     N_R   0.394180 0.396910 0.943210 -0.043953
N2    N     N_R   0.605820 0.396910 0.056790 -0.044642
N3    N     N_R   0.894180 0.896910 0.943210 -0.041859
N4    N     N_R   0.105820 0.896910 0.056790 -0.042829
C5    C     C_R   0.401344 0.623508 0.091733 -0.117137
C6    C     C_R   0.594009 0.630851 0.909214 -0.109397
C7    C     C_R   0.945015 0.152781 0.090221 -0.137749
C8    C     C_R   0.059414 0.151260 0.908406 -0.115007
H5    H     H_    0.428494 0.628336 0.176865 0.096591
H6    H     H_    0.563896 0.643286 0.826285 0.094906
H7    H     H_    0.991816 0.166481 0.174077 0.093382
H8    H     H_    0.014204 0.164852 0.824018 0.088304
N5    N     N_R   0.450950 0.603070 0.056740 -0.043005
N6    N     N_R   0.549050 0.603070 0.943260 -0.042427
N7    N     N_R   0.950950 0.103070 0.056740 -0.038177
N8    N     N_R   0.049050 0.103070 0.943260 -0.039707
C9    C     C_R   0.553368 0.454084 0.305025 -0.131940
C10   C     C_R   0.494141 0.454151 0.724929 -0.091830
C11   C     C_R   0.980251 0.953905 0.248387 -0.059539
C12   C     C_R   0.954928 0.954159 0.698494 -0.113340
H9    H     H_    0.571467 0.411685 0.331763 0.091845
H10   H     H_    0.487862 0.412468 0.697380 0.095129
H11   H     H_    0.970142 0.911106 0.258559 0.092816
H12   H     H_    0.938811 0.911781 0.672052 0.085442
N9    N     N_R   0.525650 0.471570 0.206150 -0.040405
N10   N     N_R   0.474350 0.471570 0.793850 -0.040185
N11   N     N_R   0.025650 0.971570 0.206150 -0.040434
N12   N     N_R   0.974350 0.971570 0.793850 -0.041592
C13   C     C_R   0.251213 0.546325 0.694321 -0.170009
C14   C     C_R   0.765432 0.544857 0.290236 -0.151685
C15   C     C_R   0.733288 0.046738 0.754607 -0.151031
C16   C     C_R   0.254428 0.045997 0.301710 -0.140142
H13   H     H_    0.248264 0.587930 0.666481 0.115082
H14   H     H_    0.782926 0.586923 0.316529 0.099967
H15   H     H_    0.714465 0.089500 0.750625 0.116218
H16   H     H_    0.262120 0.088052 0.329416 0.107931
N13   N     N_R   0.319480 0.528420 0.793810 -0.045771
N14   N     N_R   0.680520 0.528420 0.206190 -0.042700
N15   N     N_R   0.819480 0.028420 0.793810 -0.049366
N16   N     N_R   0.180520 0.028420 0.206190 -0.047923
C17   C     C_R   0.553367 0.545567 0.304907 -0.137267
C18   C     C_R   0.494457 0.545890 0.725175 -0.129420
C19   C     C_R   0.980283 0.046234 0.248292 -0.108588
C20   C     C_R   0.954849 0.046065 0.698377 -0.117745
H17   H     H_    0.571469 0.587835 0.331468 0.087429
H18   H     H_    0.488567 0.587700 0.697903 0.092101
H19   H     H_    0.970203 0.089086 0.258263 0.098676
H20   H     H_    0.938641 0.088556 0.671723 0.088902
N17   N     N_R   0.525640 0.528390 0.206120 -0.039378
N18   N     N_R   0.474360 0.528390 0.793880 -0.040058
N19   N     N_R   0.025640 0.028390 0.206120 -0.042812
N20   N     N_R   0.974360 0.028390 0.793880 -0.040697
C21   C     C_R   0.246953 0.455143 0.695360 -0.102952
C22   C     C_R   0.764280 0.453342 0.289515 -0.120037
C23   C     C_R   0.730681 0.954554 0.748313 -0.090848
C24   C     C_R   0.257301 0.954217 0.302152 -0.083812
H21   H     H_    0.235675 0.412632 0.670530 0.156922
H22   H     H_    0.778032 0.411002 0.315119 0.160461
H23   H     H_    0.708488 0.912058 0.734033 0.143456
H24   H     H_    0.270542 0.911676 0.328387 0.152148
N21   N     N_R   0.319490 0.471590 0.793840 -0.054741
N22   N     N_R   0.680510 0.471590 0.206160 -0.052692
N23   N     N_R   0.819490 0.971590 0.793840 -0.057978
N24   N     N_R   0.180510 0.971590 0.206160 -0.054964
C25   C     C_R   0.309323 0.623363 0.907905 -0.109831
C26   C     C_R   0.686650 0.628582 0.092109 -0.113839
C27   C     C_R   0.854255 0.152679 0.908109 -0.133346
C28   C     C_R   0.150902 0.151055 0.091393 -0.122546
H25   H     H_    0.251149 0.627855 0.822650 0.091928
H26   H     H_    0.742531 0.636363 0.176394 0.085989
H27   H     H_    0.817783 0.166276 0.823981 0.082452
H28   H     H_    0.189953 0.164305 0.175729 0.087620
N25   N     N_R   0.394130 0.603080 0.943110 -0.041712
N26   N     N_R   0.605870 0.603080 0.056890 -0.042091
N27   N     N_R   0.894130 0.103080 0.943110 -0.036365
N28   N     N_R   0.105870 0.103080 0.056890 -0.039713
C29   C     C_R   0.401771 0.376179 0.092085 -0.117489
C30   C     C_R   0.592916 0.368598 0.908519 -0.116715
C31   C     C_R   0.944628 0.847575 0.091427 -0.138250
C32   C     C_R   0.059344 0.848713 0.908689 -0.117813
H29   H     H_    0.428862 0.371372 0.177279 0.096241
H30   H     H_    0.561820 0.356035 0.825622 0.088067
H31   H     H_    0.991602 0.833770 0.175486 0.094988
H32   H     H_    0.013902 0.835399 0.824432 0.083997
N29   N     N_R   0.450990 0.396900 0.056840 -0.043595
N30   N     N_R   0.549010 0.396900 0.943160 -0.041637
N31   N     N_R   0.950990 0.896900 0.056840 -0.040900
N32   N     N_R   0.049010 0.896900 0.943160 -0.041936
C33   C     C_R   0.311966 0.363322 0.000225 0.040532
C34   C     C_R   0.682327 0.355437 0.999237 0.045015
C35   C     C_R   0.884741 0.815521 0.000448 0.054704
C36   C     C_R   0.121553 0.816788 0.000226 0.043507
C37   C     C_R   0.311094 0.635998 0.999811 0.038843
C38   C     C_R   0.683201 0.643900 0.000744 0.043011
C39   C     C_R   0.886019 0.185134 0.998529 0.057487
C40   C     C_R   0.121783 0.182867 0.999809 0.043415
C41   C     C_R   0.573029 0.499736 0.369533 0.058005
C42   C     C_R   0.516506 0.499986 0.689724 0.044312
C43   C     C_R   0.949404 0.000142 0.274411 0.034148
C44   C     C_R   0.940523 0.000192 0.635457 0.044814
C45   C     C_R   0.203465 0.501516 0.630112 0.143707
C46   C     C_R   0.822625 0.498398 0.338930 0.145516
C47   C     C_R   0.675086 0.001473 0.724032 0.163499
C48   C     C_R   0.304159 0.000462 0.364872 0.138304
Ni1   Ni    Ni4+2 0.434860 0.434850 0.869700 0.240433
Ni2   Ni    Ni4+2 0.565140 0.434850 0.130300 0.221089
Ni3   Ni    Ni4+2 0.934860 0.934850 0.869700 0.210729
Ni4   Ni    Ni4+2 0.065140 0.934850 0.130300 0.237994
Ni5   Ni    Ni4+2 0.565130 0.565140 0.130240 0.214119
Ni6   Ni    Ni4+2 0.434870 0.565140 0.869760 0.224821
Ni7   Ni    Ni4+2 0.065130 0.065140 0.130240 0.218958
Ni8   Ni    Ni4+2 0.934870 0.065140 0.869760 0.209371
C49   C     C_R   0.067349 0.551617 0.473518 0.143217
C50   C     C_R   0.970303 0.548567 0.411331 0.134027
C51   C     C_R   0.527950 0.053581 0.604452 0.140345
C52   C     C_R   0.436082 0.052733 0.514413 0.138091
C53   C     C_R   0.121710 0.503316 0.515843 -0.122042
C54   C     C_R   0.925720 0.498160 0.398112 -0.161207
C55   C     C_R   0.572457 0.005212 0.663372 -0.153653
C56   C     C_R   0.385236 0.003674 0.479526 -0.154405
C57   C     C_R   0.076763 0.453134 0.466359 0.184305
C58   C     C_R   0.979902 0.448922 0.422670 0.212230
C59   C     C_R   0.515402 0.959459 0.648109 0.193845
C60   C     C_R   0.419816 0.958632 0.554197 0.208393
C61   C     C_3   0.960842 0.602082 0.453543 -0.485601
C62   C     C_3   0.067035 0.604871 0.524652 -0.482941
C63   C     C_3   0.453773 0.093600 0.453050 -0.472020
C64   C     C_3   0.555210 0.094470 0.551833 -0.489386
H33   H     H_    0.927645 0.634749 0.389212 0.181185
H34   H     H_    0.095061 0.601685 0.612724 0.190996
H35   H     H_    0.445089 0.075877 0.379169 0.201251
H36   H     H_    0.576012 0.134927 0.594358 0.188482
H37   H     H_    0.930349 0.597368 0.501262 0.197006
H38   H     H_    0.094764 0.639884 0.503138 0.195795
H39   H     H_    0.416465 0.133428 0.439478 0.187995
H40   H     H_    0.604810 0.077245 0.534501 0.198620
C65   C     C_R   0.157934 0.685709 0.900634 -0.157060
C66   C     C_R   0.839200 0.689527 0.100408 -0.158763
C67   C     C_R   0.791568 0.267895 0.897531 -0.156879
C68   C     C_R   0.212414 0.266802 0.099315 -0.152662
H41   H     H_    0.136868 0.669360 0.822359 0.108920
H42   H     H_    0.858589 0.674006 0.178728 0.106438
H43   H     H_    0.769987 0.251350 0.819229 0.107766
H44   H     H_    0.235628 0.249181 0.177633 0.113455
C69   C     C_R   0.738259 0.310305 0.897762 -0.151265
C70   C     C_R   0.258490 0.313308 0.099412 -0.147616
C71   C     C_R   0.112038 0.732458 0.900727 -0.160857
C72   C     C_R   0.891282 0.732458 0.100309 -0.160665
H45   H     H_    0.678677 0.325650 0.819678 0.105332
H46   H     H_    0.315575 0.329560 0.177684 0.114689
H47   H     H_    0.057077 0.750155 0.822413 0.108539
H48   H     H_    0.948118 0.748835 0.178563 0.112796
C73   C     C_R   0.755637 0.327084 0.997533 0.115996
C74   C     C_R   0.239120 0.333138 0.000199 0.123933
C75   C     C_R   0.145249 0.758917 0.000135 0.132353
C76   C     C_R   0.860898 0.758080 0.000815 0.124515
C77   C     C_R   0.839393 0.310731 0.096007 -0.142238
C78   C     C_R   0.159141 0.314013 0.900872 -0.143405
C79   C     C_R   0.211140 0.731870 0.099368 -0.160730
C80   C     C_R   0.792786 0.732382 0.901593 -0.136513
H49   H     H_    0.858633 0.325979 0.173590 0.185227
H50   H     H_    0.137821 0.330895 0.822669 0.136709
H51   H     H_    0.234320 0.749139 0.177714 0.120687
H52   H     H_    0.772113 0.748677 0.823258 0.115184
C81   C     C_R   0.256895 0.685065 0.099161 -0.156235
C82   C     C_R   0.740771 0.689389 0.901725 -0.144326
C83   C     C_R   0.893169 0.268709 0.096070 -0.143054
C84   C     C_R   0.113111 0.267437 0.900667 -0.153479
H53   H     H_    0.313733 0.668140 0.177348 0.114420
H54   H     H_    0.682712 0.673550 0.823589 0.109309
H55   H     H_    0.951706 0.252900 0.174374 0.134785
H56   H     H_    0.057998 0.250271 0.822320 0.121355
C85   C     C_R   0.237783 0.665870 0.999846 0.137177
C86   C     C_R   0.757008 0.672524 0.001009 0.137363
C87   C     C_R   0.862001 0.242771 0.997141 0.118231
C88   C     C_R   0.146144 0.240505 0.999899 0.124013
C89   C     C_R   0.583432 0.549732 0.605402 -0.163894
C90   C     C_R   0.605479 0.549596 0.530421 -0.166865
C91   C     C_R   0.898007 0.050253 0.467708 -0.161044
C92   C     C_R   0.897008 0.050211 0.374517 -0.150281
H57   H     H_    0.576194 0.589075 0.633729 0.109389
H58   H     H_    0.611813 0.588893 0.501045 0.110231
H59   H     H_    0.899594 0.089622 0.502378 0.116020
H60   H     H_    0.898115 0.089531 0.341143 0.117549
C93   C     C_R   0.603837 0.499637 0.482631 0.137403
C94   C     C_R   0.561936 0.499832 0.633485 0.144822
C95   C     C_R   0.907491 0.000267 0.335533 0.138497
C96   C     C_R   0.907987 0.000296 0.520907 0.131602
C97   C     C_R   0.605310 0.449691 0.530691 -0.154020
C98   C     C_R   0.583370 0.449761 0.605762 -0.158517
C99   C     C_R   0.897105 0.950399 0.374951 -0.140276
C100  C     C_R   0.898035 0.950381 0.468088 -0.157634
H61   H     H_    0.611448 0.410345 0.501471 0.112058
H62   H     H_    0.576155 0.410471 0.634425 0.105559
H63   H     H_    0.898338 0.911070 0.341957 0.112564
H64   H     H_    0.899608 0.910996 0.503007 0.109786
N33   N     N_R   0.131298 0.406689 0.471491 0.242986
O1    O     O_R   0.117067 0.357126 0.492369 -0.346749
O2    O     O_R   0.202533 0.415037 0.465917 -0.406270
N34   N     N_R   0.943601 0.396441 0.424372 0.246624
O3    O     O_R   0.929956 0.358133 0.356172 -0.414107
O4    O     O_R   0.932510 0.385204 0.501405 -0.406020
N35   N     N_R   0.553757 0.915553 0.727637 0.251103
O5    O     O_R   0.603990 0.927163 0.831716 -0.384966
O6    O     O_R   0.550246 0.864736 0.697965 -0.358281
N36   N     N_R   0.358205 0.914246 0.537093 0.250346
O7    O     O_R   0.375515 0.864347 0.521281 -0.365851
O8    O     O_R   0.277364 0.925092 0.520679 -0.397083

loop_
_geom_bond_atom_site_label_1
_geom_bond_atom_site_label_2
_geom_bond_distance
_ccdc_geom_bond_type
N13   Ni6   1.862796 S    
C28   C40   1.384683 A    
C99   H63   1.080631 S    
C32   N32   1.331120 A    
N2    N30   1.385209 A    
C61   H33   1.112127 S    
C31   H31   1.079894 S    
C91   C96   1.401927 A    
C6    H6    1.071713 S    
C90   C93   1.399979 A    
C67   H43   1.080425 S    
C3    N3    1.331360 A    
C89   C94   1.400410 A    
C96   C100  1.402346 A    
C21   C45   1.386827 A    
C82   C86   1.400892 A    
C77   H49   1.071492 S    
C43   C95   1.460152 S    
C9    C41   1.377880 A    
C51   C52   1.366540 A    
C16   C48   1.378985 A    
N33   O1    1.300856 A    
N22   Ni2   1.862797 S    
N10   Ni1   1.856252 S    
C80   C82   1.381320 A    
N21   Ni1   1.854683 S    
N9    Ni2   1.856848 S    
C18   H18   1.074279 S    
N7    N27   1.385205 A    
C93   C97   1.399508 A    
C13   H13   1.080289 S    
C1    H1    1.077818 S    
N6    N26   1.385210 A    
C15   N15   1.324789 A    
C26   N26   1.331993 A    
C70   H46   1.080638 S    
C3    H3    1.079867 S    
N7    Ni7   1.854438 S    
N36   O8    1.301308 A    
C6    C38   1.385275 A    
C54   C58   1.426641 A    
C21   N21   1.330536 A    
C3    C35   1.380222 A    
C65   C85   1.401256 A    
N18   Ni6   1.857565 S    
C17   N17   1.329616 A    
C22   N22   1.325329 A    
N11   N19   1.377988 A    
N5    Ni5   1.854438 S    
C20   N20   1.331890 A    
C7    H7    1.079926 S    
C29   N29   1.334300 A    
C64   H36   1.111948 S    
C10   N10   1.329845 A    
C32   H32   1.079842 S    
C92   C95   1.401594 A    
N34   O3    1.298106 A    
C31   N31   1.332090 A    
C98   H62   1.080761 S    
N9    N17   1.377988 A    
N32   Ni3   1.854316 S    
C97   H61   1.080680 S    
C81   H53   1.080614 S    
C49   C62   1.503913 S    
C14   C46   1.391653 A    
C30   N30   1.331901 A    
C4    N4    1.332849 A    
C82   H54   1.080899 S    
C95   C99   1.401131 A    
N2    Ni2   1.857503 S    
C4    H4    1.080025 S    
C52   C56   1.393348 A    
C25   C37   1.391387 A    
C81   C85   1.401999 A    
C99   C100  1.383156 A    
C8    N8    1.332861 A    
C74   C78   1.402147 A    
C27   C39   1.376852 A    
C10   C42   1.378090 A    
C2    H2    1.072313 S    
C68   C70   1.383558 A    
N16   N24   1.378231 A    
C30   C34   1.380358 A    
C56   C60   1.419359 A    
C12   H12   1.079920 S    
C25   N25   1.334047 A    
N30   Ni1   1.854316 S    
C8    C40   1.386752 A    
N16   Ni7   1.854686 S    
C31   C35   1.380915 A    
N33   O2    1.301558 A    
C9    H9    1.080060 S    
C23   H23   1.078908 S    
C28   N28   1.330846 A    
N8    Ni8   1.862674 S    
N14   N22   1.378231 A    
C22   H22   1.071826 S    
C71   H47   1.080104 S    
C18   N18   1.330366 A    
C28   H28   1.079899 S    
C63   C64   1.505940 S    
C1    N1    1.333372 A    
C42   C94   1.447130 S    
C30   H30   1.071702 S    
C1    C33   1.390260 A    
C23   C47   1.393649 A    
C66   C86   1.401290 A    
N36   O7    1.300681 A    
C79   H51   1.080318 S    
C11   N11   1.333461 A    
C15   H15   1.077403 S    
N1    N29   1.385207 A    
N13   N21   1.378228 A    
N25   Ni6   1.856309 S    
N14   Ni5   1.854686 S    
C69   C73   1.401587 A    
C38   C86   1.455642 S    
N27   Ni8   1.856309 S    
C50   C54   1.400289 A    
C75   C79   1.401856 A    
C50   C61   1.493978 S    
C49   C53   1.400204 A    
C21   H21   1.076025 S    
C100  H64   1.080137 S    
C62   H38   1.111666 S    
C57   N33   1.441565 S    
C84   H56   1.080315 S    
C51   C55   1.396562 A    
N35   O5    1.301323 A    
C22   C46   1.381310 A    
C58   N34   1.428234 S    
C11   C43   1.390766 A    
N31   Ni4   1.862553 S    
C8    H8    1.079983 S    
C84   C88   1.401831 A    
N23   Ni3   1.854683 S    
N11   Ni4   1.856848 S    
C15   C47   1.380973 A    
C89   H57   1.080819 S    
N15   N23   1.378228 A    
C49   C50   1.375111 A    
C32   C36   1.384513 A    
C91   H59   1.080241 S    
C46   C54   1.465227 S    
N3    N31   1.385207 A    
C76   C80   1.401378 A    
C45   C53   1.457833 S    
N15   Ni8   1.862796 S    
N35   O6    1.300393 A    
C23   N23   1.340376 A    
C78   H50   1.080616 S    
C60   N36   1.434229 S    
C29   H29   1.078340 S    
C4    C36   1.386431 A    
C11   H11   1.078150 S    
C47   C55   1.458542 S    
C61   C62   1.503220 S    
C39   C87   1.454015 S    
C44   C96   1.460320 S    
C13   N13   1.325734 A    
C59   C60   1.422890 A    
C2    N2    1.335247 A    
C24   H24   1.078636 S    
C18   C42   1.378854 A    
C34   C73   1.456588 S    
N3    Ni3   1.857026 S    
N17   Ni5   1.856971 S    
C57   C58   1.410263 A    
C80   H52   1.080385 S    
C67   C87   1.402204 A    
C16   N16   1.323041 A    
N6    Ni6   1.862674 S    
N19   Ni7   1.856971 S    
C41   C93   1.448655 S    
C52   C63   1.497123 S    
C40   C88   1.461210 S    
C83   C87   1.398614 A    
C13   C45   1.370322 A    
C70   C74   1.401131 A    
C17   C41   1.377182 A    
C68   H44   1.080108 S    
N5    N25   1.385205 A    
N12   N20   1.377991 A    
C62   H34   1.111004 S    
C83   H55   1.080545 S    
C66   H42   1.080383 S    
C72   H48   1.080364 S    
C5    H5    1.078215 S    
C77   C83   1.378920 A    
N24   Ni4   1.862797 S    
C61   H37   1.112767 S    
N26   Ni5   1.855840 S    
C78   C84   1.383956 A    
C79   C81   1.383992 A    
C51   C64   1.501736 S    
C92   H60   1.080581 S    
C63   H35   1.112419 S    
C71   C75   1.402787 A    
C6    N6    1.334749 A    
N8    N28   1.385210 A    
N1    Ni1   1.857026 S    
C91   C92   1.383293 A    
C64   H40   1.112496 S    
N34   O4    1.301105 A    
C5    N5    1.333732 A    
C72   C76   1.400990 A    
C59   N35   1.436759 S    
C68   C88   1.402658 A    
C27   N27   1.331194 A    
C89   C90   1.378020 A    
C94   C98   1.400901 A    
C27   H27   1.080063 S    
C2    C34   1.386856 A    
C12   C44   1.384872 A    
N28   Ni7   1.855840 S    
C17   H17   1.080017 S    
C7    N7    1.332767 A    
C63   H39   1.111777 S    
C73   C77   1.397224 A    
N20   Ni8   1.857565 S    
C36   C75   1.461441 S    
C19   H19   1.078257 S    
N29   Ni2   1.862553 S    
C24   N24   1.338444 A    
C26   C38   1.382149 A    
C69   H45   1.080716 S    
C97   C98   1.377951 A    
C67   C69   1.382167 A    
C37   C85   1.461499 S    
C55   C59   1.417073 A    
C14   N14   1.330104 A    
C24   C48   1.387546 A    
C29   C33   1.391690 A    
C35   C76   1.455163 S    
C65   C71   1.383734 A    
C14   H14   1.073737 S    
C53   C57   1.406374 A    
C16   H16   1.080916 S    
C19   N19   1.332908 A    
C12   N12   1.331113 A    
C19   C43   1.390028 A    
C33   C74   1.461495 S    
C26   H26   1.072758 S    
C9    N9    1.330160 A    
N10   N18   1.377991 A    
C25   H25   1.078919 S    
N4    N32   1.385209 A    
C20   C44   1.385697 A    
C90   H58   1.080606 S    
C66   C72   1.380753 A    
C7    C39   1.381293 A    
N12   Ni3   1.856252 S    
C5    C37   1.390855 A    
C65   H41   1.080820 S    
C20   H20   1.080001 S    
C48   C56   1.460069 S    
N4    Ni4   1.857503 S    
C10   H10   1.074282 S    
