data_mof_unit_56405.cif
_audit_creation_date              2012-10-26T19:02:57-0400
_audit_creation_method            fapswitch 2.2
_symmetry_space_group_name_H-M    P1
_symmetry_Int_Tables_number       1
_space_group_crystal_system       triclinic
_cell_length_a                    15.071261
_cell_length_b                    11.050207
_cell_length_c                    9.886342
_cell_angle_alpha                 110.82588
_cell_angle_beta                  100.758434
_cell_angle_gamma                 90.943923
_cell_volume                      1505.69011176

loop_
_atom_site_label
_atom_site_type_symbol
_atom_type_description
_atom_site_fract_x
_atom_site_fract_y
_atom_site_fract_z
_atom_type_partial_charge
C1    C     C_R   0.493326 0.254166 0.440752 0.581019
C2    C     C_2   0.498001 0.483227 0.916856 -0.002868
C3    C     C_R   0.328399 0.496913 0.497197 0.569087
C4    C     C_R   0.672300 0.500168 0.502777 0.566130
C5    C     C_R   0.834642 0.576166 0.638478 0.251282
C6    C     C_R   0.169865 0.391345 0.396803 0.195373
C7    C     C_R   0.771248 0.495083 0.510844 -0.030314
C8    C     C_R   0.231071 0.497747 0.494973 -0.033428
C9    C     C_R   0.804496 0.403625 0.394173 -0.034099
C10   C     C_R   0.201190 0.601838 0.602297 -0.024522
C11   C     C_R   0.897428 0.381434 0.417851 -0.033886
C12   C     C_R   0.506503 0.745824 0.559237 0.567810
C13   C     C_R   0.111178 0.594905 0.621751 -0.024435
C14   C     C_R   0.957957 0.485494 0.524157 -0.068751
C15   C     C_R   0.050821 0.486879 0.523751 -0.063582
C16   C     C_R   0.924911 0.590875 0.625190 -0.021008
C17   C     C_R   0.082855 0.378946 0.425393 -0.023061
C18   C     C_R   0.932910 0.260740 0.347594 0.255558
C19   C     C_R   0.078168 0.693351 0.732480 0.243536
C20   C     C_1   0.746273 0.345368 0.248933 0.334612
C21   C     C_1   0.258368 0.723948 0.668360 0.303019
C22   C     C_1   0.579408 0.676733 0.959258 0.419681
C23   C     C_R   0.028795 0.259205 0.368099 0.271131
C24   C     C_1   0.407637 0.332405 0.041382 0.430878
C25   C     C_R   0.984479 0.701618 0.717087 0.267413
C26   C     C_2   0.489412 0.115030 0.407334 -0.060986
C27   C     C_2   0.509764 0.884930 0.592597 -0.074182
C28   C     C_2   0.500740 0.069464 0.516649 -0.118504
C29   C     C_2   0.497431 0.930447 0.483218 -0.125586
C30   C     C_2   0.505670 0.511741 0.082056 -0.015123
Cu1   Cu    Cu3+1 0.515770 0.521810 0.644910 1.089694
Cu2   Cu    Cu3+1 0.484230 0.478190 0.355090 1.067101
H1    H     H_    0.484982 0.864989 0.368094 0.160748
H2    H     H_    0.274940 0.754200 0.037784 0.370370
H3    H     H_    0.059431 0.976013 0.475197 0.392999
H4    H     H_    0.993961 0.048050 0.782997 0.407905
H5    H     H_    0.512807 0.134907 0.631750 0.163654
H6    H     H_    0.522236 0.950665 0.707535 0.134475
H7    H     H_    0.477295 0.049309 0.292414 0.136337
H8    H     H_    0.456323 0.397187 0.838317 0.145867
H9    H     H_    0.552171 0.592740 0.160282 0.151919
H10   H     H_    0.767937 0.813397 0.945210 0.392399
H11   H     H_    0.172176 0.449264 0.135077 0.352714
H12   H     H_    0.768963 0.049475 0.030074 0.373826
N1    N     N_2   0.460520 0.445420 0.137370 -0.272782
N2    N     N_2   0.539480 0.554580 0.862630 -0.255112
N3    N     N_1   0.698915 0.300918 0.133380 -0.220477
N4    N     N_1   0.304336 0.820764 0.719628 -0.209994
N5    N     N_1   0.612064 0.778442 0.040006 -0.277331
N6    N     N_1   0.363791 0.238257 0.961678 -0.193035
O1    O     O_R   0.508410 0.332340 0.577400 -0.518342
O2    O     O_2   0.897035 0.670572 0.936373 -0.210592
O3    O     O_3   0.744928 0.752157 0.842630 -0.478194
O4    O     O_2   0.269466 0.213601 0.241756 -0.191555
O5    O     O_2   0.111501 0.208053 0.119353 -0.190795
O6    O     O_3   0.223239 0.394452 0.138889 -0.481964
O7    O     O_2   0.902233 0.991740 0.237210 -0.136858
O8    O     O_2   0.777660 0.116826 0.314018 -0.290876
O9    O     O_3   0.825084 0.109370 0.071079 -0.469277
O10   O     O_2   0.174668 0.913195 0.928591 -0.157068
O11   O     O_2   0.093266 0.779590 0.025929 -0.169559
O12   O     O_R   0.491590 0.667660 0.422600 -0.522894
O13   O     O_3   0.239797 0.698730 0.938943 -0.536649
O14   O     O_2   0.078944 0.020246 0.231305 -0.107773
O15   O     O_2   0.180934 0.157652 0.460463 -0.260545
O16   O     O_3   0.030987 0.057558 0.481779 -0.451542
O17   O     O_2   0.851438 0.857525 0.687669 -0.251723
O18   O     O_2   0.944967 0.909456 0.935957 -0.119924
O19   O     O_3   0.015738 0.961016 0.741425 -0.463154
O20   O     O_R   0.481780 0.295500 0.332650 -0.477583
O21   O     O_R   0.518220 0.704500 0.667350 -0.481770
O22   O     O_R   0.383570 0.518390 0.622380 -0.508313
O23   O     O_R   0.616430 0.481610 0.377620 -0.522203
O24   O     O_R   0.356940 0.481550 0.377630 -0.438023
O25   O     O_R   0.643060 0.518450 0.622370 -0.414305
O26   O     O_2   0.763127 0.518065 0.842002 -0.238237
S1    S     S_3+6 0.810946 0.628228 0.820411 0.097328
S2    S     S_3+6 0.193025 0.295116 0.221037 0.105090
S3    S     S_3+6 0.858910 0.114607 0.245241 0.097932
S4    S     S_3+6 0.146926 0.776352 0.911248 0.106915
S5    S     S_3+6 0.083265 0.120693 0.382441 0.139226
S6    S     S_3+6 0.945274 0.859569 0.773654 0.129753

loop_
_geom_bond_atom_site_label_1
_geom_bond_atom_site_label_2
_ccdc_geom_bond_type
C11   C18   A    
C27   C29   D    
Cu2   N1    S    
O7    S3    D    
C30   N1    D    
C2    N2    D    
C17   C23   A    
C24   N1    S    
C28   C29   S    
H10   O3    S    
Cu2   O24   S    
C11   C14   A    
C26   H7    S    
C6    S2    S    
H12   O9    S    
C29   H1    S    
O6    S2    S    
C15   C17   A    
C3    O24   A    
C4    O25   A    
O19   S6    S    
Cu1   O25   S    
C18   S3    S    
C5    C16   A    
Cu1   N2    S    
C30   H9    S    
C9    C11   A    
C21   N4    T    
Cu1   O21   S    
C4    C7    S    
O13   S4    S    
C10   C21   S    
C24   N6    T    
C13   C19   A    
C12   C27   S    
C18   C23   A    
O26   S1    D    
C3    C8    S    
O9    S3    S    
Cu2   O23   S    
C5    C7    A    
O5    S2    D    
Cu2   O20   S    
H3    O16   S    
O3    S1    S    
C12   O12   A    
C9    C20   S    
O15   S5    D    
Cu1   Cu2   S    
C1    O1    A    
C4    O23   A    
O8    S3    D    
C22   N5    T    
Cu1   O22   S    
C22   N2    S    
C12   O21   A    
C13   C15   A    
C25   S6    S    
C14   C16   A    
C5    S1    S    
O2    S1    D    
H4    O19   S    
C16   C25   A    
C7    C9    A    
C6    C17   A    
O10   S4    D    
C23   S5    S    
Cu1   O1    S    
C10   C13   A    
C6    C8    A    
C26   C28   D    
C1    O20   A    
C2    C30   S    
O18   S6    D    
C3    O22   A    
Cu2   O12   S    
O16   S5    S    
C1    C26   S    
C28   H5    S    
H2    O13   S    
C19   S4    S    
C19   C25   A    
O14   S5    D    
C20   N3    T    
C2    H8    S    
H11   O6    S    
O17   S6    D    
C8    C10   A    
C14   C15   A    
C27   H6    S    
O11   S4    D    
O4    S2    D    
