data_mof_unit_44191.cif
_audit_creation_date              2013-03-05T15:47:36-0500
_audit_creation_method            fapswitch 2.2
_symmetry_space_group_name_H-M    P1
_symmetry_Int_Tables_number       1
_space_group_crystal_system       triclinic
_cell_length_a                    10.780908
_cell_length_b                    13.062865
_cell_length_c                    11.663753
_cell_angle_alpha                 99.302156
_cell_angle_beta                  93.646734
_cell_angle_gamma                 90.391921
_cell_volume                      1617.47352213

loop_
_atom_site_label
_atom_site_type_symbol
_atom_site_description
_atom_site_fract_x
_atom_site_fract_y
_atom_site_fract_z
_atom_type_partial_charge
O1    O     O_R   0.506570 0.354460 0.582000 -0.542407
O2    O     O_R   0.490940 0.341410 0.386200 -0.592289
C1    C     C_R   0.498321 0.299078 0.479692 0.802267
O3    O     O_R   0.327470 0.506530 0.597920 -0.594902
O4    O     O_R   0.311840 0.493480 0.402120 -0.584063
C2    C     C_R   0.262442 0.496378 0.500097 0.786983
Cu1   Cu    Cu3+1 0.509250 0.507730 0.615930 0.969089
Cu2   Cu    Cu3+1 0.490750 0.492270 0.384070 0.942194
O5    O     O_R   0.509060 0.658590 0.613800 -0.592757
O6    O     O_R   0.493430 0.645540 0.418000 -0.593438
O7    O     O_R   0.688160 0.506520 0.597880 -0.587370
O8    O     O_R   0.672530 0.493470 0.402080 -0.580222
C3    C     C_R   0.501902 0.700511 0.520892 0.809341
C4    C     C_R   0.737411 0.495977 0.499181 0.783184
H1    H     H_    0.106444 0.610581 0.394400 0.152591
C5    C     C_R   0.135490 0.341956 0.609614 -0.181005
H2    H     H_    0.235410 0.336735 0.608881 0.161452
C6    C     C_R   0.073572 0.270144 0.662868 -0.137804
H3    H     H_    0.125900 0.213698 0.703597 0.172036
C7    C     C_R   0.944497 0.269601 0.661887 -0.123457
H4    H     H_    0.896658 0.212710 0.701819 0.168222
C8    C     C_R   0.876544 0.340896 0.607696 -0.153948
H5    H     H_    0.776385 0.334944 0.605569 0.175863
C9    C     C_R   0.937409 0.415879 0.555114 0.082424
C10   C     C_R   0.068680 0.416458 0.556173 0.087439
C11   C     C_R   0.128688 0.489306 0.499846 -0.095077
C12   C     C_R   0.060239 0.556043 0.439113 -0.194748
H6    H     H_    0.880911 0.609694 0.392807 0.144853
C13   C     C_R   0.932274 0.555426 0.438001 -0.200679
C14   C     C_R   0.870858 0.488117 0.497698 -0.092894
C15   C     C_R   0.502995 0.813051 0.533274 -0.047712
C16   C     C_R   0.498202 0.185746 0.470512 -0.175227
C17   C     C_R   0.492862 0.017052 0.347756 -0.209000
C18   C     C_R   0.493322 0.124484 0.359653 -0.232492
C19   C     C_R   0.502608 0.137652 0.571245 0.280850
C20   C     C_R   0.503244 0.029339 0.559050 0.065222
C21   C     C_R   0.497866 0.969052 0.446541 0.123082
C22   C     C_R   0.497566 0.861281 0.434403 -0.240841
C23   C     C_R   0.509536 0.872794 0.644620 -0.220391
C24   C     C_R   0.509770 0.979905 0.657537 -0.147030
H7    H     H_    0.493108 0.815194 0.348059 0.149449
H8    H     H_    0.514349 0.836902 0.722233 0.162403
H9    H     H_    0.488834 0.971480 0.261216 0.147305
H10   H     H_    0.515382 0.023185 0.745096 0.195545
H11   H     H_    0.489701 0.159596 0.281521 0.183206
N1    N     N_R   0.523180 0.519350 0.790130 -0.189710
N2    N     N_R   0.476820 0.480650 0.209890 -0.182938
C25   C     C_R   0.378726 0.406166 0.023194 -0.292971
C26   C     C_R   0.391063 0.414425 0.145156 0.084326
C27   C     C_R   0.552904 0.540000 0.156288 0.034534
C28   C     C_R   0.544165 0.533992 0.033667 0.057543
C29   C     C_R   0.455566 0.466330 0.966392 0.064504
C30   C     C_R   0.446367 0.460770 0.843864 0.116176
C31   C     C_R   0.609371 0.585185 0.854765 0.092610
C32   C     C_R   0.621328 0.593829 0.976767 -0.330383
H12   H     H_    0.377811 0.409770 0.791327 0.149571
H13   H     H_    0.669390 0.631416 0.811679 0.128492
H14   H     H_    0.309725 0.353164 0.973843 0.161534
H15   H     H_    0.690463 0.646728 0.026040 0.139053
H16   H     H_    0.331468 0.367780 0.188162 0.130465
H17   H     H_    0.620322 0.592189 0.209026 0.117064
N3    N     N_R   0.504802 0.197640 0.685800 0.110959
O9    O     O_R   0.610565 0.229670 0.740117 -0.384917
O10   O     O_R   0.404217 0.204980 0.742342 -0.431160

loop_
_geom_bond_atom_site_label_1
_geom_bond_atom_site_label_2
_geom_bond_distance
_ccdc_geom_bond_type
O4    Cu2   1.953429 S    
C16   C19   1.417506 A    
C25   H14   1.083384 S    
C21   C22   1.391900 A    
C5    C10   1.415289 A    
C32   H15   1.083235 S    
C12   C13   1.378768 A    
C31   C32   1.406712 A    
H1    C12   1.084427 S    
C19   C20   1.399061 A    
C15   C23   1.400220 A    
C15   C22   1.398935 A    
C24   H10   1.082262 S    
C17   C21   1.396340 A    
Cu2   O8    1.957333 S    
N1    C31   1.364458 A    
N3    O9    1.300936 A    
C17   C18   1.387659 A    
Cu2   N2    2.008518 S    
Cu1   Cu2   2.673647 S    
N2    C26   1.364670 A    
C18   H11   1.083152 S    
C2    C11   1.444099 S    
C29   C30   1.416276 A    
C9    C10   1.414450 A    
Cu1   O7    1.953430 S    
C11   C12   1.395810 A    
C13   C14   1.394602 A    
C26   H16   1.081719 S    
C20   C21   1.414646 A    
C4    C14   1.444047 S    
O3    Cu1   1.957334 S    
O4    C2    1.286356 A    
O6    C3    1.292598 A    
N1    C30   1.369873 A    
O3    C2    1.288006 A    
C25   C26   1.406796 A    
O8    C4    1.288389 A    
C19   N3    1.434277 S    
O2    C1    1.298357 A    
N2    C27   1.370402 A    
C6    C7    1.390829 A    
O1    Cu1   1.976777 S    
C1    C16   1.466934 S    
O7    C4    1.285951 A    
C8    C9    1.415184 A    
C9    C14   1.416380 A    
C28   C29   1.406482 A    
C17   H9    1.083951 S    
Cu1   N1    2.008750 S    
C20   C24   1.404161 A    
C25   C29   1.404313 A    
C7    H4    1.082781 S    
C22   H7    1.084637 S    
Cu2   O6    1.976777 S    
C6    H3    1.082801 S    
C30   H12   1.081320 S    
C23   C24   1.382799 A    
Cu1   O5    1.974844 S    
C27   H17   1.082679 S    
O5    C3    1.289157 A    
C23   H8    1.083316 S    
H6    C13   1.084468 S    
N3    O10   1.300762 A    
C28   C32   1.404449 A    
C27   C28   1.416697 A    
C10   C11   1.415445 A    
C8    H5    1.080492 S    
C3    C15   1.453644 S    
C5    C6    1.394243 A    
O2    Cu2   1.974844 S    
C7    C8    1.394379 A    
C5    H2    1.080342 S    
O1    C1    1.289097 A    
C31   H13   1.081689 S    
C16   C18   1.404051 A    
