data_mof_unit_65758.cif
_audit_creation_date              2012-10-26T17:48:02-0400
_audit_creation_method            fapswitch 2.2
_symmetry_space_group_name_H-M    P1
_symmetry_Int_Tables_number       1
_space_group_crystal_system       triclinic
_cell_length_a                    19.100908
_cell_length_b                    18.801755
_cell_length_c                    19.184247
_cell_angle_alpha                 109.522381
_cell_angle_beta                  110.66804
_cell_angle_gamma                 109.005588
_cell_volume                      5250.9552872

loop_
_atom_site_label
_atom_site_type_symbol
_atom_type_description
_atom_site_fract_x
_atom_site_fract_y
_atom_site_fract_z
_atom_type_partial_charge
C1    C     C_R   0.383583 0.381337 0.499957 0.531668
C2    C     C_2   0.182256 0.509334 0.186669 -0.128684
C3    C     C_2   0.238444 0.493124 0.314240 -0.029078
C4    C     C_R   0.615037 0.496732 0.618602 0.548643
C5    C     C_2   0.307177 0.490152 0.311218 -0.092474
C6    C     C_2   0.731976 0.760861 0.430370 -0.018018
C7    C     C_2   0.818444 0.798114 0.480318 -0.104237
C8    C     C_2   0.676603 0.683337 0.428138 -0.004990
C9    C     C_2   0.679914 0.689934 0.502227 0.000813
C10   C     C_R   0.991779 0.381762 0.874878 0.572852
C11   C     C_R   0.875347 0.498471 0.874129 0.591540
C12   C     C_3   0.805811 0.496634 0.805464 0.078511
C13   C     C_R   0.996354 0.618465 0.112730 0.549155
C14   C     C_R   0.113309 0.502032 0.114602 0.556326
C15   C     C_R   0.996156 0.114544 0.616366 0.583800
C16   C     C_R   0.616939 0.618606 0.500558 0.567942
C17   C     C_R   0.117112 0.120728 0.503266 0.547975
C18   C     C_R   0.999421 0.881110 0.383319 0.558887
C19   C     C_R   0.882684 0.878228 0.495086 0.555026
C20   C     C_2   0.917669 0.177950 0.668917 0.221505
C21   C     C_2   0.989212 0.171818 0.683820 -0.058431
C22   C     C_2   0.915966 0.234247 0.743475 -0.045125
C23   C     C_3   0.843194 0.545984 0.764712 -0.275774
C24   C     C_2   0.984797 0.315722 0.801149 -0.114598
C25   C     C_2   0.011660 0.751245 0.322667 -0.159853
C26   C     C_2   0.993634 0.811972 0.314056 -0.110180
C27   C     C_2   0.997486 0.678358 0.247930 -0.157114
C28   C     C_R   0.378717 0.497146 0.380712 0.556762
C29   C     C_2   0.006233 0.688336 0.184874 -0.113415
C30   C     C_3   0.664438 0.399316 0.658099 -0.061546
C31   C     C_3   0.731950 0.399391 0.734027 0.458230
C32   C     C_3   0.771346 0.547287 0.695880 -0.162921
C33   C     C_3   0.690342 0.540338 0.777405 -0.101725
C34   C     C_3   0.767367 0.545731 0.847533 -0.223196
C35   C     C_3   0.682010 0.495510 0.686709 0.046002
C36   C     C_3   0.797826 0.641726 0.715124 -0.416082
C37   C     C_3   0.227962 0.502021 0.390605 -0.361459
C38   C     C_3   0.569734 0.327540 0.616948 -0.385367
C39   C     C_3   0.688324 0.796964 0.381305 -0.358033
C40   C     C_3   0.612358 0.601290 0.340470 -0.371909
C41   C     C_3   0.739676 0.775982 0.588317 -0.406329
C42   C     C_3   0.837324 0.198493 0.750793 -0.364011
C43   C     C_3   0.607389 0.499176 0.779716 -0.410910
C44   C     C_2   0.263432 0.244683 0.571979 -0.121326
C45   C     C_2   0.180094 0.194579 0.508503 -0.063762
C46   C     C_2   0.323434 0.317321 0.571234 -0.102041
C47   C     C_2   0.319870 0.309685 0.497578 0.222030
C48   C     C_2   0.167351 0.480811 0.238207 -0.141881
Cu1   Cu    Cu3+1 0.500730 0.439000 0.439690 0.908771
Cu2   Cu    Cu3+1 0.499270 0.561000 0.560310 0.897370
Cu3   Cu    Cu3+1 0.933160 0.439090 0.994150 0.952090
Cu4   Cu    Cu3+1 0.055180 0.561040 0.994050 0.929268
Cu5   Cu    Cu3+1 0.061740 0.000000 0.561740 0.933067
Cu6   Cu    Cu3+1 0.938260 1.000000 0.438260 0.967747
H1    H     H_    0.676348 0.379172 0.603773 0.117503
H2    H     H_    0.843988 0.766306 0.511741 0.093476
H3    H     H_    0.042824 0.205189 0.749896 0.048399
H4    H     H_    0.037224 0.338224 0.789274 0.084850
H5    H     H_    0.031311 0.751491 0.383270 0.143449
H6    H     H_    0.965021 0.806217 0.251035 0.107714
H7    H     H_    0.983589 0.617082 0.246913 0.142906
H8    H     H_    0.029837 0.752079 0.190457 0.108300
H9    H     H_    0.766583 0.513110 0.633001 0.139311
H10   H     H_    0.874133 0.515641 0.735247 0.109019
H11   H     H_    0.705325 0.608405 0.795384 0.152408
H12   H     H_    0.818173 0.615548 0.894861 0.082203
H13   H     H_    0.748079 0.519469 0.885955 0.168551
H14   H     H_    0.858229 0.670313 0.714326 0.128258
H15   H     H_    0.747577 0.643234 0.665093 0.158734
H16   H     H_    0.810485 0.684080 0.779651 0.131879
H17   H     H_    0.265347 0.237043 0.372936 0.334646
H18   H     H_    0.164154 0.495647 0.377737 0.113447
H19   H     H_    0.232337 0.450256 0.404416 0.142195
H20   H     H_    0.278767 0.567284 0.448329 0.159708
H21   H     H_    0.546518 0.334454 0.662566 0.147807
H22   H     H_    0.524171 0.325905 0.560516 0.157870
H23   H     H_    0.895908 0.613888 0.816678 0.152210
H24   H     H_    0.564933 0.262579 0.592603 0.139986
H25   H     H_    0.616810 0.757976 0.348994 0.119674
H26   H     H_    0.708796 0.864977 0.426433 0.165797
H27   H     H_    0.704151 0.794618 0.330472 0.149109
H28   H     H_    0.617106 0.611791 0.288284 0.121481
H29   H     H_    0.626155 0.547929 0.338496 0.153810
H30   H     H_    0.545215 0.581358 0.326461 0.139880
H31   H     H_    0.725941 0.773492 0.639294 0.144744
H32   H     H_    0.807971 0.792056 0.613819 0.115080
H33   H     H_    0.732387 0.829664 0.580785 0.145552
H34   H     H_    0.287341 0.234632 0.626219 0.129485
H35   H     H_    0.803957 0.149432 0.586557 0.329134
H36   H     H_    0.788323 0.130687 0.696590 0.129605
H37   H     H_    0.856107 0.196232 0.811422 0.148537
H38   H     H_    0.806835 0.239578 0.749758 0.199099
H39   H     H_    0.664096 0.298115 0.737890 0.347991
H40   H     H_    0.792827 0.372367 0.673437 0.294641
H41   H     H_    0.610999 0.548434 0.834880 0.118751
H42   H     H_    0.548269 0.477255 0.719876 0.151020
H43   H     H_    0.600415 0.443371 0.790167 0.169557
H44   H     H_    0.154993 0.211256 0.459734 0.159992
H45   H     H_    0.374494 0.376022 0.632899 0.082200
H46   H     H_    0.102386 0.452214 0.227389 0.146615
H47   H     H_    0.247932 0.544938 0.201290 0.104201
H48   H     H_    0.307200 0.473209 0.251271 0.086774
O1    O     O_R   0.411600 0.359460 0.449080 -0.510869
O2    O     O_R   0.946790 0.089000 0.535860 -0.441748
O3    O     O_R   0.141150 0.089030 0.552120 -0.504054
O4    O     O_R   0.410370 0.462480 0.550940 -0.530359
O5    O     O_R   0.036880 0.089030 0.447850 -0.513744
O6    O     O_R   0.053210 0.911000 0.464140 -0.502336
O7    O     O_R   0.948930 0.911000 0.359870 -0.513329
O8    O     O_R   0.963120 0.910970 0.552150 -0.516475
O9    O     O_R   0.858850 0.910970 0.447880 -0.506567
O10   O     O_R   0.590700 0.448490 0.539150 -0.525026
O11   O     O_R   0.589460 0.551510 0.641010 -0.519295
O12   O     O_R   0.046690 0.462500 0.906070 -0.509824
O13   O     O_R   0.589630 0.537520 0.449060 -0.513602
O14   O     O_R   0.588400 0.640540 0.550920 -0.509957
O15   O     O_R   0.410540 0.448490 0.358990 -0.510752
O16   O     O_R   0.409300 0.551510 0.460850 -0.502150
O17   O     O_R   0.943650 0.359510 0.906150 -0.504501
O18   O     O_3   0.264231 0.229665 0.421407 -0.715311
O19   O     O_3   0.846160 0.129836 0.586040 -0.676005
O20   O     O_3   0.691137 0.362547 0.771819 -0.681268
O21   O     O_3   0.767266 0.349466 0.703401 -0.727752
O22   O     O_R   0.852560 0.448570 0.904070 -0.451356
O23   O     O_R   0.955610 0.551560 0.903980 -0.537045
O24   O     O_R   0.941640 0.537630 0.082140 -0.511101
O25   O     O_R   0.044680 0.640620 0.082050 -0.508868
O26   O     O_R   0.032730 0.448570 0.084230 -0.511603
O27   O     O_R   0.135770 0.551560 0.084140 -0.506130
O28   O     O_R   0.051070 0.089000 0.640130 -0.528038

loop_
_geom_bond_atom_site_label_1
_geom_bond_atom_site_label_2
_ccdc_geom_bond_type
Cu5   O8    S    
C46   H45   S    
C27   C29   D    
C40   H30   S    
C11   O22   A    
C18   C26   S    
C18   O7    A    
C37   H20   S    
C34   H12   S    
C5    H48   S    
C33   H11   S    
C38   H22   S    
Cu5   Cu6   S    
C36   H15   S    
C41   H32   S    
C12   C23   S    
C30   C35   S    
Cu3   O26   S    
C32   C36   S    
Cu6   O2    S    
C11   O23   A    
C9    C16   S    
C17   C45   S    
C28   O15   A    
C17   O5    A    
C30   C31   S    
C3    C48   S    
C14   O26   A    
C30   C38   S    
C42   H37   S    
C10   O17   A    
C27   H7    S    
C29   H8    S    
Cu1   O15   S    
C44   C46   S    
C8    C9    D    
Cu3   O17   S    
C15   O2    A    
C1    O1    A    
C42   H38   S    
C10   O12   A    
C1    O4    A    
H40   O21   S    
C4    O10   A    
C4    C35   S    
Cu3   O22   S    
C40   H29   S    
C7    H2    S    
C41   H33   S    
C16   O14   A    
Cu4   O25   S    
C36   H16   S    
C33   C34   S    
C38   H21   S    
C48   H46   S    
Cu3   Cu4   S    
C33   C43   S    
C32   C35   S    
C40   H28   S    
C4    O11   A    
H39   O20   S    
C39   H27   S    
C1    C47   S    
C6    C8    S    
C38   H24   S    
C2    H47   S    
C10   C24   S    
C25   C26   D    
Cu6   O7    S    
C42   H36   S    
C39   H25   S    
C21   H3    S    
C17   O3    A    
C5    C28   S    
C19   O9    A    
C43   H41   S    
C11   C12   S    
C43   H42   S    
C23   H23   S    
C20   O19   S    
Cu1   O10   S    
C13   O24   A    
Cu6   O5    S    
C47   O18   S    
Cu1   O13   S    
C20   C22   S    
C7    C19   S    
C12   C31   S    
C22   C24   D    
C25   C27   S    
Cu4   O27   S    
C12   C34   S    
C16   O13   A    
C8    C40   S    
C44   C45   D    
C19   O8    A    
C13   C29   S    
C37   H19   S    
C46   C47   D    
C23   H10   S    
Cu2   O16   S    
Cu3   O24   S    
C43   H43   S    
C31   O20   S    
C3    C5    D    
C34   H13   S    
Cu1   O1    S    
Cu4   O23   S    
C36   H14   S    
C6    C7    D    
Cu4   O12   S    
C32   H9    S    
C41   H31   S    
C30   H1    S    
C9    C41   S    
C45   H44   S    
Cu2   O11   S    
C2    C48   D    
C39   H26   S    
C31   O21   S    
C28   O16   A    
C23   C32   S    
Cu5   O6    S    
C22   C42   S    
C15   O28   A    
H35   O19   S    
C33   C35   S    
Cu6   O9    S    
Cu2   O14   S    
C2    C14   S    
C18   O6    A    
H17   O18   S    
C13   O25   A    
Cu5   O3    S    
C15   C21   S    
C20   C21   D    
C3    C37   S    
C24   H4    S    
Cu1   Cu2   S    
C37   H18   S    
Cu2   O4    S    
C6    C39   S    
Cu5   O28   S    
C25   H5    S    
C44   H34   S    
C26   H6    S    
C14   O27   A    
