data_mof_unit_58420.cif
_audit_creation_date              2013-03-05T15:56:23-0500
_audit_creation_method            fapswitch 2.2
_symmetry_space_group_name_H-M    P1
_symmetry_Int_Tables_number       1
_space_group_crystal_system       triclinic
_cell_length_a                    12.294533
_cell_length_b                    13.206231
_cell_length_c                    23.41162
_cell_angle_alpha                 77.07388
_cell_angle_beta                  100.796232
_cell_angle_gamma                 115.954291
_cell_volume                      3313.84200843

loop_
_atom_site_label
_atom_site_type_symbol
_atom_site_description
_atom_site_fract_x
_atom_site_fract_y
_atom_site_fract_z
_atom_type_partial_charge
O1    O     O_R   0.972510 0.318130 0.516820 -0.528756
O2    O     O_R   0.806530 0.359650 0.494230 -0.615216
C1    C     C_R   0.855349 0.286407 0.504601 0.818506
O3    O     O_R   0.082990 0.479200 0.593420 -0.562126
O4    O     O_R   0.917010 0.520720 0.570830 -0.613332
C2    C     C_R   0.000508 0.501437 0.608660 0.786886
Cu1   Cu    Cu3+1 0.098270 0.475410 0.513370 1.017657
Cu2   Cu    Cu3+1 0.901730 0.524590 0.486630 0.912696
O5    O     O_R   0.193470 0.640350 0.505770 -0.514469
O6    O     O_R   0.027490 0.681870 0.483180 -0.609679
O7    O     O_R   0.082990 0.479280 0.429170 -0.585343
O8    O     O_R   0.917010 0.520800 0.406580 -0.593361
C3    C     C_R   0.144962 0.713138 0.495309 0.826561
C4    C     C_R   0.002160 0.502406 0.390844 0.792733
C5    C     C_R   0.028720 0.631297 0.106133 0.526771
N1    N     N_R   0.038243 0.541635 0.146192 -0.466900
C6    C     C_R   0.054438 0.457116 0.128875 0.535420
C7    C     C_R   0.061690 0.460643 0.069321 -0.029316
C8    C     C_R   0.049778 0.550704 0.027432 -0.018174
C9    C     C_R   0.033359 0.637221 0.045901 -0.004828
C10   C     C_R   0.077559 0.374533 0.050975 -0.209306
C11   C     C_R   0.080244 0.375519 0.991382 -0.018176
C12   C     C_R   0.069329 0.466780 0.948462 -0.063874
C13   C     C_R   0.052793 0.553662 0.966995 -0.029828
C14   C     C_R   0.037661 0.643126 0.925184 0.003284
C15   C     C_R   0.022628 0.729473 0.944181 -0.185389
C16   C     C_R   0.021045 0.726839 0.003885 -0.177909
C17   C     C_R   0.073413 0.474875 0.887630 0.525763
N2    N     N_R   0.049847 0.557780 0.847631 -0.457191
C18   C     C_R   0.034312 0.642214 0.865096 0.521285
O9    O     O_2   0.015311 0.714613 0.124533 -0.543890
O10   O     O_2   0.061610 0.368823 0.169122 -0.542838
H1    H     H_    0.085023 0.303938 0.083008 0.190959
O11   O     O_2   0.101502 0.401534 0.868025 -0.530380
O12   O     O_2   0.013410 0.723637 0.824412 -0.568543
H2    H     H_    0.011130 0.799009 0.912914 0.175890
H3    H     H_    0.008671 0.794536 0.016894 0.183414
C19   C     C_R   0.112932 0.630877 0.747067 -0.106148
H4    H     H_    0.186932 0.705415 0.762050 0.139301
C20   C     C_R   0.100764 0.614408 0.688957 -0.230277
H5    H     H_    0.164042 0.678426 0.659034 0.170895
C21   C     C_R   0.008774 0.515229 0.669760 -0.076212
C22   C     C_R   0.926434 0.432920 0.709032 -0.047886
C23   C     C_R   0.937459 0.452274 0.766577 -0.160122
H6    H     H_    0.876831 0.388365 0.797683 0.142213
C24   C     C_R   0.031777 0.549159 0.786196 0.331934
C25   C     C_R   0.922768 0.524490 0.225902 -0.103201
H7    H     H_    0.846522 0.523825 0.193909 0.146466
C26   C     C_R   0.913192 0.513593 0.285664 -0.224293
H8    H     H_    0.829672 0.505795 0.298884 0.157801
C27   C     C_R   0.010252 0.511565 0.327823 -0.032109
C28   C     C_R   0.117420 0.522036 0.309158 -0.209896
H9    H     H_    0.194237 0.522087 0.340616 0.151342
C29   C     C_R   0.127324 0.534272 0.249447 -0.102013
H10   H     H_    0.210649 0.542686 0.235724 0.144950
C30   C     C_R   0.029883 0.534845 0.207487 0.348690
C31   C     C_R   0.268485 0.030457 0.453014 -0.177574
H11   H     H_    0.091265 0.895114 0.450852 0.179147
H12   H     H_    0.441788 0.225707 0.412717 0.146415
H13   H     H_    0.234994 0.091954 0.427131 0.167343
C32   C     C_R   0.228089 0.834588 0.494600 -0.169149
C33   C     C_R   0.818204 0.080468 0.539769 0.285635
C34   C     C_R   0.737279 0.976202 0.568468 -0.089145
C35   C     C_R   0.615852 0.957016 0.566162 -0.209907
C36   C     C_R   0.564998 0.021130 0.522511 0.082555
C37   C     C_R   0.646141 0.127842 0.494888 0.041368
C38   C     C_R   0.436996 0.982733 0.504886 -0.024215
C39   C     C_R   0.393202 0.061469 0.468359 0.088519
C40   C     C_R   0.474408 0.167797 0.443374 -0.207857
C41   C     C_R   0.598143 0.196498 0.452823 -0.148138
C42   C     C_R   0.352444 0.866890 0.516748 0.268892
C43   C     C_R   0.186385 0.918057 0.466595 -0.226333
C44   C     C_R   0.773588 0.163100 0.510017 -0.218857
H14   H     H_    0.562483 0.889182 0.597797 0.198689
H15   H     H_    0.654984 0.272212 0.425502 0.170468
C45   C     C_R   0.334551 0.312074 0.587457 -0.096803
H16   H     H_    0.159892 0.301607 0.598826 0.161851
H17   H     H_    0.541901 0.282914 0.607229 0.169046
N3    N     N_R   0.246280 0.438190 0.533650 -0.196214
C46   C     C_R   0.761604 0.648850 0.422067 0.061160
C47   C     C_R   0.665683 0.681829 0.405285 -0.258064
C48   C     C_R   0.560677 0.624418 0.434204 -0.150557
C49   C     C_R   0.550540 0.532980 0.480770 0.014080
C50   C     C_R   0.651952 0.503271 0.496753 0.275960
C51   C     C_R   0.444498 0.470609 0.512206 -0.039513
C52   C     C_R   0.439624 0.376591 0.557053 0.093043
C53   C     C_R   0.541070 0.351100 0.572094 -0.278225
C54   C     C_R   0.645305 0.414543 0.543862 -0.163178
C55   C     C_R   0.342268 0.497372 0.501014 0.105543
C56   C     C_R   0.240674 0.348155 0.575886 0.114385
N4    N     N_R   0.754320 0.561190 0.466710 -0.213710
H18   H     H_    0.336480 0.564876 0.466753 0.137041
H19   H     H_    0.842787 0.693699 0.399373 0.136707
H20   H     H_    0.489099 0.653217 0.418988 0.150183
H21   H     H_    0.672592 0.751901 0.369651 0.156271
H22   H     H_    0.719130 0.391083 0.560924 0.212771
N5    N     N_R   0.393641 0.779499 0.544013 0.106738
O13   O     O_R   0.360662 0.720665 0.595256 -0.399936
O14   O     O_R   0.458561 0.754425 0.516161 -0.390100
N6    N     N_R   0.944996 0.104313 0.543816 0.111914
O15   O     O_R   0.003836 0.085647 0.594456 -0.402221
O16   O     O_R   0.999239 0.135891 0.496107 -0.370295
C57   C     C_R   0.775800 0.884208 0.599484 0.185331
C58   C     C_R   0.831827 0.841850 0.569370 -0.031970
C59   C     C_R   0.864075 0.752308 0.597529 -0.148117
C60   C     C_R   0.839736 0.703580 0.655719 -0.093637
C61   C     C_R   0.783570 0.744521 0.685926 -0.081232
C62   C     C_R   0.751153 0.834080 0.657960 -0.145586
H23   H     H_    0.849256 0.877251 0.523889 0.143606
H24   H     H_    0.907279 0.720394 0.574074 0.165169
H25   H     H_    0.863646 0.633720 0.677379 0.150039
H26   H     H_    0.764623 0.706452 0.730977 0.151395
H27   H     H_    0.707024 0.864187 0.681963 0.112533
C63   C     C_R   0.086340 0.275155 0.976413 0.170675
C64   C     C_R   0.983009 0.193640 0.949558 -0.076941
C65   C     C_R   0.988252 0.097653 0.936521 -0.120618
C66   C     C_R   0.096073 0.081978 0.950697 -0.104235
C67   C     C_R   0.198769 0.162162 0.978027 -0.118427
C68   C     C_R   0.193984 0.258361 0.991071 -0.124338
H28   H     H_    0.898921 0.204817 0.938615 0.116793
H29   H     H_    0.908698 0.035321 0.915539 0.131109
H30   H     H_    0.099989 0.007618 0.940640 0.122251
H31   H     H_    0.282038 0.149681 0.989177 0.134169
H32   H     H_    0.273956 0.319826 0.012385 0.129450
C69   C     C_R   0.315813 0.203486 0.628282 0.108803
C70   C     C_R   0.316725 0.111287 0.608136 -0.087350
C71   C     C_R   0.292498 0.006741 0.645370 -0.142495
C72   C     C_R   0.266472 0.993278 0.702903 -0.095647
C73   C     C_R   0.264611 0.084259 0.723224 -0.102016
C74   C     C_R   0.288714 0.188948 0.686046 -0.145515
H33   H     H_    0.335154 0.120391 0.563470 0.147590
H34   H     H_    0.293442 0.936138 0.629547 0.136671
H35   H     H_    0.247557 0.912393 0.731726 0.137066
H36   H     H_    0.243974 0.073502 0.767730 0.140602
H37   H     H_    0.286026 0.258487 0.702164 0.130035
C75   C     C_R   0.838035 0.320342 0.694519 0.094275
C76   C     C_R   0.715113 0.280093 0.703456 -0.175460
C77   C     C_R   0.635164 0.167246 0.698438 -0.148203
C78   C     C_R   0.677520 0.093739 0.685051 -0.114713
C79   C     C_R   0.799886 0.133176 0.676481 -0.136069
C80   C     C_R   0.879713 0.246181 0.680605 -0.122203
H38   H     H_    0.681795 0.335530 0.715249 0.134008
H39   H     H_    0.540786 0.136487 0.705731 0.148796
H40   H     H_    0.615860 0.005914 0.682256 0.123900
H41   H     H_    0.834110 0.075785 0.668127 0.162913
H42   H     H_    0.975013 0.274188 0.675715 0.141420

loop_
_geom_bond_atom_site_label_1
_geom_bond_atom_site_label_2
_geom_bond_distance
_ccdc_geom_bond_type
H17   C53   1.077547 S    
C53   C54   1.382345 A    
C54   H22   1.065040 S    
C70   C71   1.397731 A    
C48   H20   1.077453 S    
C7    C10   1.399946 A    
C61   H26   1.082465 S    
C8    C9    1.410243 A    
C59   H24   1.081706 S    
C72   C73   1.397989 A    
C47   C48   1.393171 A    
Cu1   Cu2   2.697711 S    
C25   C26   1.396051 A    
C37   C41   1.411123 A    
C68   H32   1.083249 S    
C23   H6    1.084431 S    
Cu1   O7    1.936068 S    
C42   N5    1.434184 S    
C15   C16   1.393980 A    
C75   C80   1.404432 A    
C18   O12   1.349607 S    
C17   N2    1.370002 A    
C77   H39   1.082197 S    
C4    C27   1.471728 S    
O4    C2    1.300152 A    
C47   H21   1.082537 S    
O7    C4    1.301909 A    
C10   H1    1.084580 S    
C60   C61   1.396468 A    
C64   C65   1.398636 A    
C65   C66   1.398165 A    
C7    C8    1.405210 A    
O5    C3    1.296700 A    
C67   C68   1.398728 A    
N3    C56   1.350583 A    
C71   H34   1.082751 S    
C69   C74   1.404783 A    
C74   H37   1.083111 S    
C28   C29   1.393053 A    
C39   C40   1.390998 A    
C26   C27   1.404921 A    
C61   C62   1.398143 A    
C33   C44   1.420432 A    
C57   C62   1.406652 A    
C50   N4    1.382774 A    
C63   C68   1.403979 A    
C32   C42   1.421059 A    
C20   C21   1.404600 A    
C17   O11   1.348730 S    
C10   C11   1.398762 A    
C45   C69   1.484309 S    
C40   C41   1.383322 A    
O3    Cu1   1.931872 S    
C58   C59   1.397794 A    
N5    O14   1.301853 A    
C23   C24   1.399067 A    
N5    O13   1.302594 A    
C60   H25   1.080253 S    
C11   C12   1.424590 A    
C5    C9    1.405245 A    
C29   C30   1.401426 A    
H16   C56   1.081873 S    
C76   H38   1.084123 S    
C19   C24   1.398919 A    
C65   H29   1.082468 S    
C38   C39   1.422020 A    
C25   H7    1.082826 S    
C79   C80   1.395218 A    
C34   C57   1.485808 S    
C63   C64   1.405203 A    
C51   C55   1.413262 A    
C52   C53   1.393868 A    
N1    C6    1.370077 A    
C31   H13   1.084148 S    
C36   C38   1.433824 A    
C14   C15   1.405148 A    
C51   C52   1.422264 A    
C37   C44   1.422920 A    
C48   C49   1.411529 A    
C27   C28   1.405448 A    
O1    C1    1.305083 A    
C62   H27   1.082219 S    
C66   H30   1.082208 S    
N1    C30   1.437861 S    
N2    C18   1.366278 A    
C78   H40   1.081640 S    
C49   C50   1.426967 A    
Cu2   O8    1.931873 S    
C33   C34   1.405257 A    
N6    O16   1.301331 A    
C6    C7    1.402830 A    
Cu2   N4    2.021128 S    
C12   C17   1.412870 A    
C13   C14   1.412609 A    
C55   H18   1.075828 S    
C80   H42   1.083840 S    
H12   C40   1.084385 S    
C33   N6    1.437533 S    
C32   C43   1.397611 A    
C15   H2    1.083163 S    
C20   H5    1.083623 S    
C49   C51   1.438089 A    
O8    C4    1.302995 A    
C36   C37   1.415224 A    
C22   C23   1.397885 A    
C69   C70   1.405681 A    
O3    C2    1.298067 A    
C21   C22   1.410699 A    
C31   C39   1.399180 A    
C71   C72   1.397416 A    
C45   C52   1.418142 A    
C57   C58   1.407165 A    
C28   H9    1.083267 S    
Cu1   N3    2.033035 S    
C73   C74   1.398737 A    
C59   C60   1.396974 A    
C14   C18   1.402230 A    
Cu1   O5    1.954310 S    
C29   H10   1.082946 S    
O1    Cu1   1.967757 S    
O2    Cu2   1.954312 S    
C50   C54   1.402809 A    
C46   C47   1.390769 A    
O6    C3    1.309133 A    
C79   H41   1.079818 S    
O4    Cu2   1.936068 S    
C78   C79   1.398340 A    
C64   H28   1.083350 S    
C5    O9    1.349373 S    
C9    C16   1.404075 A    
C76   C77   1.397774 A    
N2    C24   1.436118 S    
C35   C36   1.410338 A    
C46   N4    1.357773 A    
O2    C1    1.305107 A    
C66   C67   1.398234 A    
C19   C20   1.395766 A    
H11   C43   1.083333 S    
C19   H4    1.082025 S    
C70   H33   1.080727 S    
C16   H3    1.083242 S    
N6    O15   1.301408 A    
C8    C13   1.413698 A    
C38   C42   1.422756 A    
C67   H31   1.082465 S    
C31   C43   1.385970 A    
C22   C75   1.476579 S    
C1    C44   1.483533 S    
C73   H36   1.082368 S    
N3    C55   1.360380 A    
C77   C78   1.396954 A    
C12   C13   1.416351 A    
C34   C35   1.393075 A    
C11   C63   1.479791 S    
C3    C32   1.475432 S    
Cu2   O6    1.967755 S    
C26   H8    1.083072 S    
C2    C21   1.461382 S    
C41   H15   1.080271 S    
C6    O10   1.350016 S    
C35   H14   1.073450 S    
C58   H23   1.083197 S    
C75   C76   1.405636 A    
C46   H19   1.081541 S    
C72   H35   1.081341 S    
C5    N1    1.370659 A    
C45   C56   1.392498 A    
C25   C30   1.402704 A    
