data_mof_unit_64171.cif
_audit_creation_date              2012-12-10T19:00:36-0500
_audit_creation_method            fapswitch 2.2
_symmetry_space_group_name_H-M    P1
_symmetry_Int_Tables_number       1
_space_group_crystal_system       triclinic
_cell_length_a                    36.967938
_cell_length_b                    30.244013
_cell_length_c                    21.342252
_cell_angle_alpha                 89.999577
_cell_angle_beta                  54.785604
_cell_angle_gamma                 89.999897
_cell_volume                      19495.1672022

loop_
_atom_site_label
_atom_site_type_symbol
_atom_type_description
_atom_site_fract_x
_atom_site_fract_y
_atom_site_fract_z
_atom_type_partial_charge
C1    C     C_R   0.913717 0.500129 0.086693 0.851063
C2    C     C_R   0.086283 0.500129 0.913308 0.851049
C3    C     C_R   0.413717 0.000129 0.086693 0.851058
C4    C     C_R   0.586283 0.000129 0.913308 0.851054
C5    C     C_3   0.038516 0.483175 0.191334 0.099427
C6    C     C_3   0.961494 0.483147 0.808657 0.099404
C7    C     C_3   0.538515 0.983168 0.191336 0.099421
C8    C     C_3   0.461489 0.983159 0.808661 0.099415
C9    C     C_3   0.034266 0.525479 0.235841 0.014827
C10   C     C_3   0.965710 0.525455 0.764182 0.014827
C11   C     C_3   0.534272 0.025473 0.235835 0.014836
C12   C     C_3   0.465720 0.025466 0.764172 0.014840
C13   C     C_3   0.995860 0.542583 0.233082 0.148503
C14   C     C_3   0.004104 0.542588 0.766951 0.148487
C15   C     C_3   0.495869 0.042583 0.233074 0.148496
C16   C     C_3   0.504120 0.042586 0.766936 0.148488
C17   C     C_3   0.000089 0.500438 0.188974 -0.158432
C18   C     C_3   0.999910 0.500440 0.811026 -0.158408
C19   C     C_3   0.500089 0.000438 0.188974 -0.158428
C20   C     C_3   0.499910 0.000439 0.811026 -0.158422
C21   C     C_R   0.794789 0.524318 0.167435 -0.174354
C22   C     C_R   0.205209 0.524327 0.832572 -0.174363
C23   C     C_R   0.294790 0.024320 0.167428 -0.174378
C24   C     C_R   0.705209 0.024324 0.832572 -0.174371
C25   C     C_R   0.840792 0.527093 0.120437 0.124591
C26   C     C_R   0.159207 0.527102 0.879563 0.124586
C27   C     C_R   0.340793 0.027096 0.120435 0.124561
C28   C     C_R   0.659207 0.027099 0.879564 0.124583
C29   C     C_R   0.865558 0.500532 0.137964 -0.095360
C30   C     C_R   0.134442 0.500533 0.862041 -0.095380
C31   C     C_R   0.365558 0.000532 0.137962 -0.095364
C32   C     C_R   0.634442 0.000533 0.862039 -0.095374
C33   C     C_R   0.843585 0.474120 0.205302 0.071461
C34   C     C_R   0.156419 0.474113 0.794712 0.071468
C35   C     C_R   0.343583 0.974118 0.205297 0.071464
C36   C     C_R   0.656418 0.974117 0.794707 0.071465
C37   C     C_R   0.797492 0.472613 0.251301 -0.157581
C38   C     C_R   0.202511 0.472609 0.748718 -0.157582
C39   C     C_R   0.297490 0.972612 0.251292 -0.157568
C40   C     C_R   0.702510 0.972612 0.748712 -0.157569
C41   C     C_R   0.773591 0.497080 0.231615 0.073318
C42   C     C_R   0.226409 0.497082 0.768400 0.073323
C43   C     C_R   0.273591 0.997080 0.231606 0.073328
C44   C     C_R   0.726409 0.997082 0.768396 0.073323
C45   C     C_R   0.999783 0.500077 0.121839 0.894763
C46   C     C_R   0.000217 0.500077 0.878161 0.894768
C47   C     C_R   0.499783 0.000077 0.121839 0.894763
C48   C     C_R   0.500217 0.000077 0.878161 0.894767
C49   C     C_R   0.703951 0.460952 0.267241 0.154451
C50   C     C_R   0.296050 0.460955 0.732771 0.154450
C51   C     C_R   0.203949 0.960946 0.267252 0.154451
C52   C     C_R   0.796050 0.960948 0.732751 0.154453
C53   C     C_R   0.657246 0.460879 0.311561 0.049212
C54   C     C_R   0.342755 0.460879 0.688443 0.049214
C55   C     C_R   0.157244 0.960872 0.311576 0.049216
C56   C     C_R   0.842756 0.960874 0.688426 0.049215
C57   C     C_R   0.634026 0.495208 0.366179 -0.067837
C58   C     C_R   0.365974 0.495208 0.633823 -0.067831
C59   C     C_R   0.134026 0.995209 0.366179 -0.067819
C60   C     C_R   0.865974 0.995210 0.633822 -0.067818
C61   C     C_R   0.656741 0.527578 0.377335 -0.237023
C62   C     C_R   0.343259 0.527580 0.622672 -0.237027
C63   C     C_R   0.156742 0.027587 0.377316 -0.237029
C64   C     C_R   0.843259 0.027588 0.622684 -0.237029
C65   C     C_R   0.702371 0.527445 0.333526 -0.203342
C66   C     C_R   0.297628 0.527450 0.666489 -0.203349
C67   C     C_R   0.202372 0.027455 0.333502 -0.203340
C68   C     C_R   0.797628 0.027458 0.666500 -0.203343
C69   C     C_R   0.725801 0.494612 0.278691 0.041745
C70   C     C_R   0.274200 0.494617 0.721326 0.041744
C71   C     C_R   0.225800 0.994614 0.278682 0.041739
C72   C     C_R   0.774200 0.994617 0.721322 0.041740
C73   C     C_R   1.000000 0.366369 0.500001 -0.000713
C74   C     C_R   0.500000 0.866369 0.500000 -0.000714
C75   C     C_R   1.000000 0.275027 0.500001 0.143991
C76   C     C_R   0.500000 0.775027 0.500000 0.143988
C77   C     C_R   0.500000 0.274132 0.500001 0.107690
C78   C     C_R   0.000000 0.774129 0.500001 0.107778
C79   C     C_R   1.000000 0.586312 0.500000 0.869285
C80   C     C_R   0.500000 0.086314 0.500000 0.869311
C81   C     C_R   0.024502 0.343614 0.430316 -0.200116
C82   C     C_R   0.975498 0.343613 0.569687 -0.200095
C83   C     C_R   0.524503 0.843614 0.430315 -0.200111
C84   C     C_R   0.475497 0.843613 0.569685 -0.200103
C85   C     C_R   0.999980 0.501054 0.378441 0.900280
C86   C     C_R   0.000019 0.501055 0.621560 0.900290
C87   C     C_R   0.499980 0.001054 0.378441 0.900300
C88   C     C_R   0.500019 0.001055 0.621560 0.900303
C89   C     C_R   1.000000 0.413886 0.500001 0.841520
C90   C     C_R   0.500000 0.913886 0.500000 0.841517
C91   C     C_R   0.500000 0.634689 0.499999 -0.153550
C92   C     C_R   0.000000 0.134689 0.499999 -0.153548
C93   C     C_R   0.500000 0.586296 0.500000 0.884852
C94   C     C_R   0.000000 0.086296 0.500000 0.884848
C95   C     C_R   0.586113 0.497902 0.413867 0.866016
C96   C     C_R   0.413887 0.497902 0.586133 0.866015
C97   C     C_R   0.086113 0.997903 0.413867 0.866017
C98   C     C_R   0.913887 0.997903 0.586133 0.866018
C99   C     C_R   0.533195 0.657619 0.501166 0.034186
C100  C     C_R   0.466805 0.657619 0.498832 0.034187
C101  C     C_R   0.033195 0.157619 0.501166 0.034187
C102  C     C_R   0.966805 0.157619 0.498834 0.034188
C103  C     C_R   0.500000 0.413765 0.500000 0.854339
C104  C     C_R   1.000000 0.913765 0.500000 0.854339
C105  C     C_R   0.961113 0.703248 0.524259 -0.168620
C106  C     C_R   0.038887 0.703247 0.475742 -0.168620
C107  C     C_R   0.461064 0.203256 0.524573 -0.168615
C108  C     C_R   0.538936 0.203256 0.475429 -0.168616
C109  C     C_R   0.961038 0.657416 0.524612 -0.171268
C110  C     C_R   0.038962 0.657416 0.475389 -0.171243
C111  C     C_R   0.460989 0.157424 0.524927 -0.171263
C112  C     C_R   0.539011 0.157424 0.475074 -0.171255
C113  C     C_R   0.000000 0.634327 0.500000 -0.041377
C114  C     C_R   0.500000 0.134332 0.500000 -0.041340
C115  C     C_R   0.533763 0.704313 0.499277 0.077839
C116  C     C_R   0.466237 0.704313 0.500722 0.077837
C117  C     C_R   0.033763 0.204313 0.499277 0.077840
C118  C     C_R   0.966236 0.204313 0.500724 0.077836
C119  C     C_R   0.000000 0.726167 0.500001 0.106930
C120  C     C_R   0.500000 0.226173 0.500001 0.106932
C121  C     C_R   0.484283 0.297047 0.463281 -0.178487
C122  C     C_R   0.515717 0.297047 0.536721 -0.178485
C123  C     C_R   0.984346 0.797046 0.463180 -0.178533
C124  C     C_R   0.015654 0.797046 0.536822 -0.178519
C125  C     C_R   0.484476 0.342863 0.462947 -0.207404
C126  C     C_R   0.515524 0.342863 0.537055 -0.207407
C127  C     C_R   0.984535 0.842862 0.462854 -0.207441
C128  C     C_R   0.015465 0.842862 0.537148 -0.207440
C129  C     C_R   0.500000 0.365875 0.500001 -0.018089
C130  C     C_R   1.000000 0.865875 0.500001 -0.018058
C131  C     C_R   0.500000 0.726901 0.499999 -0.035445
C132  C     C_R   1.000000 0.226901 0.500001 -0.035445
C133  C     C_R   0.023592 0.297811 0.430255 -0.191494
C134  C     C_R   0.976407 0.297810 0.569747 -0.191477
C135  C     C_R   0.523593 0.797811 0.430254 -0.191492
C136  C     C_R   0.476406 0.797810 0.569746 -0.191482
C137  C     C_3   0.965662 0.476178 0.263787 -0.267718
C138  C     C_3   0.034354 0.476206 0.736196 -0.267677
C139  C     C_3   0.465659 0.976183 0.263790 -0.267721
C140  C     C_3   0.534346 0.976193 0.736204 -0.267710
C141  C     C_3   0.961809 0.518204 0.308393 0.173617
C142  C     C_3   0.038173 0.518235 0.691622 0.173620
C143  C     C_3   0.461814 0.018210 0.308389 0.173624
C144  C     C_3   0.538181 0.018221 0.691615 0.173625
C145  C     C_3   0.999991 0.501350 0.311008 -0.170656
C146  C     C_3   0.000005 0.501351 0.688997 -0.170670
C147  C     C_3   0.499992 0.001349 0.311006 -0.170669
C148  C     C_3   0.500006 0.001350 0.688995 -0.170669
C149  C     C_3   0.004003 0.459320 0.266988 0.105987
C150  C     C_3   0.996025 0.459319 0.732985 0.105962
C151  C     C_3   0.503998 0.959319 0.266993 0.105981
C152  C     C_3   0.496012 0.959319 0.732998 0.105969
H1    H     H_    0.780088 0.452341 0.302607 0.147026
H2    H     H_    0.219917 0.452332 0.697418 0.147025
H3    H     H_    0.280085 0.952339 0.302598 0.147029
H4    H     H_    0.719916 0.952338 0.697409 0.147030
H5    H     H_    0.639084 0.553476 0.419455 0.149685
H6    H     H_    0.360916 0.553478 0.580551 0.149683
H7    H     H_    0.139086 0.053491 0.419425 0.149670
H8    H     H_    0.860915 0.053492 0.580574 0.149669
H9    H     H_    0.719595 0.553227 0.341839 0.155458
H10   H     H_    0.280404 0.553232 0.658179 0.155456
H11   H     H_    0.219597 0.053242 0.341801 0.155456
H12   H     H_    0.780404 0.053245 0.658201 0.155455
H13   H     H_    0.043456 0.361287 0.376376 0.137882
H14   H     H_    0.956544 0.361286 0.623626 0.137855
H15   H     H_    0.543457 0.861287 0.376375 0.137877
H16   H     H_    0.456542 0.861285 0.623625 0.137867
H17   H     H_    0.930838 0.720855 0.543561 0.135688
H18   H     H_    0.069162 0.720855 0.456441 0.135686
H19   H     H_    0.430753 0.220867 0.544118 0.135685
H20   H     H_    0.569247 0.220867 0.455884 0.135686
H21   H     H_    0.930677 0.640118 0.543585 0.168174
H22   H     H_    0.069324 0.640118 0.456415 0.168178
H23   H     H_    0.430586 0.140128 0.544158 0.168121
H24   H     H_    0.569414 0.140128 0.455843 0.168123
H25   H     H_    0.937671 0.456109 0.273755 0.161782
H26   H     H_    0.062361 0.456158 0.726212 0.161745
H27   H     H_    0.437664 0.956119 0.273761 0.161774
H28   H     H_    0.562346 0.956136 0.726228 0.161763
H29   H     H_    0.041324 0.280086 0.376285 0.129323
H30   H     H_    0.958675 0.280085 0.623717 0.129305
H31   H     H_    0.541326 0.780086 0.376283 0.129321
H32   H     H_    0.458674 0.780084 0.623716 0.129313
H33   H     H_    0.472285 0.279453 0.434435 0.144625
H34   H     H_    0.527715 0.279453 0.565567 0.144629
H35   H     H_    0.972401 0.779456 0.434249 0.144576
H36   H     H_    0.027599 0.779456 0.565753 0.144583
H37   H     H_    0.472174 0.360252 0.434424 0.156513
H38   H     H_    0.527825 0.360252 0.565578 0.156515
H39   H     H_    0.972280 0.860250 0.434255 0.156553
H40   H     H_    0.027720 0.860250 0.565746 0.156553
H41   H     H_    0.775212 0.543255 0.153890 0.151610
H42   H     H_    0.224784 0.543269 0.846114 0.151610
H43   H     H_    0.275215 0.043259 0.153883 0.151607
H44   H     H_    0.724785 0.043265 0.846115 0.151607
O1    O     O_R   0.934530 0.463050 0.065470 -0.622523
O2    O     O_R   0.065470 0.463050 0.934530 -0.622518
O3    O     O_R   0.434530 0.963050 0.065470 -0.622519
O4    O     O_R   0.565470 0.963050 0.934530 -0.622519
O5    O     O_R   0.565480 0.500000 0.487030 -0.623103
O6    O     O_R   0.434520 0.500000 0.512970 -0.623106
O7    O     O_R   0.065480 1.000000 0.487030 -0.623099
O8    O     O_R   0.934520 0.000000 0.512970 -0.623100
O9    O     O_R   0.565480 0.499990 0.382000 -0.626230
O10   O     O_R   0.434520 0.499990 0.618000 -0.626230
O11   O     O_R   0.065480 0.999990 0.382000 -0.626224
O12   O     O_R   0.934520 0.999990 0.618000 -0.626225
O13   O     O_R   0.500000 0.434520 0.552520 -0.629862
O14   O     O_R   0.500000 0.434520 0.447480 -0.629861
O15   O     O_R   1.000000 0.934520 0.552520 -0.629878
O16   O     O_R   1.000000 0.934520 0.447480 -0.629880
O17   O     O_R   0.934550 0.536970 0.065450 -0.618729
O18   O     O_R   0.065450 0.536970 0.934550 -0.618745
O19   O     O_R   0.434550 0.036970 0.065450 -0.618737
O20   O     O_R   0.565450 0.036970 0.934550 -0.618740
O21   O     O_R   0.000010 0.463050 0.093020 -0.639797
O22   O     O_R   0.999990 0.463050 0.906980 -0.639814
O23   O     O_R   0.500010 0.963050 0.093020 -0.639799
O24   O     O_R   0.499990 0.963050 0.906980 -0.639805
O25   O     O_R   0.000020 0.536970 0.093000 -0.593248
O26   O     O_R   0.999980 0.536970 0.907000 -0.593222
O27   O     O_R   0.500020 0.036970 0.093000 -0.593244
O28   O     O_R   0.499980 0.036970 0.907000 -0.593237
O29   O     O_R   0.036960 0.565440 0.463030 -0.621510
O30   O     O_R   0.963040 0.565440 0.536970 -0.621510
O31   O     O_R   0.536960 0.065440 0.463030 -0.621533
O32   O     O_R   0.463040 0.065440 0.536970 -0.621534
O33   O     O_R   0.036960 0.499960 0.370010 -0.647565
O34   O     O_R   0.963040 0.499960 0.629990 -0.647576
O35   O     O_R   0.536960 0.999960 0.370010 -0.647580
O36   O     O_R   0.463040 0.999960 0.629990 -0.647578
O37   O     O_R   0.963040 0.499940 0.443930 -0.589189
O38   O     O_R   0.036960 0.499940 0.556070 -0.589201
O39   O     O_R   0.463040 0.999940 0.443930 -0.589178
O40   O     O_R   0.536960 0.999940 0.556070 -0.589183
O41   O     O_R   0.036980 0.434490 0.463020 -0.621666
O42   O     O_R   0.963020 0.434490 0.536980 -0.621653
O43   O     O_R   0.536980 0.934490 0.463020 -0.621661
O44   O     O_R   0.463020 0.934490 0.536980 -0.621658
O45   O     O_R   0.500030 0.565470 0.552480 -0.619460
O46   O     O_R   0.499970 0.565470 0.447520 -0.619460
O47   O     O_R   0.000030 0.065470 0.552480 -0.619462
O48   O     O_R   0.999970 0.065470 0.447520 -0.619462
Zn1   Zn    Zn3+2 0.000000 0.450650 0.000000 0.920331
Zn2   Zn    Zn3+2 0.500000 0.950650 0.000000 0.920337
Zn3   Zn    Zn3+2 0.000000 0.549370 0.000000 0.990010
Zn4   Zn    Zn3+2 0.500000 0.049370 0.000000 0.990003
Zn5   Zn    Zn3+2 0.049370 0.499970 0.450630 0.968955
Zn6   Zn    Zn3+2 0.950630 0.499970 0.549370 0.968974
Zn7   Zn    Zn3+2 0.549370 0.999970 0.450630 0.968953
Zn8   Zn    Zn3+2 0.450630 0.999970 0.549370 0.968961
Zn9   Zn    Zn3+2 0.500010 0.500000 0.570110 0.935684
Zn10  Zn    Zn3+2 0.499990 0.500000 0.429890 0.935680
Zn11  Zn    Zn3+2 0.000010 0.000000 0.570110 0.935677
Zn12  Zn    Zn3+2 0.999990 0.000000 0.429890 0.935675
I1    I     I_    0.899450 0.544471 0.400679 -0.341319
I2    I     I_    0.100510 0.544551 0.599348 -0.341296
I3    I     I_    0.399459 0.044487 0.400672 -0.341223
I4    I     I_    0.600528 0.044514 0.599335 -0.341214
I5    I     I_    0.742691 0.411156 0.182244 -0.473841
I6    I     I_    0.257311 0.411159 0.817771 -0.473846
I7    I     I_    0.242686 0.911139 0.182278 -0.473822
I8    I     I_    0.757313 0.911141 0.817727 -0.473819
C153  C     C_3   0.633122 0.422964 0.303579 -0.415556
C154  C     C_3   0.627471 0.383748 0.354078 -0.341562
C155  C     C_3   0.610219 0.343018 0.336870 -0.828436
H45   H     H_    0.578816 0.350771 0.343577 0.268039
H46   H     H_    0.635026 0.331505 0.277309 0.268995
H47   H     H_    0.604056 0.315960 0.377090 0.252612
H48   H     H_    0.603750 0.392895 0.415436 0.212571
H49   H     H_    0.659648 0.375283 0.344178 0.249869
H50   H     H_    0.600148 0.432831 0.318952 0.218639
H51   H     H_    0.651268 0.412641 0.242712 0.235808
C156  C     C_3   0.366880 0.422962 0.696419 -0.415551
C157  C     C_3   0.372526 0.383747 0.645922 -0.341571
C158  C     C_3   0.389777 0.343015 0.663126 -0.828430
H52   H     H_    0.421181 0.350765 0.656416 0.268041
H53   H     H_    0.364970 0.331501 0.722687 0.268996
H54   H     H_    0.395936 0.315958 0.622906 0.252608
H55   H     H_    0.396245 0.392895 0.584563 0.212571
H56   H     H_    0.340347 0.375286 0.655825 0.249866
H57   H     H_    0.399856 0.432827 0.681040 0.218635
H58   H     H_    0.348736 0.412638 0.757285 0.235812
C159  C     C_3   0.133118 0.922951 0.303617 -0.415571
C160  C     C_3   0.127468 0.883746 0.354135 -0.341569
C161  C     C_3   0.110232 0.843002 0.336927 -0.828389
H59   H     H_    0.078840 0.850745 0.343590 0.268029
H60   H     H_    0.135055 0.831477 0.277381 0.269001
H61   H     H_    0.104055 0.815957 0.377177 0.252636
H62   H     H_    0.103737 0.892899 0.415489 0.212587
H63   H     H_    0.159642 0.875295 0.344257 0.249862
H64   H     H_    0.100143 0.932815 0.318989 0.218611
H65   H     H_    0.151262 0.912617 0.242755 0.235821
C162  C     C_3   0.866881 0.922952 0.696386 -0.415568
C163  C     C_3   0.872533 0.883747 0.645865 -0.341576
C164  C     C_3   0.889767 0.843003 0.663074 -0.828378
H66   H     H_    0.921159 0.850745 0.656413 0.268029
H67   H     H_    0.864944 0.831477 0.722619 0.269002
H68   H     H_    0.895944 0.815959 0.622823 0.252636
H69   H     H_    0.896264 0.892902 0.584512 0.212586
H70   H     H_    0.840359 0.875297 0.655742 0.249860
H71   H     H_    0.899855 0.932816 0.681016 0.218610
H72   H     H_    0.848736 0.912616 0.757247 0.235822
C165  C     C_3   0.570524 0.730443 0.495438 -0.409400
C166  C     C_3   0.610824 0.736934 0.412223 -0.343614
C167  C     C_3   0.648486 0.760088 0.409144 -0.869461
H73   H     H_    0.637520 0.793052 0.437032 0.266500
H74   H     H_    0.659533 0.739833 0.438621 0.259869
H75   H     H_    0.676950 0.764697 0.348439 0.251351
H76   H     H_    0.622951 0.704648 0.382312 0.214481
H77   H     H_    0.601566 0.757239 0.380316 0.226409
H78   H     H_    0.558613 0.763247 0.523356 0.208666
H79   H     H_    0.580953 0.714221 0.529020 0.199722
C168  C     C_3   0.429475 0.730443 0.504560 -0.409402
C169  C     C_3   0.389176 0.736933 0.587775 -0.343613
C170  C     C_3   0.351514 0.760088 0.590854 -0.869462
H80   H     H_    0.362481 0.793053 0.562967 0.266503
H81   H     H_    0.340467 0.739834 0.561376 0.259868
H82   H     H_    0.323050 0.764696 0.651559 0.251350
H83   H     H_    0.377048 0.704647 0.617686 0.214479
H84   H     H_    0.398434 0.757237 0.619682 0.226410
H85   H     H_    0.441387 0.763247 0.476642 0.208665
H86   H     H_    0.419047 0.714221 0.470978 0.199722
C171  C     C_3   0.070525 0.230443 0.495438 -0.409399
C172  C     C_3   0.110823 0.236936 0.412223 -0.343615
C173  C     C_3   0.148486 0.260090 0.409144 -0.869464
H87   H     H_    0.137518 0.293054 0.437033 0.266499
H88   H     H_    0.159533 0.239836 0.438620 0.259869
H89   H     H_    0.176949 0.264700 0.348439 0.251352
H90   H     H_    0.122952 0.204650 0.382311 0.214479
H91   H     H_    0.101565 0.257240 0.380318 0.226410
H92   H     H_    0.058613 0.263246 0.523358 0.208666
H93   H     H_    0.080954 0.214220 0.529019 0.199723
C174  C     C_3   0.929474 0.230443 0.504565 -0.409401
C175  C     C_3   0.889176 0.236934 0.587781 -0.343615
C176  C     C_3   0.851513 0.260088 0.590861 -0.869456
H94   H     H_    0.862479 0.293053 0.562974 0.266503
H95   H     H_    0.840466 0.239834 0.561385 0.259867
H96   H     H_    0.823050 0.264696 0.651567 0.251349
H97   H     H_    0.877048 0.204647 0.617691 0.214478
H98   H     H_    0.898434 0.257238 0.619686 0.226409
H99   H     H_    0.941386 0.263247 0.476647 0.208665
H100  H     H_    0.919045 0.214221 0.470984 0.199723
C177  C     C_3   0.568486 0.632076 0.502568 -0.398703
C178  C     C_3   0.555011 0.625680 0.584989 -0.308838
C179  C     C_3   0.587910 0.596049 0.586480 -0.880046
H101  H     H_    0.588141 0.562481 0.565155 0.274858
H102  H     H_    0.621742 0.610360 0.550280 0.257319
H103  H     H_    0.578119 0.593101 0.646231 0.247464
H104  H     H_    0.553392 0.657978 0.611082 0.201459
H105  H     H_    0.521587 0.610683 0.621763 0.245126
H106  H     H_    0.575096 0.599574 0.473910 0.195740
H107  H     H_    0.601138 0.648603 0.467730 0.192371
C180  C     C_3   0.431514 0.632075 0.497431 -0.398704
C181  C     C_3   0.444989 0.625680 0.415010 -0.308837
C182  C     C_3   0.412090 0.596049 0.413519 -0.880049
H108  H     H_    0.411857 0.562482 0.434847 0.274858
H109  H     H_    0.378258 0.610361 0.449719 0.257318
H110  H     H_    0.421881 0.593101 0.353768 0.247463
H111  H     H_    0.446609 0.657978 0.388916 0.201459
H112  H     H_    0.478413 0.610683 0.378236 0.245126
H113  H     H_    0.424904 0.599574 0.526089 0.195740
H114  H     H_    0.398862 0.648603 0.532269 0.192370
C183  C     C_3   0.068488 0.132075 0.502564 -0.398706
C184  C     C_3   0.055014 0.125679 0.584983 -0.308842
C185  C     C_3   0.087916 0.096049 0.586470 -0.880043
H115  H     H_    0.088150 0.062482 0.565140 0.274862
H116  H     H_    0.121747 0.110363 0.550271 0.257319
H117  H     H_    0.078126 0.093099 0.646220 0.247462
H118  H     H_    0.053394 0.157976 0.611078 0.201460
H119  H     H_    0.021591 0.110680 0.621759 0.245127
H120  H     H_    0.075097 0.099574 0.473906 0.195734
H121  H     H_    0.101139 0.148603 0.467724 0.192371
C186  C     C_3   0.931513 0.132076 0.497435 -0.398707
C187  C     C_3   0.944986 0.125680 0.415016 -0.308841
C188  C     C_3   0.912085 0.096051 0.413529 -0.880042
H122  H     H_    0.911851 0.062484 0.434858 0.274861
H123  H     H_    0.878254 0.110365 0.449727 0.257319
H124  H     H_    0.921875 0.093102 0.353778 0.247461
H125  H     H_    0.946606 0.157979 0.388921 0.201460
H126  H     H_    0.978409 0.110682 0.378240 0.245126
H127  H     H_    0.924904 0.099574 0.526093 0.195734
H128  H     H_    0.898861 0.148603 0.532276 0.192371
C189  C     C_3   0.005987 0.413367 0.295040 -0.410767
C190  C     C_3   0.003764 0.376347 0.248470 -0.328974
C191  C     C_3   0.006339 0.330988 0.276975 -0.897497
H129  H     H_    0.038579 0.327031 0.269166 0.256444
H130  H     H_    0.978970 0.326838 0.338606 0.266528
H131  H     H_    0.003450 0.304796 0.243641 0.252278
H132  H     H_    0.972123 0.378716 0.253876 0.226682
H133  H     H_    0.031508 0.379445 0.187029 0.225495
H134  H     H_    0.036799 0.410662 0.292259 0.185699
H135  H     H_    0.977501 0.410005 0.356137 0.205240
C192  C     C_3   0.994071 0.413367 0.704897 -0.410743
C193  C     C_3   0.996334 0.376343 0.751421 -0.329005
C194  C     C_3   0.993784 0.330985 0.722883 -0.897467
H136  H     H_    0.961539 0.327006 0.730716 0.256444
H137  H     H_    0.021145 0.326860 0.661243 0.266529
H138  H     H_    0.996704 0.304792 0.756180 0.252272
H139  H     H_    0.027979 0.378734 0.745992 0.226683
H140  H     H_    0.968596 0.379417 0.812870 0.225485
H141  H     H_    0.963255 0.410640 0.707696 0.185684
H142  H     H_    0.022553 0.410029 0.643792 0.205255
C195  C     C_3   0.505976 0.913366 0.295053 -0.410763
C196  C     C_3   0.503742 0.876345 0.248496 -0.328976
C197  C     C_3   0.506317 0.830986 0.277003 -0.897494
H143  H     H_    0.538560 0.827026 0.269181 0.256443
H144  H     H_    0.478952 0.826840 0.338637 0.266529
H145  H     H_    0.503420 0.804794 0.243679 0.252278
H146  H     H_    0.472098 0.878717 0.253915 0.226680
H147  H     H_    0.531481 0.879439 0.187052 0.225492
H148  H     H_    0.536790 0.910657 0.292263 0.185699
H149  H     H_    0.477492 0.910009 0.356152 0.205238
C198  C     C_3   0.494046 0.913367 0.704924 -0.410751
C199  C     C_3   0.496288 0.876344 0.751470 -0.328990
C200  C     C_3   0.493726 0.830986 0.722947 -0.897482
H150  H     H_    0.461485 0.827018 0.730767 0.256445
H151  H     H_    0.521092 0.826849 0.661312 0.266529
H152  H     H_    0.496631 0.804793 0.756263 0.252276
H153  H     H_    0.527931 0.878724 0.746054 0.226681
H154  H     H_    0.468547 0.879429 0.812915 0.225493
H155  H     H_    0.463233 0.910650 0.707711 0.185688
H156  H     H_    0.522531 0.910018 0.643824 0.205247
C201  C     C_3   0.080215 0.463313 0.119771 -0.407074
C202  C     C_3   0.113798 0.446700 0.134584 -0.377283
C203  C     C_3   0.157823 0.435415 0.059334 -0.819772
H157  H     H_    0.152966 0.409517 0.027912 0.275983
H158  H     H_    0.172330 0.465331 0.022640 0.263428
H159  H     H_    0.181405 0.422811 0.071466 0.253088
H160  H     H_    0.119739 0.472165 0.165067 0.228884
H161  H     H_    0.100946 0.416517 0.170619 0.226542
H162  H     H_    0.070572 0.435612 0.098160 0.205514
H163  H     H_    0.095658 0.488810 0.074394 0.181483
C204  C     C_3   0.919816 0.463248 0.880211 -0.407011
C205  C     C_3   0.886236 0.446616 0.865404 -0.377338
C206  C     C_3   0.842221 0.435307 0.940655 -0.819724
H164  H     H_    0.847098 0.409420 0.972069 0.275950
H165  H     H_    0.827696 0.465219 0.977356 0.263462
H166  H     H_    0.818645 0.422679 0.928525 0.253085
H167  H     H_    0.880276 0.472076 0.834940 0.228899
H168  H     H_    0.899103 0.416440 0.829353 0.226528
H169  H     H_    0.929488 0.435548 0.901779 0.205524
H170  H     H_    0.904361 0.488726 0.925621 0.181476
C207  C     C_3   0.580209 0.963298 0.119774 -0.407062
C208  C     C_3   0.613789 0.946677 0.134588 -0.377283
C209  C     C_3   0.657817 0.935400 0.059337 -0.819778
H171  H     H_    0.652963 0.909516 0.027891 0.275989
H172  H     H_    0.672329 0.965324 0.022665 0.263410
H173  H     H_    0.681393 0.922780 0.071472 0.253085
H174  H     H_    0.619727 0.972135 0.165085 0.228889
H175  H     H_    0.600936 0.916489 0.170610 0.226536
H176  H     H_    0.570559 0.935598 0.098171 0.205510
H177  H     H_    0.595655 0.988791 0.074390 0.181486
C210  C     C_3   0.419802 0.963276 0.880221 -0.407036
C211  C     C_3   0.386219 0.946654 0.865416 -0.377311
C212  C     C_3   0.342206 0.935340 0.940667 -0.819753
H178  H     H_    0.347084 0.909440 0.972060 0.275948
H179  H     H_    0.327686 0.965245 0.977386 0.263461
H180  H     H_    0.318625 0.922726 0.928538 0.253082
H181  H     H_    0.380257 0.972122 0.834965 0.228885
H182  H     H_    0.399083 0.916483 0.829353 0.226538
H183  H     H_    0.429463 0.935575 0.901805 0.205527
H184  H     H_    0.404354 0.988762 0.925618 0.181472
C213  C     C_3   0.070822 0.555351 0.226021 -0.363758
C214  C     C_3   0.102437 0.572279 0.143660 -0.364743
C215  C     C_3   0.131075 0.610120 0.139283 -0.856991
H185  H     H_    0.110017 0.638684 0.173831 0.274017
H186  H     H_    0.150681 0.599162 0.160912 0.260197
H187  H     H_    0.154229 0.620898 0.078721 0.249365
H188  H     H_    0.124654 0.545068 0.106661 0.218667
H189  H     H_    0.083699 0.583961 0.120856 0.248379
H190  H     H_    0.054588 0.583677 0.266194 0.220914
H191  H     H_    0.090303 0.536915 0.242031 0.206831
C216  C     C_3   0.929129 0.555291 0.774009 -0.363713
C217  C     C_3   0.897503 0.572215 0.856367 -0.364866
C218  C     C_3   0.868746 0.609937 0.860776 -0.857110
H192  H     H_    0.889718 0.638523 0.826144 0.273994
H193  H     H_    0.849116 0.598846 0.839267 0.260193
H194  H     H_    0.845611 0.620736 0.921330 0.249380
H195  H     H_    0.875368 0.544971 0.893400 0.218733
H196  H     H_    0.916239 0.584016 0.879108 0.248442
H197  H     H_    0.945337 0.583622 0.733839 0.220883
H198  H     H_    0.909660 0.536825 0.758007 0.206910
C219  C     C_3   0.570834 0.055336 0.226017 -0.363760
C220  C     C_3   0.602452 0.072267 0.143659 -0.364756
C221  C     C_3   0.631126 0.110070 0.139276 -0.857083
H199  H     H_    0.610094 0.138639 0.173855 0.274006
H200  H     H_    0.650741 0.099068 0.160864 0.260187
H201  H     H_    0.654273 0.120857 0.078718 0.249378
H202  H     H_    0.624644 0.045047 0.106646 0.218691
H203  H     H_    0.583714 0.083988 0.120876 0.248400
H204  H     H_    0.554607 0.083662 0.266191 0.220897
H205  H     H_    0.590312 0.036891 0.242022 0.206850
C222  C     C_3   0.429150 0.055318 0.773995 -0.363754
C223  C     C_3   0.397531 0.072247 0.856353 -0.364791
C224  C     C_3   0.368823 0.110017 0.860746 -0.857109
H206  H     H_    0.389831 0.138592 0.826141 0.274000
H207  H     H_    0.349199 0.098978 0.839198 0.260184
H208  H     H_    0.345684 0.120811 0.921302 0.249380
H209  H     H_    0.375362 0.045018 0.893377 0.218698
H210  H     H_    0.416269 0.084000 0.879116 0.248420
H211  H     H_    0.445369 0.083645 0.733821 0.220889
H212  H     H_    0.409675 0.036864 0.757993 0.206870
I9    I     I_    0.986721 0.609917 0.212507 -0.358442
I10   I     I_    0.013200 0.609928 0.787567 -0.358475
I11   I     I_    0.486739 0.109918 0.212491 -0.358408
I12   I     I_    0.513237 0.109923 0.787532 -0.358415
C225  C     C_3   0.861776 0.557257 0.051023 -0.434555
C226  C     C_3   0.867354 0.604879 0.069326 -0.276522
C227  C     C_3   0.823471 0.629820 0.117480 -0.860317
H213  H     H_    0.805626 0.628529 0.089830 0.252240
H214  H     H_    0.802308 0.615592 0.176040 0.264125
H215  H     H_    0.830011 0.664976 0.122730 0.248625
H216  H     H_    0.883672 0.605041 0.099667 0.245741
H217  H     H_    0.889276 0.622943 0.014327 0.213633
H218  H     H_    0.894658 0.544634 0.003900 0.167270
H219  H     H_    0.841537 0.557316 0.027741 0.190423
C228  C     C_3   0.138219 0.557276 0.948965 -0.434526
C229  C     C_3   0.132651 0.604895 0.930634 -0.276522
C230  C     C_3   0.176535 0.629837 0.882513 -0.860365
H220  H     H_    0.194355 0.628559 0.910208 0.252242
H221  H     H_    0.197719 0.615601 0.823963 0.264122
H222  H     H_    0.170000 0.664990 0.877231 0.248625
H223  H     H_    0.116353 0.605050 0.900259 0.245720
H224  H     H_    0.110714 0.622962 0.985624 0.213638
H225  H     H_    0.105333 0.544662 0.996083 0.167268
H226  H     H_    0.158449 0.557336 0.972265 0.190397
C231  C     C_3   0.361779 0.057266 0.051028 -0.434540
C232  C     C_3   0.367353 0.104886 0.069349 -0.276501
C233  C     C_3   0.323471 0.129831 0.117470 -0.860354
H227  H     H_    0.305652 0.128558 0.089774 0.252242
H228  H     H_    0.302286 0.115595 0.176020 0.264123
H229  H     H_    0.330009 0.164983 0.122753 0.248628
H230  H     H_    0.383653 0.105041 0.099722 0.245730
H231  H     H_    0.389290 0.122951 0.014356 0.213636
H232  H     H_    0.394663 0.044648 0.003906 0.167271
H233  H     H_    0.341544 0.057329 0.027738 0.190419
C234  C     C_3   0.638220 0.057271 0.948969 -0.434533
C235  C     C_3   0.632650 0.104891 0.930644 -0.276514
C236  C     C_3   0.676533 0.129834 0.882522 -0.860357
H234  H     H_    0.694355 0.128555 0.910215 0.252241
H235  H     H_    0.697716 0.115599 0.823971 0.264121
H236  H     H_    0.669997 0.164986 0.877243 0.248626
H237  H     H_    0.616350 0.105047 0.900272 0.245724
H238  H     H_    0.610714 0.122956 0.985636 0.213634
H239  H     H_    0.605334 0.044655 0.996089 0.167271
H240  H     H_    0.658452 0.057331 0.972266 0.190400
C237  C     C_3   0.867819 0.448558 0.231632 -0.409460
C238  C     C_3   0.870527 0.399325 0.212227 -0.286958
C239  C     C_3   0.900416 0.374539 0.228010 -0.907485
H241  H     H_    0.934828 0.387270 0.190189 0.266226
H242  H     H_    0.888275 0.378584 0.288938 0.261096
H243  H     H_    0.900574 0.338792 0.216028 0.253319
H244  H     H_    0.836833 0.384558 0.247283 0.221375
H245  H     H_    0.883889 0.395159 0.150715 0.244641
H246  H     H_    0.901436 0.462191 0.206084 0.209645
H247  H     H_    0.850106 0.452483 0.294690 0.197547
C240  C     C_3   0.132188 0.448542 0.768385 -0.409484
C241  C     C_3   0.129480 0.399312 0.787808 -0.286926
C242  C     C_3   0.099596 0.374517 0.772026 -0.907491
H248  H     H_    0.065183 0.387248 0.809836 0.266229
H249  H     H_    0.111740 0.378554 0.711094 0.261083
H250  H     H_    0.099437 0.338772 0.784021 0.253321
H251  H     H_    0.163175 0.384546 0.752761 0.221376
H252  H     H_    0.116115 0.395154 0.849322 0.244640
H253  H     H_    0.098571 0.462172 0.793923 0.209640
H254  H     H_    0.149904 0.452460 0.705325 0.197512
C243  C     C_3   0.367816 0.948555 0.231630 -0.409472
C244  C     C_3   0.370525 0.899322 0.212223 -0.286942
C245  C     C_3   0.400411 0.874537 0.228010 -0.907490
H255  H     H_    0.434823 0.887268 0.190193 0.266225
H256  H     H_    0.388269 0.878581 0.288939 0.261092
H257  H     H_    0.400570 0.838789 0.216028 0.253322
H258  H     H_    0.336830 0.884556 0.247277 0.221381
H259  H     H_    0.383889 0.895157 0.150710 0.244641
H260  H     H_    0.401433 0.962188 0.206084 0.209642
H261  H     H_    0.350101 0.952480 0.294688 0.197540
C246  C     C_3   0.632186 0.948550 0.768377 -0.409477
C247  C     C_3   0.629478 0.899319 0.787790 -0.286933
C248  C     C_3   0.599592 0.874529 0.772005 -0.907487
H262  H     H_    0.565180 0.887259 0.809821 0.266226
H263  H     H_    0.611735 0.878570 0.711075 0.261088
H264  H     H_    0.599434 0.838782 0.783993 0.253322
H265  H     H_    0.663173 0.884553 0.752739 0.221382
H266  H     H_    0.616113 0.895156 0.849304 0.244641
H267  H     H_    0.598569 0.962182 0.793919 0.209641
H268  H     H_    0.649901 0.952472 0.705318 0.197527

loop_
_geom_bond_atom_site_label_1
_geom_bond_atom_site_label_2
_ccdc_geom_bond_type
C203  H157  S    
C211  H181  S    
C55   C59   A    
C106  H18   S    
C212  H178  S    
C108  C120  A    
C190  H132  S    
C74   C83   A    
C191  H131  S    
C137  C149  S    
C176  H94   S    
C183  H120  S    
C107  H19   S    
C206  H164  S    
C182  H108  S    
C105  H17   S    
C160  H62   S    
C85   O37   A    
O31   Zn7   S    
C16   C144  S    
O21   Zn1   S    
C60   C98   S    
C93   O46   A    
C194  H137  S    
C82   H14   S    
C76   C131  S    
C109  H21   S    
C3    O19   A    
C29   C33   A    
O47   Zn11  S    
C198  H156  S    
C222  H211  S    
C232  C233  S    
C142  I2    S    
C197  H145  S    
C117  C132  A    
C142  C146  S    
C188  H124  S    
C77   C122  A    
O13   Zn9   S    
C146  C150  S    
C11   C15   S    
C189  H135  S    
C12   C16   S    
C247  C248  S    
C242  H249  S    
C161  H60   S    
C172  C173  S    
O36   Zn8   S    
C91   C100  A    
C140  C152  S    
C40   C44   A    
C141  C145  S    
O15   Zn11  S    
C169  H84   S    
C49   C69   A    
C223  H210  S    
C98   O12   A    
C241  H251  S    
C51   C71   A    
C6    C18   S    
C103  O14   A    
C73   C81   A    
O37   Zn6   S    
C118  C174  S    
C239  H243  S    
O7    Zn11  S    
C68   H12   S    
C25   C29   A    
C27   C31   A    
C28   C32   A    
C85   O33   A    
C9    C213  S    
C62   C66   A    
O25   Zn3   S    
C126  C129  A    
C165  H79   S    
C177  H106  S    
C169  C170  S    
C82   C134  A    
C170  H82   S    
C248  H262  S    
C209  H172  S    
C63   H7    S    
C84   H16   S    
O26   Zn3   S    
C180  C181  S    
C226  H217  S    
C68   C72   A    
C92   C94   S    
C166  C167  S    
C88   C148  S    
C178  C179  S    
C220  H202  S    
C221  H200  S    
C50   C54   A    
C3    C31   S    
C4    C32   S    
C163  C164  S    
C215  H186  S    
C235  H237  S    
C2    O18   A    
C182  H110  S    
C7    C19   S    
C212  H180  S    
C191  H129  S    
C201  H163  S    
C216  C217  S    
C176  H96   S    
C205  C206  S    
C24   C28   A    
C41   C69   S    
C206  H166  S    
C225  H218  S    
C47   O27   A    
C43   C71   S    
C23   C43   A    
C89   O42   A    
C243  H260  S    
C175  C176  S    
C186  C187  S    
C96   O6    A    
C241  H252  S    
C234  H240  S    
O20   Zn4   S    
C59   C63   A    
C46   O26   A    
C60   C64   A    
C231  H232  S    
C199  C200  S    
C74   C90   S    
C50   C70   A    
C101  C117  A    
C238  H244  S    
C218  H193  S    
C183  C184  S    
O6    Zn10  S    
C83   H15   S    
C53   C153  S    
O1    Zn1   S    
C140  H28   S    
C217  H195  S    
C44   C72   S    
C185  H117  S    
C187  H126  S    
C80   O31   A    
C220  C221  S    
C166  H77   S    
C139  H27   S    
C174  C175  S    
C61   C65   A    
C222  C223  S    
C19   C139  S    
C214  C215  S    
O48   Zn12  S    
C65   H9    S    
C17   C137  S    
C26   C228  S    
C128  H40   S    
C237  H247  S    
C195  C196  S    
C195  H148  S    
C184  H118  S    
O33   Zn5   S    
C99   C177  S    
C207  H177  S    
C14   C142  S    
O16   Zn12  S    
C4    O20   A    
C135  H31   S    
O11   Zn12  S    
O35   Zn7   S    
C112  C114  A    
C107  C120  A    
C75   C134  A    
C5    C149  S    
C178  H104  S    
C202  H161  S    
C163  H70   S    
C203  H158  S    
C192  H141  S    
C181  H111  S    
C226  C227  S    
C108  C112  A    
C157  H56   S    
C213  H191  S    
C64   C68   A    
C233  H228  S    
C17   C45   S    
C154  H48   S    
C238  C239  S    
O8    Zn12  S    
C155  H47   S    
C19   C47   S    
C122  H34   S    
O2    Zn1   S    
C42   C70   S    
C18   C138  S    
C245  H255  S    
C126  H38   S    
C9    C13   S    
C139  C143  S    
C215  H185  S    
C211  C212  S    
O18   Zn3   S    
C14   I10   S    
C199  H154  S    
C111  C114  A    
C219  C220  S    
C156  H57   S    
C51   C55   A    
C208  H175  S    
C227  H215  S    
C158  H52   S    
O42   Zn6   S    
C164  H67   S    
C171  H93   S    
C207  C208  S    
O39   Zn8   S    
C134  H30   S    
C200  H151  S    
C76   C135  A    
C110  H22   S    
C244  H259  S    
C30   C34   A    
C232  H230  S    
O22   Zn1   S    
C143  I3    S    
C10   C14   S    
C124  H36   S    
C5    C201  S    
C7    C207  S    
C8    C210  S    
C204  H170  S    
C48   O28   A    
C247  H265  S    
C51   I7    S    
C127  H39   S    
C39   H3    S    
C224  H207  S    
C248  H264  S    
C147  C151  S    
C94   O47   A    
C5    C9    S    
C236  H234  S    
C125  C129  A    
C168  H86   S    
C123  C127  A    
C8    C12   S    
C210  H183  S    
C231  C232  S    
C16   I12   S    
O23   Zn2   S    
C78   C123  A    
C230  H221  S    
C10   C146  S    
C15   C143  S    
C153  H50   S    
C112  H24   S    
C26   C30   A    
C108  H20   S    
C172  H91   S    
C223  C224  S    
C246  H267  S    
C104  O16   A    
C219  H204  S    
C227  H213  S    
C75   C132  S    
C162  H71   S    
C133  H29   S    
C21   C25   A    
C245  H257  S    
C211  H182  S    
C107  C111  A    
C12   C222  S    
C1    O1    A    
C148  C152  S    
C74   C84   A    
C191  H130  S    
C155  H45   S    
C32   C36   A    
C81   C133  A    
C92   C102  A    
C95   O5    A    
C66   C70   A    
C166  H76   S    
C240  C241  S    
C160  H63   S    
C2    C30   S    
C167  H75   S    
C45   O25   A    
C79   C113  S    
C143  C147  S    
C93   O45   A    
C194  H136  S    
C179  H103  S    
C59   C97   S    
C139  C151  S    
C198  H155  S    
C197  H144  S    
C37   C41   A    
C188  H123  S    
C49   C53   A    
C77   C121  A    
C205  H167  S    
C67   H11   S    
O19   Zn4   S    
C117  C171  S    
C157  C158  S    
C242  H248  S    
C158  H54   S    
C23   H43   S    
C234  C235  S    
C141  I1    S    
C196  H147  S    
C34   C240  S    
C91   C99   A    
O10   Zn9   S    
C240  H254  S    
C58   C62   A    
C229  H223  S    
C46   O22   A    
C106  C119  A    
C156  C157  S    
C100  C116  A    
C77   C120  S    
C103  O13   A    
C36   C246  S    
C239  H242  S    
C15   C19   S    
C180  H114  S    
C86   O38   A    
C87   C147  S    
C90   O43   A    
C235  C236  S    
C236  H236  S    
C99   C115  A    
C225  C226  S    
C5    C17   S    
C202  C203  S    
C24   H44   S    
C214  H188  S    
C86   C146  S    
C55   C159  S    
C165  H78   S    
C66   H10   S    
C159  C160  S    
C201  H162  S    
O17   Zn3   S    
C184  C185  S    
C105  C109  A    
O3    Zn2   S    
O28   Zn4   S    
C159  H65   S    
C229  H224  S    
C62   H6    S    
C220  H203  S    
O12   Zn11  S    
C13   C141  S    
C216  H198  S    
C79   O30   A    
C124  C128  A    
C186  H128  S    
C228  H225  S    
C235  H238  S    
C210  C211  S    
C182  H109  S    
C201  C202  S    
C104  C130  S    
C212  H179  S    
C149  C189  S    
C115  C165  S    
C15   I11   S    
C97   O7    A    
C18   C46   S    
O38   Zn5   S    
C174  H99   S    
C217  C218  S    
C176  H95   S    
C170  H81   S    
C183  H121  S    
C206  H165  S    
C151  C195  S    
C52   I8    S    
C190  H133  S    
C246  C247  S    
C86   O34   A    
C89   O41   A    
C193  C194  S    
C138  C142  S    
C194  H138  S    
C179  H101  S    
C49   I5    S    
C187  H125  S    
C234  H239  S    
C244  C245  S    
C33   C37   A    
C102  C186  S    
C167  H73   S    
C222  H212  S    
C28   C234  S    
C35   C39   A    
C238  H245  S    
C237  C238  S    
C37   H1    S    
C6    C204  S    
C91   C93   S    
C161  H59   S    
C242  H250  S    
C52   C72   A    
C136  H32   S    
C161  H61   S    
C217  H196  S    
C185  H116  S    
C80   O32   A    
C103  C129  S    
C20   C48   S    
C92   C101  A    
C7    C151  S    
C169  H83   S    
O44   Zn8   S    
C196  H146  S    
C1    O17   A    
C223  H209  S    
C24   C44   A    
C111  H23   S    
C193  H140  S    
C184  H119  S    
C73   C82   A    
C162  C163  S    
C209  H171  S    
C189  C190  S    
C50   I6    S    
C207  H176  S    
O30   Zn6   S    
C137  C141  S    
C84   C136  A    
C53   C57   A    
C8    C152  S    
C64   H8    S    
C140  C144  S    
C85   C145  S    
C128  C130  A    
C193  H139  S    
C6    C10   S    
C100  C180  S    
C192  C193  S    
C75   C133  A    
C178  H105  S    
C13   C17   S    
C181  H112  S    
C177  H107  S    
C27   C231  S    
C213  H190  S    
C20   C140  S    
C190  C191  S    
C209  H173  S    
C73   C89   S    
C173  H87   S    
C11   C219  S    
C154  H49   S    
C155  H46   S    
C11   C147  S    
C226  H216  S    
C65   C69   A    
C9    C145  S    
C10   C216  S    
C221  H201  S    
C67   C71   A    
C171  C172  S    
C152  C198  S    
C6    C150  S    
C56   C60   A    
C215  H187  S    
C54   C58   A    
C165  C166  S    
C22   C26   A    
C25   C225  S    
C196  C197  S    
C105  C119  A    
C145  C149  S    
O32   Zn8   S    
C225  H219  S    
C95   O9    A    
C227  H214  S    
C208  C209  S    
C45   O21   A    
C164  H66   S    
C14   C18   S    
C171  H92   S    
C185  H115  S    
C241  C242  S    
C243  H261  S    
C144  C148  S    
C200  H150  S    
C76   C136  A    
C228  C229  S    
C115  C131  A    
C138  C150  S    
C7    C11   S    
C8    C20   S    
C232  H231  S    
C231  H233  S    
C98   O8    A    
C2    O2    A    
C38   C42   A    
C218  H194  S    
C61   H5    S    
C160  C161  S    
C116  C168  S    
C214  H189  S    
C204  H169  S    
C157  H55   S    
C247  H266  S    
C153  C154  S    
C233  H227  S    
C224  H206  S    
C57   C61   A    
C248  H263  S    
C94   O48   A    
C181  C182  S    
C58   C96   S    
C168  H85   S    
C121  C125  A    
C150  C192  S    
O14   Zn10  S    
C229  C230  S    
C175  H98   S    
C197  H143  S    
C23   C27   A    
C13   I9    S    
C195  H149  S    
C83   C135  A    
C102  C118  A    
C16   C20   S    
O41   Zn5   S    
C78   C119  S    
C1    C29   S    
C174  H100  S    
C202  H160  S    
C163  H69   S    
C88   O40   A    
C203  H159  S    
C63   C67   A    
C192  H142  S    
C245  H256  S    
O43   Zn7   S    
C36   C40   A    
C233  H229  S    
C118  C132  A    
C218  H192  S    
O4    Zn2   S    
C239  H241  S    
C54   C156  S    
C39   C43   A    
C87   O39   A    
C47   O23   A    
C33   C237  S    
C167  H74   S    
C122  C126  A    
C175  H97   S    
C179  H102  S    
C48   O24   A    
C3    O3    A    
C198  C199  S    
C4    O4    A    
C213  C214  S    
C189  H134  S    
C199  H153  S    
C97   O11   A    
C156  H58   S    
C110  C113  A    
C188  H122  S    
C205  H168  S    
C208  H174  S    
C56   C162  S    
C80   C114  S    
C158  H53   S    
O46   Zn10  S    
C164  H68   S    
C21   C41   A    
C38   H2    S    
O40   Zn7   S    
C101  C183  S    
C138  H26   S    
C221  H199  S    
C200  H152  S    
C78   C124  A    
C187  C188  S    
C240  H253  S    
C230  H220  S    
C244  H258  S    
O24   Zn2   S    
C228  H226  S    
O29   Zn5   S    
C88   O36   A    
C34   C38   A    
C40   H4    S    
C96   O10   A    
O45   Zn9   S    
C173  H89   S    
C109  C113  A    
O27   Zn4   S    
C180  H113  S    
C90   O44   A    
C35   C243  S    
C224  H208  S    
C21   H41   S    
C12   C148  S    
C219  H205  S    
C127  C130  A    
C168  C169  S    
C236  H235  S    
C243  C244  S    
C22   C42   A    
C116  C131  A    
C173  H88   S    
C87   O35   A    
C210  H184  S    
C31   C35   A    
C123  H35   S    
C170  H80   S    
C144  I4    S    
C230  H222  S    
C154  C155  S    
C121  H33   S    
C204  C205  S    
C153  H51   S    
C137  H25   S    
C106  C110  A    
C57   C95   S    
C159  H64   S    
C172  H90   S    
O5    Zn9   S    
C81   H13   S    
C22   H42   S    
C125  H37   S    
C246  H268  S    
C104  O15   A    
C216  H197  S    
C177  C178  S    
O34   Zn6   S    
C237  H246  S    
C79   O29   A    
O9    Zn10  S    
C52   C56   A    
C162  H72   S    
C186  H127  S    
