data_mof_unit_62088.cif
_audit_creation_date              2013-03-05T16:33:29-0500
_audit_creation_method            fapswitch 2.2
_symmetry_space_group_name_H-M    P1
_symmetry_Int_Tables_number       1
_space_group_crystal_system       cubic
_cell_length_a                    35.66645
_cell_length_b                    35.66645
_cell_length_c                    35.66645
_cell_angle_alpha                 90.0
_cell_angle_beta                  90.0
_cell_angle_gamma                 90.0
_cell_volume                      45371.1360958

loop_
_atom_site_label
_atom_site_type_symbol
_atom_site_description
_atom_site_fract_x
_atom_site_fract_y
_atom_site_fract_z
_atom_type_partial_charge
O1    O     O_R   0.968580 0.500050 0.554330 -0.544010
O2    O     O_R   0.968580 0.445670 0.500050 -0.544010
O3    O     O_R   0.968580 0.499950 0.445670 -0.544010
O4    O     O_R   0.968580 0.554330 0.499950 -0.544009
O5    O     O_R   0.031420 0.499950 0.554330 -0.544010
O6    O     O_R   0.031420 0.554330 0.500050 -0.544010
O7    O     O_R   0.031420 0.500050 0.445670 -0.544010
O8    O     O_R   0.031420 0.445670 0.499950 -0.544010
O9    O     O_R   0.500050 0.445670 0.031420 -0.544010
O10   O     O_R   0.445670 0.499950 0.031420 -0.544010
O11   O     O_R   0.499950 0.554330 0.031420 -0.544010
O12   O     O_R   0.554330 0.500050 0.031420 -0.544010
O13   O     O_R   0.499950 0.445670 0.968580 -0.544010
O14   O     O_R   0.554330 0.499950 0.968580 -0.544010
O15   O     O_R   0.500050 0.554330 0.968580 -0.544010
O16   O     O_R   0.445670 0.500050 0.968580 -0.544010
O17   O     O_R   0.445670 0.968580 0.499950 -0.544010
O18   O     O_R   0.499950 0.968580 0.554330 -0.544010
O19   O     O_R   0.554330 0.968580 0.500050 -0.544010
O20   O     O_R   0.500050 0.968580 0.445670 -0.544010
O21   O     O_R   0.445670 0.031420 0.500050 -0.544010
O22   O     O_R   0.499950 0.031420 0.445670 -0.544010
O23   O     O_R   0.554330 0.031420 0.499950 -0.544010
O24   O     O_R   0.500050 0.031420 0.554330 -0.544010
O25   O     O_R   0.468580 0.000050 0.054330 -0.544010
O26   O     O_R   0.468580 0.945670 0.000050 -0.544010
O27   O     O_R   0.468580 0.999950 0.945670 -0.544010
O28   O     O_R   0.468580 0.054330 0.999950 -0.544009
O29   O     O_R   0.531420 0.999950 0.054330 -0.544010
O30   O     O_R   0.531420 0.054330 0.000050 -0.544010
O31   O     O_R   0.531420 0.000050 0.945670 -0.544010
O32   O     O_R   0.531420 0.945670 0.999950 -0.544010
O33   O     O_R   0.000050 0.945670 0.531420 -0.544010
O34   O     O_R   0.945670 0.999950 0.531420 -0.544010
O35   O     O_R   0.999950 0.054330 0.531420 -0.544010
O36   O     O_R   0.054330 0.000050 0.531420 -0.544010
O37   O     O_R   0.999950 0.945670 0.468580 -0.544010
O38   O     O_R   0.054330 0.999950 0.468580 -0.544010
O39   O     O_R   0.000050 0.054330 0.468580 -0.544010
O40   O     O_R   0.945670 0.000050 0.468580 -0.544010
O41   O     O_R   0.945670 0.468580 0.999950 -0.544010
O42   O     O_R   0.999950 0.468580 0.054330 -0.544010
O43   O     O_R   0.054330 0.468580 0.000050 -0.544010
O44   O     O_R   0.000050 0.468580 0.945670 -0.544010
O45   O     O_R   0.945670 0.531420 0.000050 -0.544010
O46   O     O_R   0.999950 0.531420 0.945670 -0.544010
O47   O     O_R   0.054330 0.531420 0.999950 -0.544010
O48   O     O_R   0.000050 0.531420 0.054330 -0.544010
C1    C     C_R   1.000000 0.500000 0.572279 0.919778
C2    C     C_R   0.000000 0.427721 0.500000 0.919779
C3    C     C_R   0.000000 0.500000 0.427721 0.919780
C4    C     C_R   1.000000 0.572279 0.500000 0.919779
C5    C     C_R   0.500000 0.427721 0.000000 0.919779
C6    C     C_R   0.427721 0.500000 0.000000 0.919779
C7    C     C_R   0.500000 0.572279 0.000000 0.919779
C8    C     C_R   0.572279 0.500000 0.000000 0.919778
C9    C     C_R   0.427721 0.000000 0.500000 0.919779
C10   C     C_R   0.500000 1.000000 0.572279 0.919779
C11   C     C_R   0.572279 0.000000 0.500000 0.919779
C12   C     C_R   0.500000 0.000000 0.427721 0.919778
C13   C     C_R   0.500000 0.000000 0.072279 0.919778
C14   C     C_R   0.500000 0.927721 0.000000 0.919779
C15   C     C_R   0.500000 1.000000 0.927721 0.919780
C16   C     C_R   0.500000 0.072279 0.000000 0.919779
C17   C     C_R   1.000000 0.927721 0.500000 0.919779
C18   C     C_R   0.927721 0.000000 0.500000 0.919779
C19   C     C_R   1.000000 0.072279 0.500000 0.919779
C20   C     C_R   0.072279 0.000000 0.500000 0.919778
C21   C     C_R   0.927721 0.500000 0.000000 0.919779
C22   C     C_R   1.000000 0.500000 0.072279 0.919779
C23   C     C_R   0.072279 0.500000 0.000000 0.919779
C24   C     C_R   1.000000 0.500000 0.927721 0.919778
Cu1   Cu    Cu3+1 0.962780 0.500000 0.500000 1.217323
Cu2   Cu    Cu3+1 0.037220 0.500000 0.500000 1.217323
Cu3   Cu    Cu3+1 0.500000 0.500000 0.037220 1.217323
Cu4   Cu    Cu3+1 0.500000 0.500000 0.962780 1.217323
Cu5   Cu    Cu3+1 0.500000 0.962780 0.500000 1.217323
Cu6   Cu    Cu3+1 0.500000 0.037220 0.500000 1.217323
Cu7   Cu    Cu3+1 0.462780 0.000000 0.000000 1.217323
Cu8   Cu    Cu3+1 0.537220 0.000000 0.000000 1.217323
Cu9   Cu    Cu3+1 1.000000 1.000000 0.537220 1.217323
Cu10  Cu    Cu3+1 0.000000 0.000000 0.462780 1.217323
Cu11  Cu    Cu3+1 0.000000 0.462780 0.000000 1.217323
Cu12  Cu    Cu3+1 1.000000 0.537220 0.000000 1.217323
C25   C     C_R   0.021706 0.173272 0.525983 -0.163346
C26   C     C_R   0.021706 0.474017 0.173272 -0.163346
C27   C     C_R   0.021706 0.826728 0.474017 -0.163346
C28   C     C_R   0.021706 0.525983 0.826728 -0.163346
C29   C     C_R   0.978294 0.826728 0.525983 -0.163345
C30   C     C_R   0.978294 0.525983 0.173272 -0.163345
C31   C     C_R   0.978294 0.173272 0.474017 -0.163346
C32   C     C_R   0.978294 0.474017 0.826728 -0.163346
C33   C     C_R   0.173272 0.474017 0.978294 -0.163345
C34   C     C_R   0.474017 0.826728 0.978294 -0.163345
C35   C     C_R   0.826728 0.525983 0.978294 -0.163346
C36   C     C_R   0.525983 0.173272 0.978294 -0.163345
C37   C     C_R   0.826728 0.474017 0.021706 -0.163346
C38   C     C_R   0.525983 0.826728 0.021706 -0.163345
C39   C     C_R   0.173272 0.525983 0.021706 -0.163345
C40   C     C_R   0.474017 0.173272 0.021706 -0.163346
C41   C     C_R   0.474017 0.021706 0.826728 -0.163345
C42   C     C_R   0.826728 0.021706 0.525983 -0.163345
C43   C     C_R   0.525983 0.021706 0.173272 -0.163346
C44   C     C_R   0.173272 0.021706 0.474017 -0.163345
C45   C     C_R   0.474017 0.978294 0.173272 -0.163346
C46   C     C_R   0.826728 0.978294 0.474017 -0.163346
C47   C     C_R   0.525983 0.978294 0.826728 -0.163346
C48   C     C_R   0.173272 0.978294 0.525983 -0.163346
C49   C     C_R   0.521706 0.673272 0.025983 -0.163346
C50   C     C_R   0.521706 0.974017 0.673272 -0.163346
C51   C     C_R   0.521706 0.326728 0.974017 -0.163346
C52   C     C_R   0.521706 0.025983 0.326728 -0.163346
C53   C     C_R   0.478294 0.326728 0.025983 -0.163345
C54   C     C_R   0.478294 0.025983 0.673272 -0.163345
C55   C     C_R   0.478294 0.673272 0.974017 -0.163346
C56   C     C_R   0.478294 0.974017 0.326728 -0.163346
C57   C     C_R   0.673272 0.974017 0.478294 -0.163345
C58   C     C_R   0.974017 0.326728 0.478294 -0.163345
C59   C     C_R   0.326728 0.025983 0.478294 -0.163346
C60   C     C_R   0.025983 0.673272 0.478294 -0.163345
C61   C     C_R   0.326728 0.974017 0.521706 -0.163346
C62   C     C_R   0.025983 0.326728 0.521706 -0.163345
C63   C     C_R   0.673272 0.025983 0.521706 -0.163345
C64   C     C_R   0.974017 0.673272 0.521706 -0.163346
C65   C     C_R   0.974017 0.521706 0.326728 -0.163345
C66   C     C_R   0.326728 0.521706 0.025983 -0.163345
C67   C     C_R   0.025983 0.521706 0.673272 -0.163346
C68   C     C_R   0.673272 0.521706 0.974017 -0.163345
C69   C     C_R   0.974017 0.478294 0.673272 -0.163346
C70   C     C_R   0.326728 0.478294 0.974017 -0.163346
C71   C     C_R   0.025983 0.478294 0.326728 -0.163346
C72   C     C_R   0.673272 0.478294 0.025983 -0.163346
H1    H     H_    0.038886 0.188730 0.545724 0.194118
H2    H     H_    0.038886 0.454276 0.188730 0.194118
H3    H     H_    0.038886 0.811270 0.454275 0.194117
H4    H     H_    0.038886 0.545724 0.811270 0.194117
H5    H     H_    0.961114 0.811270 0.545724 0.194118
H6    H     H_    0.961114 0.545724 0.188730 0.194117
H7    H     H_    0.961114 0.188730 0.454276 0.194117
H8    H     H_    0.961114 0.454275 0.811270 0.194117
H9    H     H_    0.188730 0.454275 0.961114 0.194117
H10   H     H_    0.454275 0.811270 0.961114 0.194117
H11   H     H_    0.811270 0.545724 0.961114 0.194117
H12   H     H_    0.545724 0.188730 0.961114 0.194117
H13   H     H_    0.811270 0.454275 0.038886 0.194117
H14   H     H_    0.545724 0.811270 0.038886 0.194117
H15   H     H_    0.188730 0.545724 0.038886 0.194117
H16   H     H_    0.454275 0.188730 0.038886 0.194117
H17   H     H_    0.454276 0.038886 0.811270 0.194117
H18   H     H_    0.811270 0.038886 0.545724 0.194117
H19   H     H_    0.545724 0.038886 0.188730 0.194117
H20   H     H_    0.188730 0.038886 0.454275 0.194118
H21   H     H_    0.454276 0.961114 0.188730 0.194117
H22   H     H_    0.811270 0.961114 0.454276 0.194118
H23   H     H_    0.545724 0.961114 0.811270 0.194118
H24   H     H_    0.188730 0.961114 0.545724 0.194117
H25   H     H_    0.538886 0.688730 0.045724 0.194118
H26   H     H_    0.538886 0.954276 0.688730 0.194118
H27   H     H_    0.538886 0.311270 0.954276 0.194117
H28   H     H_    0.538886 0.045724 0.311270 0.194117
H29   H     H_    0.461114 0.311270 0.045724 0.194118
H30   H     H_    0.461114 0.045724 0.688730 0.194117
H31   H     H_    0.461114 0.688730 0.954276 0.194117
H32   H     H_    0.461114 0.954276 0.311270 0.194117
H33   H     H_    0.688730 0.954275 0.461114 0.194117
H34   H     H_    0.954276 0.311270 0.461114 0.194117
H35   H     H_    0.311270 0.045724 0.461114 0.194117
H36   H     H_    0.045724 0.688730 0.461114 0.194117
H37   H     H_    0.311270 0.954276 0.538886 0.194117
H38   H     H_    0.045724 0.311270 0.538886 0.194117
H39   H     H_    0.688730 0.045724 0.538886 0.194117
H40   H     H_    0.954276 0.688730 0.538886 0.194117
H41   H     H_    0.954276 0.538886 0.311270 0.194117
H42   H     H_    0.311270 0.538886 0.045724 0.194117
H43   H     H_    0.045724 0.538886 0.688730 0.194117
H44   H     H_    0.688730 0.538886 0.954276 0.194118
H45   H     H_    0.954276 0.461114 0.688730 0.194117
H46   H     H_    0.311270 0.461114 0.954276 0.194118
H47   H     H_    0.045724 0.461114 0.311270 0.194118
H48   H     H_    0.688730 0.461114 0.045724 0.194117
C73   C     C_R   0.022502 0.133957 0.526005 0.302750
C74   C     C_R   0.022502 0.473995 0.133957 0.302750
C75   C     C_R   0.022502 0.866043 0.473994 0.302751
C76   C     C_R   0.022502 0.526005 0.866043 0.302752
C77   C     C_R   0.977498 0.866043 0.526005 0.302751
C78   C     C_R   0.977498 0.526005 0.133957 0.302751
C79   C     C_R   0.977498 0.133957 0.473995 0.302750
C80   C     C_R   0.977498 0.473995 0.866043 0.302751
C81   C     C_R   0.133957 0.473995 0.977498 0.302750
C82   C     C_R   0.473995 0.866043 0.977498 0.302751
C83   C     C_R   0.866043 0.526005 0.977498 0.302751
C84   C     C_R   0.526005 0.133957 0.977498 0.302752
C85   C     C_R   0.866043 0.473994 0.022502 0.302752
C86   C     C_R   0.526005 0.866043 0.022502 0.302750
C87   C     C_R   0.133957 0.526005 0.022502 0.302751
C88   C     C_R   0.473994 0.133957 0.022502 0.302751
C89   C     C_R   0.473995 0.022502 0.866043 0.302751
C90   C     C_R   0.866043 0.022502 0.526005 0.302750
C91   C     C_R   0.526005 0.022502 0.133957 0.302751
C92   C     C_R   0.133957 0.022502 0.473995 0.302750
C93   C     C_R   0.473995 0.977498 0.133957 0.302752
C94   C     C_R   0.866043 0.977498 0.473995 0.302751
C95   C     C_R   0.526005 0.977498 0.866043 0.302750
C96   C     C_R   0.133957 0.977498 0.526005 0.302751
C97   C     C_R   0.522502 0.633957 0.026005 0.302750
C98   C     C_R   0.522502 0.973995 0.633957 0.302750
C99   C     C_R   0.522502 0.366043 0.973994 0.302751
C100  C     C_R   0.522502 0.026005 0.366043 0.302752
C101  C     C_R   0.477498 0.366043 0.026005 0.302751
C102  C     C_R   0.477498 0.026005 0.633957 0.302751
C103  C     C_R   0.477498 0.633957 0.973995 0.302750
C104  C     C_R   0.477498 0.973994 0.366043 0.302751
C105  C     C_R   0.633957 0.973994 0.477498 0.302750
C106  C     C_R   0.973994 0.366043 0.477498 0.302751
C107  C     C_R   0.366043 0.026005 0.477498 0.302751
C108  C     C_R   0.026005 0.633957 0.477498 0.302752
C109  C     C_R   0.366043 0.973994 0.522502 0.302752
C110  C     C_R   0.026005 0.366043 0.522501 0.302750
C111  C     C_R   0.633957 0.026005 0.522501 0.302751
C112  C     C_R   0.973994 0.633957 0.522502 0.302751
C113  C     C_R   0.973995 0.522502 0.366043 0.302751
C114  C     C_R   0.366043 0.522502 0.026005 0.302750
C115  C     C_R   0.026005 0.522502 0.633957 0.302751
C116  C     C_R   0.633957 0.522502 0.973995 0.302750
C117  C     C_R   0.973994 0.477498 0.633957 0.302752
C118  C     C_R   0.366043 0.477498 0.973995 0.302751
C119  C     C_R   0.026005 0.477498 0.366043 0.302750
C120  C     C_R   0.633957 0.477498 0.026005 0.302751
C121  C     C_R   1.000000 0.113796 0.500000 -0.234822
C122  C     C_R   1.000000 0.500000 0.113796 -0.234823
C123  C     C_R   1.000000 0.886204 0.500000 -0.234822
C124  C     C_R   1.000000 0.500000 0.886204 -0.234822
C125  C     C_R   0.113796 0.500000 0.000000 -0.234822
C126  C     C_R   0.500000 0.886204 0.000000 -0.234822
C127  C     C_R   0.886204 0.500000 0.000000 -0.234822
C128  C     C_R   0.500000 0.113796 0.000000 -0.234822
C129  C     C_R   0.500000 0.000000 0.886204 -0.234822
C130  C     C_R   0.886204 1.000000 0.500000 -0.234822
C131  C     C_R   0.500000 0.000000 0.113796 -0.234822
C132  C     C_R   0.113796 0.000000 0.500000 -0.234822
C133  C     C_R   0.500000 0.613796 0.000000 -0.234822
C134  C     C_R   0.500000 1.000000 0.613796 -0.234823
C135  C     C_R   0.500000 0.386204 0.000000 -0.234822
C136  C     C_R   0.500000 0.000000 0.386204 -0.234822
C137  C     C_R   0.613796 0.000000 0.500000 -0.234822
C138  C     C_R   0.000000 0.386204 0.500000 -0.234822
C139  C     C_R   0.386204 0.000000 0.500000 -0.234822
C140  C     C_R   1.000000 0.613796 0.500000 -0.234822
C141  C     C_R   0.000000 0.500000 0.386204 -0.234822
C142  C     C_R   0.386204 0.500000 0.000000 -0.234822
C143  C     C_R   1.000000 0.500000 0.613796 -0.234822
C144  C     C_R   0.613796 0.500000 0.000000 -0.234822
C145  C     C_R   1.000000 0.192801 0.500000 -0.002899
C146  C     C_R   1.000000 0.500000 0.192801 -0.002900
C147  C     C_R   1.000000 0.807199 0.500000 -0.002900
C148  C     C_R   0.000000 0.500000 0.807199 -0.002899
C149  C     C_R   0.192801 0.500000 0.000000 -0.002900
C150  C     C_R   0.500000 0.807199 0.000000 -0.002900
C151  C     C_R   0.807199 0.500000 0.000000 -0.002900
C152  C     C_R   0.500000 0.192801 0.000000 -0.002900
C153  C     C_R   0.500000 0.000000 0.807199 -0.002900
C154  C     C_R   0.807199 1.000000 0.500000 -0.002899
C155  C     C_R   0.500000 1.000000 0.192801 -0.002899
C156  C     C_R   0.192801 0.000000 0.500000 -0.002900
C157  C     C_R   0.500000 0.692801 0.000000 -0.002899
C158  C     C_R   0.500000 0.000000 0.692801 -0.002900
C159  C     C_R   0.500000 0.307199 0.000000 -0.002900
C160  C     C_R   0.500000 0.000000 0.307199 -0.002899
C161  C     C_R   0.692801 1.000000 0.500000 -0.002900
C162  C     C_R   1.000000 0.307199 0.500000 -0.002900
C163  C     C_R   0.307199 0.000000 0.500000 -0.002900
C164  C     C_R   1.000000 0.692801 0.500000 -0.002900
C165  C     C_R   1.000000 0.500000 0.307199 -0.002900
C166  C     C_R   0.307199 0.500000 0.000000 -0.002899
C167  C     C_R   0.000000 0.500000 0.692801 -0.002899
C168  C     C_R   0.692801 0.500000 0.000000 -0.002900
C169  C     C_1   1.000000 0.233114 0.500000 0.048614
C170  C     C_1   1.000000 0.500000 0.233114 0.048614
C171  C     C_1   1.000000 0.766886 0.500000 0.048615
C172  C     C_1   0.000000 0.500000 0.766886 0.048614
C173  C     C_1   0.233114 0.500000 0.000000 0.048614
C174  C     C_1   0.500000 0.766886 0.000000 0.048614
C175  C     C_1   0.766886 0.500000 0.000000 0.048614
C176  C     C_1   0.500000 0.233114 0.000000 0.048614
C177  C     C_1   0.500000 0.000000 0.766886 0.048614
C178  C     C_1   0.766886 1.000000 0.500000 0.048614
C179  C     C_1   0.500000 0.000000 0.233114 0.048614
C180  C     C_1   0.233114 0.000000 0.500000 0.048614
C181  C     C_1   0.500000 0.733114 0.000000 0.048614
C182  C     C_1   0.500000 0.000000 0.733114 0.048614
C183  C     C_1   0.500000 0.266886 0.000000 0.048615
C184  C     C_1   0.500000 0.000000 0.266886 0.048614
C185  C     C_1   0.733114 1.000000 0.500000 0.048614
C186  C     C_1   1.000000 0.266886 0.500000 0.048614
C187  C     C_1   0.266886 0.000000 0.500000 0.048614
C188  C     C_1   1.000000 0.733114 0.500000 0.048614
C189  C     C_1   0.000000 0.500000 0.266886 0.048614
C190  C     C_1   0.266886 0.500000 0.000000 0.048614
C191  C     C_1   0.000000 0.500000 0.733114 0.048614
C192  C     C_1   0.733114 0.500000 0.000000 0.048614
N1    N     N_R   0.047310 0.115208 0.551672 0.149380
O49   O     O_R   0.052592 0.128808 0.585115 -0.287216
O50   O     O_R   0.069140 0.088452 0.539915 -0.321344
N2    N     N_R   0.047310 0.448329 0.115209 0.149381
O51   O     O_R   0.052593 0.414886 0.128808 -0.287217
O52   O     O_R   0.069140 0.460085 0.088452 -0.321344
N3    N     N_R   0.047310 0.884791 0.448328 0.149381
O53   O     O_R   0.052592 0.871192 0.414885 -0.287216
O54   O     O_R   0.069140 0.911547 0.460085 -0.321344
N4    N     N_R   0.047310 0.551672 0.884791 0.149381
O55   O     O_R   0.052592 0.585115 0.871192 -0.287216
O56   O     O_R   0.069140 0.539915 0.911547 -0.321344
N5    N     N_R   0.952690 0.884791 0.551672 0.149381
O57   O     O_R   0.947408 0.871192 0.585115 -0.287216
O58   O     O_R   0.930860 0.911547 0.539915 -0.321344
N6    N     N_R   0.952690 0.551671 0.115209 0.149380
O59   O     O_R   0.947407 0.585114 0.128808 -0.287216
O60   O     O_R   0.930859 0.539915 0.088452 -0.321344
N7    N     N_R   0.952690 0.115208 0.448328 0.149382
O61   O     O_R   0.947408 0.128808 0.414885 -0.287216
O62   O     O_R   0.930860 0.088452 0.460085 -0.321344
N8    N     N_R   0.952690 0.448328 0.884791 0.149381
O63   O     O_R   0.947408 0.414885 0.871192 -0.287216
O64   O     O_R   0.930860 0.460085 0.911547 -0.321343
N9    N     N_R   0.115208 0.448328 0.952690 0.149381
O65   O     O_R   0.128807 0.414885 0.947408 -0.287216
O66   O     O_R   0.088453 0.460085 0.930860 -0.321344
N10   N     N_R   0.448328 0.884791 0.952690 0.149382
O67   O     O_R   0.414885 0.871192 0.947408 -0.287217
O68   O     O_R   0.460085 0.911547 0.930860 -0.321343
N11   N     N_R   0.884791 0.551672 0.952690 0.149381
O69   O     O_R   0.871192 0.585115 0.947408 -0.287216
O70   O     O_R   0.911547 0.539915 0.930860 -0.321344
N12   N     N_R   0.551672 0.115208 0.952690 0.149381
O71   O     O_R   0.585115 0.128808 0.947408 -0.287216
O72   O     O_R   0.539915 0.088452 0.930860 -0.321343
N13   N     N_R   0.884791 0.448328 0.047310 0.149381
O73   O     O_R   0.871192 0.414885 0.052592 -0.287216
O74   O     O_R   0.911547 0.460085 0.069140 -0.321343
N14   N     N_R   0.551672 0.884791 0.047310 0.149381
O75   O     O_R   0.585115 0.871192 0.052592 -0.287216
O76   O     O_R   0.539915 0.911547 0.069140 -0.321344
N15   N     N_R   0.115208 0.551672 0.047310 0.149381
O77   O     O_R   0.128808 0.585115 0.052592 -0.287217
O78   O     O_R   0.088452 0.539915 0.069140 -0.321343
N16   N     N_R   0.448328 0.115208 0.047310 0.149381
O79   O     O_R   0.414885 0.128807 0.052592 -0.287216
O80   O     O_R   0.460085 0.088452 0.069140 -0.321344
N17   N     N_R   0.448329 0.047310 0.884791 0.149380
O81   O     O_R   0.414886 0.052593 0.871192 -0.287216
O82   O     O_R   0.460085 0.069140 0.911548 -0.321344
N18   N     N_R   0.884791 0.047310 0.551672 0.149382
O83   O     O_R   0.871192 0.052592 0.585115 -0.287216
O84   O     O_R   0.911547 0.069140 0.539915 -0.321344
N19   N     N_R   0.551672 0.047310 0.115209 0.149381
O85   O     O_R   0.585115 0.052592 0.128807 -0.287216
O86   O     O_R   0.539915 0.069140 0.088453 -0.321344
N20   N     N_R   0.115208 0.047310 0.448328 0.149381
O87   O     O_R   0.128808 0.052592 0.414885 -0.287216
O88   O     O_R   0.088452 0.069140 0.460085 -0.321344
N21   N     N_R   0.448328 0.952690 0.115209 0.149381
O89   O     O_R   0.414885 0.947408 0.128807 -0.287216
O90   O     O_R   0.460085 0.930860 0.088453 -0.321344
N22   N     N_R   0.884791 0.952690 0.448328 0.149381
O91   O     O_R   0.871192 0.947408 0.414885 -0.287216
O92   O     O_R   0.911548 0.930860 0.460085 -0.321343
N23   N     N_R   0.551671 0.952690 0.884791 0.149381
O93   O     O_R   0.585114 0.947407 0.871192 -0.287217
O94   O     O_R   0.539915 0.930859 0.911548 -0.321344
N24   N     N_R   0.115208 0.952690 0.551672 0.149381
O95   O     O_R   0.128807 0.947408 0.585115 -0.287216
O96   O     O_R   0.088453 0.930860 0.539915 -0.321344
N25   N     N_R   0.547310 0.615208 0.051672 0.149380
O97   O     O_R   0.552592 0.628808 0.085115 -0.287216
O98   O     O_R   0.569140 0.588452 0.039915 -0.321344
N26   N     N_R   0.547310 0.948328 0.615208 0.149381
O99   O     O_R   0.552593 0.914886 0.628808 -0.287217
O100  O     O_R   0.569140 0.960085 0.588452 -0.321344
N27   N     N_R   0.547310 0.384791 0.948328 0.149381
O101  O     O_R   0.552592 0.371192 0.914885 -0.287216
O102  O     O_R   0.569140 0.411547 0.960085 -0.321344
N28   N     N_R   0.547310 0.051672 0.384791 0.149381
O103  O     O_R   0.552592 0.085115 0.371192 -0.287216
O104  O     O_R   0.569140 0.039915 0.411547 -0.321344
N29   N     N_R   0.452690 0.384791 0.051672 0.149381
O105  O     O_R   0.447408 0.371192 0.085115 -0.287216
O106  O     O_R   0.430860 0.411548 0.039915 -0.321344
N30   N     N_R   0.452690 0.051671 0.615208 0.149380
O107  O     O_R   0.447407 0.085114 0.628808 -0.287216
O108  O     O_R   0.430859 0.039915 0.588452 -0.321344
N31   N     N_R   0.452690 0.615208 0.948328 0.149382
O109  O     O_R   0.447408 0.628808 0.914885 -0.287216
O110  O     O_R   0.430860 0.588452 0.960085 -0.321344
N32   N     N_R   0.452690 0.948328 0.384791 0.149381
O111  O     O_R   0.447408 0.914885 0.371192 -0.287216
O112  O     O_R   0.430860 0.960085 0.411547 -0.321343
N33   N     N_R   0.615208 0.948328 0.452690 0.149381
O113  O     O_R   0.628807 0.914885 0.447408 -0.287216
O114  O     O_R   0.588452 0.960085 0.430860 -0.321344
N34   N     N_R   0.948328 0.384791 0.452690 0.149382
O115  O     O_R   0.914885 0.371192 0.447408 -0.287217
O116  O     O_R   0.960085 0.411548 0.430860 -0.321343
N35   N     N_R   0.384792 0.051672 0.452690 0.149381
O117  O     O_R   0.371192 0.085115 0.447408 -0.287216
O118  O     O_R   0.411548 0.039915 0.430860 -0.321344
N36   N     N_R   0.051672 0.615208 0.452690 0.149381
O119  O     O_R   0.085115 0.628808 0.447408 -0.287216
O120  O     O_R   0.039915 0.588452 0.430860 -0.321343
N37   N     N_R   0.384791 0.948328 0.547310 0.149381
O121  O     O_R   0.371192 0.914885 0.552592 -0.287216
O122  O     O_R   0.411548 0.960085 0.569140 -0.321343
N38   N     N_R   0.051672 0.384791 0.547310 0.149381
O123  O     O_R   0.085115 0.371192 0.552592 -0.287216
O124  O     O_R   0.039915 0.411547 0.569140 -0.321344
N39   N     N_R   0.615208 0.051672 0.547310 0.149381
O125  O     O_R   0.628808 0.085115 0.552592 -0.287217
O126  O     O_R   0.588452 0.039915 0.569140 -0.321343
N40   N     N_R   0.948328 0.615208 0.547310 0.149381
O127  O     O_R   0.914885 0.628807 0.552592 -0.287216
O128  O     O_R   0.960085 0.588452 0.569140 -0.321344
N41   N     N_R   0.948328 0.547310 0.384791 0.149380
O129  O     O_R   0.914886 0.552593 0.371192 -0.287216
O130  O     O_R   0.960085 0.569140 0.411548 -0.321344
N42   N     N_R   0.384791 0.547310 0.051672 0.149382
O131  O     O_R   0.371192 0.552592 0.085115 -0.287216
O132  O     O_R   0.411548 0.569140 0.039915 -0.321344
N43   N     N_R   0.051672 0.547310 0.615208 0.149381
O133  O     O_R   0.085115 0.552592 0.628807 -0.287216
O134  O     O_R   0.039915 0.569140 0.588452 -0.321344
N44   N     N_R   0.615208 0.547310 0.948328 0.149381
O135  O     O_R   0.628808 0.552592 0.914885 -0.287216
O136  O     O_R   0.588452 0.569140 0.960085 -0.321344
N45   N     N_R   0.948328 0.452690 0.615208 0.149381
O137  O     O_R   0.914885 0.447408 0.628807 -0.287216
O138  O     O_R   0.960085 0.430860 0.588452 -0.321344
N46   N     N_R   0.384791 0.452690 0.948328 0.149381
O139  O     O_R   0.371192 0.447408 0.914885 -0.287216
O140  O     O_R   0.411548 0.430860 0.960085 -0.321343
N47   N     N_R   0.051671 0.452690 0.384791 0.149381
O141  O     O_R   0.085114 0.447407 0.371192 -0.287217
O142  O     O_R   0.039915 0.430860 0.411548 -0.321344
N48   N     N_R   0.615208 0.452690 0.051672 0.149381
O143  O     O_R   0.628807 0.447408 0.085115 -0.287216
O144  O     O_R   0.588452 0.430860 0.039915 -0.321344

loop_
_geom_bond_atom_site_label_1
_geom_bond_atom_site_label_2
_geom_bond_distance
_ccdc_geom_bond_type
N8    O64   1.301060 A    
N43   O133  1.301343 A    
C64   C112  1.402514 A    
C107  C139  1.421780 A    
C14   C126  1.480778 S    
O8    C2    1.290596 A    
C119  N47   1.438079 S    
C48   C96   1.402514 A    
C9    C139  1.480778 S    
C68   C116  1.402514 A    
N13   O73   1.301344 A    
O11   C7    1.290596 A    
C65   C165  1.394033 A    
N1    O49   1.301345 A    
C100  N28   1.438077 S    
O48   C22   1.290596 A    
N35   O118  1.301057 A    
C71   C165  1.394032 A    
N33   O114  1.301058 A    
O22   C12   1.290596 A    
C86   N14   1.438081 S    
C72   C168  1.394031 A    
C39   C87   1.402514 A    
C74   N2    1.438079 S    
O5    Cu2   1.948770 S    
C87   N15   1.438080 S    
C26   H2    1.084051 S    
C62   H38   1.084054 S    
C42   C154  1.394031 A    
C105  N33   1.438081 S    
O34   Cu9   1.948773 S    
C160  C184  1.437814 S    
C52   C160  1.394029 A    
C109  N37   1.438077 S    
C66   H42   1.084052 S    
C38   C150  1.394029 A    
C112  C140  1.421780 A    
C117  C143  1.421782 A    
C157  C181  1.437814 S    
O5    C1    1.290596 A    
C115  N43   1.438077 S    
C86   C126  1.421776 A    
C4    C140  1.480778 S    
C152  C176  1.437814 S    
C167  C191  1.437814 S    
C93   C131  1.421782 A    
C153  C177  1.437814 S    
C40   C88   1.402514 A    
N4    O56   1.301061 A    
C155  C179  1.437814 S    
O45   C21   1.290596 A    
C13   C131  1.480778 S    
O31   Cu8   1.948773 S    
N14   O75   1.301347 A    
O22   Cu6   1.948773 S    
C20   C132  1.480778 S    
C112  N40   1.438079 S    
C30   C78   1.402514 A    
N6    O59   1.301347 A    
O14   Cu4   1.948770 S    
C88   N16   1.438079 S    
Cu3   Cu4   2.655007 S    
C53   C159  1.394031 A    
O40   Cu10  1.948773 S    
C36   H12   1.084053 S    
C90   N18   1.438082 S    
N19   O85   1.301343 A    
C64   H40   1.084052 S    
C25   H1    1.084052 S    
C45   C155  1.394033 A    
N18   O83   1.301344 A    
O8    Cu2   1.948773 S    
C47   C153  1.394032 A    
C57   C105  1.402514 A    
C52   C100  1.402514 A    
C33   C149  1.394031 A    
N34   O116  1.301059 A    
N36   O120  1.301060 A    
C59   H35   1.084052 S    
N46   O139  1.301345 A    
C60   H36   1.084053 S    
N44   O136  1.301058 A    
O41   C21   1.290599 A    
C39   H15   1.084051 S    
O43   C23   1.290599 A    
C52   H28   1.084052 S    
C37   H13   1.084053 S    
O42   Cu11  1.948770 S    
C109  C139  1.421780 A    
C67   C167  1.394029 A    
C173  C190  1.204534 T    
C15   C129  1.480778 S    
C57   C161  1.394031 A    
O36   C20   1.290596 A    
C78   C122  1.421779 A    
C108  C140  1.421780 A    
C59   C163  1.394031 A    
C60   C164  1.394033 A    
C29   C77   1.402514 A    
C44   H20   1.084052 S    
N25   O98   1.301061 A    
O32   C14   1.290596 A    
O29   Cu8   1.948770 S    
C159  C183  1.437814 S    
O44   C24   1.290599 A    
C55   H31   1.084052 S    
O16   C6    1.290599 A    
N32   O111  1.301343 A    
C53   H29   1.084052 S    
C79   C121  1.421780 A    
C70   C118  1.402514 A    
O12   Cu3   1.948770 S    
C44   C156  1.394033 A    
O6    C4    1.290596 A    
N37   O121  1.301344 A    
C2    C138  1.480778 S    
C47   H23   1.084051 S    
N29   O106  1.301058 A    
C45   H21   1.084052 S    
N7    O62   1.301059 A    
C110  N38   1.438081 S    
N17   O81   1.301347 A    
O43   Cu11  1.948770 S    
C111  N39   1.438080 S    
O44   Cu11  1.948773 S    
C49   H25   1.084052 S    
O34   C18   1.290596 A    
N24   O95   1.301345 A    
C104  N32   1.438077 S    
O23   C11   1.290596 A    
N43   O134  1.301060 A    
C83   N11   1.438079 S    
N38   O123  1.301347 A    
N47   O142  1.301061 A    
C27   C75   1.402514 A    
C41   C89   1.402514 A    
C28   C76   1.402514 A    
C37   C85   1.402514 A    
C50   C98   1.402514 A    
C46   C154  1.394033 A    
N22   O91   1.301345 A    
C10   C134  1.480778 S    
O2    C2    1.290599 A    
N16   O80   1.301057 A    
C74   C122  1.421780 A    
N30   O107  1.301347 A    
O37   C17   1.290599 A    
C120  N48   1.438077 S    
N39   O126  1.301059 A    
C48   C156  1.394031 A    
C81   C125  1.421780 A    
C3    C141  1.480778 S    
C101  N29   1.438080 S    
C119  C141  1.421779 A    
N2    O52   1.301061 A    
C66   C166  1.394031 A    
C18   C130  1.480778 S    
C149  C173  1.437818 S    
C44   C92   1.402514 A    
C54   C158  1.394032 A    
C89   C129  1.421780 A    
C97   C133  1.421778 A    
C30   H6    1.084053 S    
N26   O100  1.301061 A    
N40   O128  1.301057 A    
O29   C13   1.290596 A    
C102  N30   1.438077 S    
C34   H10   1.084051 S    
O31   C15   1.290596 A    
C49   C157  1.394031 A    
N12   O71   1.301344 A    
C31   C145  1.394033 A    
O19   C11   1.290599 A    
O15   C7    1.290599 A    
N20   O88   1.301058 A    
C47   C95   1.402514 A    
C162  C186  1.437818 S    
N11   O70   1.301057 A    
O10   Cu3   1.948773 S    
C45   C93   1.402514 A    
Cu11  Cu12  2.655007 S    
O35   C19   1.290596 A    
O36   Cu9   1.948770 S    
C80   N8    1.438077 S    
C158  C182  1.437814 S    
C49   C97   1.402514 A    
C163  C187  1.437814 S    
O4    Cu1   1.948770 S    
O2    Cu1   1.948773 S    
C145  C169  1.437814 S    
C72   H48   1.084052 S    
C114  C142  1.421778 A    
N30   O108  1.301063 A    
N42   O131  1.301344 A    
N19   O86   1.301060 A    
N15   O78   1.301059 A    
C70   C166  1.394033 A    
C51   C99   1.402514 A    
N31   O110  1.301059 A    
C31   C79   1.402514 A    
C64   C164  1.394029 A    
C25   C73   1.402514 A    
C24   C124  1.480778 S    
C154  C178  1.437814 S    
O16   Cu4   1.948773 S    
C61   C109  1.402514 A    
C5    C135  1.480778 S    
O39   Cu10  1.948770 S    
N10   O67   1.301343 A    
C56   C160  1.394033 A    
C91   C131  1.421778 A    
C94   C130  1.421780 A    
C32   C80   1.402514 A    
C33   C81   1.402514 A    
C26   C146  1.394033 A    
C93   N21   1.438077 S    
C55   C103  1.402514 A    
C36   C84   1.402514 A    
C21   C127  1.480778 S    
C53   C101  1.402514 A    
O11   Cu3   1.948770 S    
N33   O113  1.301347 A    
O14   C8    1.290599 A    
C11   C137  1.480778 S    
C34   C150  1.394033 A    
N8    O63   1.301343 A    
C23   C125  1.480778 S    
O3    Cu1   1.948773 S    
C165  C189  1.437814 S    
C95   C129  1.421779 A    
C116  C144  1.421778 A    
C69   C117  1.402514 A    
C179  C184  1.204538 T    
N48   O143  1.301345 A    
C84   N12   1.438077 S    
C58   C162  1.394033 A    
C35   H11   1.084052 S    
N28   O103  1.301343 A    
O30   C16   1.290596 A    
C166  C190  1.437814 S    
Cu1   Cu2   2.655007 S    
C103  N31   1.438082 S    
C96   C132  1.421780 A    
C101  C135  1.421776 A    
C40   C152  1.394029 A    
N27   O101  1.301345 A    
Cu5   Cu6   2.655007 S    
N21   O90   1.301061 A    
N41   O129  1.301347 A    
O20   Cu5   1.948773 S    
N14   O76   1.301058 A    
O39   C19   1.290599 A    
C16   C128  1.480778 S    
O46   C24   1.290596 A    
C72   C120  1.402514 A    
C54   H30   1.084053 S    
C39   C149  1.394031 A    
C83   C127  1.421780 A    
C38   C86   1.402514 A    
N6    O60   1.301063 A    
O28   Cu7   1.948770 S    
C51   H27   1.084052 S    
C63   C111  1.402514 A    
C70   H46   1.084052 S    
C168  C192  1.437814 S    
C79   N7    1.438082 S    
C169  C186  1.204534 T    
N35   O117  1.301347 A    
C57   H33   1.084054 S    
C77   N5    1.438080 S    
C46   H22   1.084052 S    
N18   O84   1.301059 A    
O21   Cu6   1.948773 S    
O6    Cu2   1.948770 S    
O20   C12   1.290599 A    
C61   C163  1.394031 A    
C97   N25   1.438077 S    
C50   H26   1.084051 S    
C43   H19   1.084052 S    
C63   C161  1.394031 A    
C27   C147  1.394033 A    
O15   Cu4   1.948770 S    
O40   C18   1.290599 A    
O38   Cu10  1.948770 S    
C75   N3    1.438077 S    
N13   O74   1.301060 A    
N46   O140  1.301061 A    
C84   C128  1.421780 A    
O7    Cu2   1.948773 S    
O13   C5    1.290599 A    
N1    O50   1.301061 A    
C67   H43   1.084052 S    
C12   C136  1.480778 S    
C68   H44   1.084052 S    
C17   C123  1.480778 S    
C113  N41   1.438077 S    
N3    O53   1.301345 A    
C27   H3    1.084052 S    
C28   H4    1.084052 S    
O3    C3    1.290599 A    
N34   O115  1.301343 A    
C88   C128  1.421780 A    
C69   H45   1.084052 S    
N11   O69   1.301347 A    
C92   C132  1.421778 A    
O7    C3    1.290596 A    
C75   C123  1.421782 A    
C48   H24   1.084052 S    
C36   C152  1.394033 A    
O17   Cu5   1.948773 S    
C6    C142  1.480778 S    
C150  C174  1.437818 S    
O25   C13   1.290599 A    
O47   Cu12  1.948770 S    
C102  C134  1.421779 A    
N32   O112  1.301060 A    
C42   H18   1.084052 S    
C31   H7    1.084052 S    
O28   C16   1.290599 A    
O24   Cu6   1.948770 S    
O38   C20   1.290599 A    
C29   H5    1.084052 S    
O37   Cu10  1.948773 S    
C69   C167  1.394033 A    
O9    C5    1.290596 A    
C92   N20   1.438080 S    
C32   H8    1.084052 S    
C50   C158  1.394033 A    
C33   H9    1.084054 S    
N29   O105  1.301344 A    
C115  C143  1.421778 A    
C118  C142  1.421780 A    
N4    O55   1.301343 A    
C7    C133  1.480778 S    
C99   N27   1.438077 S    
C100  C136  1.421778 A    
C19   C121  1.480778 S    
N24   O96   1.301057 A    
C161  C185  1.437818 S    
C85   N13   1.438077 S    
O26   Cu7   1.948773 S    
O1    Cu1   1.948770 S    
N38   O124  1.301058 A    
C82   N10   1.438080 S    
C56   C104  1.402514 A    
C146  C170  1.437814 S    
C90   C130  1.421778 A    
N5    O57   1.301344 A    
C116  N44   1.438080 S    
O18   Cu5   1.948770 S    
C8    C144  1.480778 S    
N22   O92   1.301061 A    
O23   Cu6   1.948770 S    
N9    O65   1.301347 A    
N5    O58   1.301058 A    
C62   C162  1.394029 A    
N7    O61   1.301344 A    
C1    C143  1.480778 S    
C71   C119  1.402514 A    
O24   C10   1.290596 A    
C81   N9    1.438081 S    
C26   C74   1.402514 A    
C172  C191  1.204538 T    
N36   O119  1.301344 A    
C87   C125  1.421776 A    
C80   C124  1.421782 A    
C85   C127  1.421780 A    
C63   H39   1.084051 S    
C55   C157  1.394033 A    
O17   C9    1.290599 A    
C120  C144  1.421780 A    
C61   H37   1.084053 S    
N15   O77   1.301343 A    
C58   C106  1.402514 A    
C59   C107  1.402514 A    
C41   C153  1.394033 A    
C103  C133  1.421780 A    
C95   N23   1.438079 S    
N23   O93   1.301346 A    
O42   C22   1.290599 A    
N47   O141  1.301346 A    
C65   H41   1.084053 S    
C34   C82   1.402514 A    
Cu9   Cu10  2.655007 S    
O35   Cu9   1.948770 S    
O33   C17   1.290596 A    
N31   O109  1.301344 A    
C28   C148  1.394029 A    
C35   C151  1.394031 A    
C65   C113  1.402514 A    
O4    C4    1.290599 A    
C110  C138  1.421776 A    
O27   Cu7   1.948773 S    
C42   C90   1.402514 A    
N12   O72   1.301060 A    
N27   O102  1.301057 A    
C170  C189  1.204538 T    
O32   Cu8   1.948773 S    
C94   N22   1.438077 S    
C171  C188  1.204538 T    
O41   Cu11  1.948773 S    
N9    O66   1.301058 A    
C180  C187  1.204538 T    
C114  N42   1.438082 S    
O19   Cu5   1.948770 S    
N44   O135  1.301344 A    
C68   C168  1.394033 A    
C175  C192  1.204538 T    
C176  C183  1.204538 T    
C73   C121  1.421778 A    
C111  C137  1.421776 A    
C82   C126  1.421780 A    
N37   O122  1.301060 A    
C117  N45   1.438077 S    
C35   C83   1.402514 A    
O30   Cu8   1.948770 S    
N42   O132  1.301059 A    
N41   O130  1.301063 A    
C98   C134  1.421780 A    
C76   N4    1.438077 S    
C56   H32   1.084052 S    
C89   N17   1.438077 S    
C77   C123  1.421776 A    
C118  N46   1.438077 S    
C76   C124  1.421778 A    
N10   O68   1.301059 A    
C71   H47   1.084051 S    
C38   H14   1.084054 S    
C108  N36   1.438077 S    
C177  C182  1.204538 T    
C58   H34   1.084051 S    
O48   Cu12  1.948770 S    
C178  C185  1.204534 T    
N3    O54   1.301057 A    
C107  N35   1.438079 S    
C96   N24   1.438077 S    
C22   C122  1.480778 S    
C78   N6    1.438077 S    
O21   C9    1.290596 A    
C99   C135  1.421782 A    
C46   C94   1.402514 A    
C174  C181  1.204534 T    
N39   O125  1.301343 A    
O13   Cu4   1.948773 S    
O47   C23   1.290596 A    
C73   N1    1.438077 S    
C106  C138  1.421780 A    
C43   C91   1.402514 A    
C51   C159  1.394033 A    
O12   C8    1.290596 A    
O27   C15   1.290599 A    
N2    O51   1.301346 A    
C164  C188  1.437814 S    
O46   Cu12  1.948773 S    
O45   Cu12  1.948773 S    
C156  C180  1.437814 S    
N48   O144  1.301057 A    
C32   C148  1.394033 A    
N26   O99   1.301346 A    
C37   C151  1.394031 A    
N40   O127  1.301347 A    
N28   O104  1.301061 A    
C62   C110  1.402514 A    
C147  C171  1.437814 S    
O25   Cu7   1.948770 S    
C91   N19   1.438077 S    
C148  C172  1.437814 S    
C113  C141  1.421780 A    
O18   C10   1.290599 A    
C98   N26   1.438079 S    
C66   C114  1.402514 A    
C67   C115  1.402514 A    
C60   C108  1.402514 A    
N45   O138  1.301061 A    
N21   O89   1.301343 A    
C25   C145  1.394031 A    
C54   C102  1.402514 A    
C151  C175  1.437814 S    
O26   C14   1.290599 A    
C106  N34   1.438080 S    
C104  C136  1.421782 A    
N25   O97   1.301345 A    
N16   O79   1.301347 A    
O1    C1    1.290599 A    
C40   H16   1.084052 S    
C41   H17   1.084053 S    
N23   O94   1.301061 A    
C30   C146  1.394032 A    
N20   O87   1.301344 A    
O10   C6    1.290596 A    
Cu7   Cu8   2.655007 S    
N17   O82   1.301063 A    
N45   O137  1.301343 A    
C29   C147  1.394031 A    
C43   C155  1.394029 A    
C105  C137  1.421780 A    
O9    Cu3   1.948773 S    
O33   Cu9   1.948773 S    
