data_mof_unit_20691.cif
_audit_creation_date              2012-12-11T20:22:10-0500
_audit_creation_method            fapswitch 2.2
_symmetry_space_group_name_H-M    P1
_symmetry_Int_Tables_number       1
_space_group_crystal_system       triclinic
_cell_length_a                    8.227454
_cell_length_b                    17.416567
_cell_length_c                    26.962226
_cell_angle_alpha                 99.611395
_cell_angle_beta                  92.857114
_cell_angle_gamma                 81.570294
_cell_volume                      3766.86364783

loop_
_atom_site_label
_atom_site_type_symbol
_atom_type_description
_atom_site_fract_x
_atom_site_fract_y
_atom_site_fract_z
_atom_type_partial_charge
Ba1   Ba    Ba6+2 0.860160 0.462360 0.521850 1.638774
Ba2   Ba    Ba6+2 0.329680 0.537570 0.478140 1.640505
C1    C     C_3   0.739624 0.183674 0.647752 -0.195780
C2    C     C_R   0.878447 0.571204 0.177256 0.573549
C3    C     C_2   0.750834 0.546815 0.273968 -0.087205
C4    C     C_3   0.180042 0.290121 0.652002 0.287706
C5    C     C_3   0.732329 0.575894 0.329593 -0.053713
C6    C     C_1   0.985048 0.487658 0.342559 0.033808
C7    C     C_2   0.027140 0.485785 0.294970 -0.107024
C8    C     C_2   0.901301 0.513743 0.256471 0.184075
C9    C     C_R   0.020274 0.504888 0.101034 -0.080980
C10   C     C_R   0.088267 0.443903 0.127528 -0.034922
C11   C     C_R   0.199203 0.381929 0.102835 -0.059507
C12   C     C_3   0.705375 0.263523 0.629910 0.357636
C13   C     C_R   0.912603 0.568207 0.126081 -0.022945
C14   C     C_2   0.845491 0.526968 0.361268 -0.290979
C15   C     C_2   0.356086 0.483839 0.639997 -0.281921
C16   C     C_3   0.153536 0.271642 0.703843 -0.372070
C17   C     C_R   0.219489 0.440185 0.974475 0.019816
C18   C     C_R   0.022702 0.561351 0.971584 0.020684
C19   C     C_R   0.141557 0.500283 0.947728 0.049148
C20   C     C_R   0.339534 0.381860 0.949098 -0.099928
C21   C     C_R   0.378120 0.381540 0.899244 -0.061253
C22   C     C_R   0.300548 0.439717 0.872235 -0.031142
C23   C     C_3   0.493310 0.664705 0.634469 0.304395
C24   C     C_R   0.183047 0.499495 0.896555 -0.078567
C25   C     C_R   0.107182 0.558660 0.869720 -0.031672
C26   C     C_R   0.152445 0.558648 0.819770 0.588871
C27   C     C_R   0.338243 0.439168 0.821379 0.579285
C28   C     C_3   0.216243 0.297718 0.410845 0.313685
C29   C     C_2   0.465022 0.487115 0.728453 -0.073289
C30   C     C_3   0.505382 0.490835 0.674461 -0.047976
C31   C     C_1   0.210774 0.515947 0.657195 0.036438
C32   C     C_2   0.172802 0.514154 0.704240 -0.109876
C33   C     C_2   0.306218 0.498739 0.743205 0.197383
C34   C     C_3   0.482688 0.694585 0.690720 -0.376481
C35   C     C_R   0.175735 0.440509 0.025366 0.019891
C36   C     C_R   0.060511 0.502992 0.049608 0.048954
C37   C     C_R   0.985453 0.563938 0.023113 0.020450
C38   C     C_R   0.242908 0.380430 0.053246 -0.099374
C39   C     C_R   0.842023 0.628532 0.099764 -0.058859
C40   C     C_3   0.233449 0.208730 0.396411 -0.376538
C41   C     C_R   0.944774 0.618030 0.942729 -0.100263
C42   C     C_R   0.987097 0.616965 0.893294 -0.061207
C43   C     C_R   0.876440 0.626359 0.049588 -0.102754
C44   C     C_2   0.443848 0.278359 0.512660 -0.261894
C45   C     C_3   0.021575 0.708536 0.346632 0.346674
C46   C     C_3   0.373248 0.226289 0.542824 -0.023112
C47   C     C_2   0.415540 0.140396 0.523274 -0.108657
C48   C     C_2   0.548997 0.114904 0.494596 0.005581
C49   C     C_2   0.634571 0.174153 0.475964 -0.124789
C50   C     C_1   0.572783 0.249751 0.484384 0.063684
C51   C     C_R   0.789845 0.862465 0.471623 -0.127134
C52   C     C_3   0.975430 0.701834 0.587848 0.308953
C53   C     C_R   0.848371 0.782075 0.465512 0.013787
C54   C     C_R   0.617588 0.759391 0.510535 0.044572
C55   C     C_R   0.558969 0.839612 0.517341 -0.114781
C56   C     C_3   0.026907 0.732925 0.295264 -0.363199
C57   C     C_R   0.642844 0.891624 0.497236 0.011371
C58   C     C_2   0.611625 0.029903 0.480936 -0.075060
C59   C     C_2   0.582873 0.976512 0.509061 -0.073345
C60   C     C_R   0.758023 0.730444 0.482841 -0.282583
C61   C     C_3   0.947521 0.790763 0.603209 -0.381434
C62   C     C_3   0.693411 0.363877 0.368838 0.303312
C63   C     C_3   0.693835 0.344266 0.311737 -0.358611
C64   C     C_3   0.587600 0.161555 0.669273 -0.398977
C65   C     C_3   0.481485 0.745920 0.367557 0.373562
C66   C     C_3   0.432868 0.822436 0.346939 -0.362475
C67   C     C_R   0.043812 0.445903 0.178088 0.597909
H1    H     H_    0.813086 0.269918 0.608657 0.097953
H2    H     H_    0.598120 0.415316 0.379684 0.076058
H3    H     H_    0.780459 0.137835 0.615086 0.083186
H4    H     H_    0.792028 0.294552 0.299751 0.131451
H5    H     H_    0.572943 0.327748 0.297179 0.136342
H6    H     H_    0.597399 0.264609 0.604197 -0.032346
H7    H     H_    0.369813 0.651532 0.620170 0.030170
H8    H     H_    0.583883 0.610299 0.628191 0.035929
H9    H     H_    0.399042 0.751222 0.697574 0.136097
H10   H     H_    0.433545 0.651580 0.709849 0.072220
H11   H     H_    0.606603 0.703577 0.706907 0.128619
H12   H     H_    0.319625 0.188791 0.364870 0.122788
H13   H     H_    0.840805 0.184184 0.676646 0.129751
H14   H     H_    0.216758 0.311054 0.732850 0.124839
H15   H     H_    0.093375 0.648965 0.345515 0.073894
H16   H     H_    0.891184 0.706895 0.354511 -0.057254
H17   H     H_    0.156434 0.734797 0.285534 0.152626
H18   H     H_    0.974221 0.689307 0.266220 0.133865
H19   H     H_    0.953439 0.792231 0.295364 0.116383
H20   H     H_    0.617908 0.735324 0.369986 -0.074383
H21   H     H_    0.432613 0.753072 0.406007 0.080262
H22   H     H_    0.488351 0.870511 0.371298 0.068587
H23   H     H_    0.281421 0.180269 0.429066 0.069878
H24   H     H_    0.296920 0.838336 0.346247 0.150658
H25   H     H_    0.123490 0.351675 0.650864 0.081186
H26   H     H_    0.478300 0.816064 0.308013 0.121705
H27   H     H_    0.153998 0.467199 0.284458 0.144985
H28   H     H_    0.254629 0.334146 0.122058 0.121547
H29   H     H_    0.565409 0.480053 0.755777 0.109976
H30   H     H_    0.470873 0.335246 0.881918 0.120256
H31   H     H_    0.408025 0.335504 0.966797 0.068647
H32   H     H_    0.329060 0.330394 0.037735 0.069046
H33   H     H_    0.649810 0.563107 0.248637 0.129357
H34   H     H_    0.111516 0.190462 0.384687 0.130785
H35   H     H_    0.758176 0.678237 0.117937 0.122716
H36   H     H_    0.848538 0.664218 0.956909 0.068916
H37   H     H_    0.314465 0.285276 0.646703 -0.015459
H38   H     H_    0.923704 0.662327 0.873358 0.121129
H39   H     H_    0.045427 0.523900 0.714790 0.138955
H40   H     H_    0.816845 0.675877 0.033068 0.068845
H41   H     H_    0.827176 0.538792 0.401551 0.082541
H42   H     H_    0.368127 0.453180 0.601592 0.073259
H43   H     H_    0.511491 0.994992 0.542784 0.069485
H44   H     H_    0.863701 0.901859 0.459233 0.073467
H45   H     H_    0.857687 0.680961 0.575479 0.007206
H46   H     H_    0.686012 0.011783 0.447772 0.071795
H47   H     H_    0.343811 0.100253 0.535936 0.073124
H48   H     H_    0.020022 0.281429 0.711634 0.140016
H49   H     H_    0.451406 0.861797 0.539809 0.078813
H50   H     H_    0.405804 0.341230 0.521632 0.073065
H51   H     H_    0.805002 0.668436 0.478930 0.064066
H52   H     H_    0.204427 0.209434 0.705950 0.119499
H53   H     H_    0.338811 0.315362 0.420331 0.001476
H54   H     H_    0.136779 0.315262 0.444087 0.076166
H55   H     H_    0.065185 0.811970 0.616904 0.123567
H56   H     H_    0.061440 0.686883 0.556237 0.076640
H57   H     H_    0.716474 0.396000 0.295476 0.068183
H58   H     H_    0.549235 0.203684 0.704359 0.173893
H59   H     H_    0.485162 0.161708 0.640553 0.115452
H60   H     H_    0.616395 0.100503 0.678806 0.121308
H61   H     H_    0.745046 0.154473 0.454257 0.084680
H62   H     H_    0.856650 0.807544 0.633621 0.134997
H63   H     H_    0.900679 0.819589 0.570652 0.062054
H64   H     H_    0.815420 0.378497 0.382688 0.009217
N1    N     N_R   0.940819 0.509691 0.203156 -0.420104
N2    N     N_R   0.265597 0.498788 0.795579 -0.423867
O1    O     O_2   0.906370 0.542040 0.619810 -0.467247
O2    O     O_2   0.185392 0.780974 0.477397 -0.485658
O3    O     O_3   0.090168 0.763134 0.382811 -0.597351
O4    O     O_3   0.138370 0.541980 0.559630 -0.491508
O5    O     O_3   0.572820 0.404940 0.471170 -0.492651
O6    O     O_2   0.345130 0.693150 0.532000 -0.462085
O7    O     O_3   0.544235 0.722880 0.611063 -0.641434
O8    O     O_2   0.412420 0.532565 0.324576 -0.494278
O9    O     O_3   0.416104 0.684387 0.335838 -0.588358
O10   O     O_2   0.095731 0.390187 0.199382 -0.599063
O11   O     O_2   0.434445 0.384957 0.799974 -0.599884
O12   O     O_3   0.660113 0.298195 0.388109 -0.633743
O13   O     O_2   0.794550 0.629865 0.198845 -0.621525
O14   O     O_2   0.092533 0.612906 0.798119 -0.601635
O15   O     O_3   0.686580 0.398330 0.583860 -0.492802
O16   O     O_2   0.846273 0.437991 0.670034 -0.499979
O17   O     O_3   0.039559 0.668086 0.629493 -0.625683
O18   O     O_3   0.675865 0.324751 0.670864 -0.598866
O19   O     O_2   0.844570 0.306830 0.467970 -0.464235
O20   O     O_3   0.101900 0.357890 0.557750 -0.487872
O21   O     O_2   0.035565 0.214781 0.517765 -0.486890
O22   O     O_3   0.107040 0.237590 0.615118 -0.610136
O23   O     O_2   0.283330 0.457940 0.380160 -0.459075
O24   O     O_3   0.051340 0.457960 0.440360 -0.498349
O25   O     O_3   0.503130 0.601610 0.416130 -0.477861
O26   O     O_3   0.148280 0.331954 0.369766 -0.622917
O27   O     O_3   0.616890 0.595000 0.528820 -0.479265
O28   O     O_3   0.087820 0.642040 0.442240 -0.491300
P1    P     P_3+3 0.071770 0.565500 0.613330 0.997729
P2    P     P_3+3 0.664870 0.318630 0.453960 0.981211
P3    P     P_3+3 0.152276 0.257291 0.556226 0.930159
P4    P     P_3+3 0.117940 0.434440 0.386660 0.994403
P5    P     P_3+3 0.054077 0.743316 0.442346 0.948868
P6    P     P_3+3 0.678320 0.414723 0.649765 0.962798
P7    P     P_3+3 0.532433 0.694114 0.545804 0.951639
P8    P     P_3+3 0.516155 0.595388 0.351093 0.952502

loop_
_geom_bond_atom_site_label_1
_geom_bond_atom_site_label_2
_ccdc_geom_bond_type
C21   H30   S    
C19   C24   A    
C67   N1    Am   
C5    P8    S    
C26   N2    Am   
C67   O10   D    
C16   H48   S    
C23   O7    S    
C30   P6    S    
C40   H34   S    
Ba2   O27   S    
C61   H55   S    
C51   C57   A    
C14   H41   S    
C54   C55   A    
O9    P8    S    
C16   H14   S    
C24   C25   A    
C23   H8    S    
Ba2   O4    S    
C45   H16   S    
O4    P1    S    
C17   C19   A    
C22   C24   A    
C32   C33   S    
C35   C38   A    
C36   C37   A    
C43   H40   S    
C55   C57   A    
O15   P6    S    
C52   C61   S    
O20   P3    S    
C2    O13   D    
C53   C60   A    
C15   H42   S    
C65   H20   S    
C66   H22   S    
C63   H4    S    
C64   H58   S    
O3    P5    S    
Ba1   Ba2   S    
C41   H36   S    
C29   H29   S    
Ba1   O20   S    
C22   C27   A    
C11   C38   A    
O12   P2    S    
C38   H32   S    
C3    H33   S    
C9    C13   A    
C25   C42   A    
C28   H53   S    
Ba1   P1    S    
O24   P4    S    
Ba2   O24   S    
C4    H25   S    
C21   C22   A    
O19   P2    D    
O21   P3    D    
Ba1   O1    S    
C17   C35   A    
C7    C8    S    
C60   H51   S    
Ba1   O4    S    
O7    P7    S    
C64   H60   S    
C26   O14   D    
C6    C14   D    
C56   H18   S    
C12   H1    S    
C40   H12   S    
C15   C31   D    
C53   P5    S    
C65   O9    S    
C56   H17   S    
C49   H61   S    
C51   H44   S    
O23   P4    D    
C31   C32   D    
C51   C53   A    
C4    C16   S    
C52   H56   S    
C44   C46   S    
C57   C59   S    
C66   H26   S    
C20   H31   S    
C62   H2    S    
C65   C66   S    
Ba1   O24   S    
C17   C20   A    
C13   C39   A    
C34   H11   S    
C33   N2    S    
C27   O11   D    
C3    C5    S    
C18   C37   A    
C6    C7    D    
C52   O17   S    
C16   H52   S    
C45   H15   S    
C65   H21   S    
C63   H5    S    
C49   C50   D    
C58   C59   D    
O22   P3    S    
C9    C36   A    
C41   C42   A    
C35   C36   A    
C6    P4    S    
C50   P2    S    
C29   C30   S    
O27   P7    S    
Ba1   P2    S    
Ba2   O23   S    
C31   P1    S    
C1    H13   S    
C48   C49   S    
C4    H37   S    
Ba1   O15   S    
O17   P1    S    
C61   H63   S    
C18   C19   A    
C28   H54   S    
Ba1   O5    S    
C7    H27   S    
O26   P4    S    
C1    C12   S    
C46   C47   S    
C27   N2    Am   
C10   C67   A    
Ba1   O27   S    
C61   H62   S    
C62   O12   S    
C29   C33   D    
C1    C64   S    
C4    O22   S    
C2    N1    Am   
O1    P1    D    
C42   H38   S    
O5    P2    S    
C15   C30   S    
C62   H64   S    
C5    C14   S    
C40   H23   S    
C54   P7    S    
C8    N1    S    
C34   H10   S    
C56   H19   S    
Ba2   O28   S    
C9    C10   A    
C66   H24   S    
O16   P6    D    
C39   H35   S    
C37   C43   A    
C23   H7    S    
C32   H39   S    
C62   C63   S    
C2    C13   A    
C1    H3    S    
C48   C58   S    
C3    C8    D    
C12   O18   S    
C34   H9    S    
C63   H57   S    
C44   C50   D    
C52   H45   S    
C45   O3    S    
O6    P7    D    
O25   P8    S    
C64   H59   S    
C44   H50   S    
O28   P5    S    
C54   C60   A    
C11   H28   S    
Ba1   O19   S    
C18   C41   A    
C23   C34   S    
O8    P8    D    
C47   H47   S    
C46   P3    S    
C10   C11   A    
Ba2   O25   S    
C47   C48   D    
O18   P6    S    
C25   C26   A    
Ba2   O6    S    
C39   C43   A    
C20   C21   A    
C28   C40   S    
C58   H46   S    
Ba2   O5    S    
C28   O26   S    
C59   H43   S    
Ba2   P4    S    
O2    P5    D    
C12   H6    S    
C55   H49   S    
C45   C56   S    
