data_mof_unit_33238.cif
_audit_creation_date              2012-12-11T17:29:17-0500
_audit_creation_method            fapswitch 2.2
_symmetry_space_group_name_H-M    P1
_symmetry_Int_Tables_number       1
_space_group_crystal_system       triclinic
_cell_length_a                    8.399349
_cell_length_b                    16.384491
_cell_length_c                    18.896419
_cell_angle_alpha                 100.101409
_cell_angle_beta                  92.291272
_cell_angle_gamma                 93.175842
_cell_volume                      2552.99571504

loop_
_atom_site_label
_atom_site_type_symbol
_atom_type_description
_atom_site_fract_x
_atom_site_fract_y
_atom_site_fract_z
_atom_type_partial_charge
Ba1   Ba    Ba6+2 0.845660 0.536000 0.465120 1.646973
Ba2   Ba    Ba6+2 0.344160 0.464070 0.534880 1.673091
C1    C     C_3   0.646184 0.827702 0.276448 -0.362362
C2    C     C_3   0.610888 0.745441 0.301128 0.348433
C3    C     C_3   0.495145 0.343005 0.316151 0.294197
C4    C     C_3   0.512304 0.325524 0.234738 -0.389071
C5    C     C_3   0.068460 0.274499 0.724581 0.341277
C6    C     C_3   0.101716 0.250738 0.798752 0.688019
C7    C     C_3   0.596278 0.250397 0.676570 0.369323
C8    C     C_3   0.625748 0.165969 0.696283 -0.359369
C9    C     C_R   0.997708 0.466911 0.049083 0.013865
C10   C     C_R   0.914719 0.422609 0.095733 -0.076887
C11   C     C_R   0.782580 0.438067 0.952598 -0.037977
C12   C     C_3   0.083435 0.705424 0.270837 0.363742
C13   C     C_R   0.938774 0.468876 0.977434 0.039460
C14   C     C_R   0.729793 0.433979 0.881509 -0.017938
C15   C     C_R   0.829483 0.460883 0.831308 -0.009855
C16   C     C_R   0.981077 0.500429 0.855678 0.006808
C17   C     C_R   0.035917 0.504541 0.929305 0.033140
C18   C     C_R   0.780705 0.450047 0.757625 -0.035740
C19   C     C_R   0.883102 0.479075 0.709079 -0.228879
C20   C     C_R   0.024649 0.527476 0.732557 0.104579
C21   C     C_R   0.075781 0.537018 0.807021 -0.052362
C22   C     C_R   0.147625 0.507339 0.074456 0.024605
C23   C     C_3   0.059517 0.729827 0.197264 -0.371684
C24   C     C_R   0.202815 0.509309 0.147794 -0.004355
C25   C     C_R   0.109335 0.470619 0.195755 -0.044485
C26   C     C_R   0.969947 0.423768 0.166397 -0.017054
C27   C     C_R   0.218276 0.581971 0.834834 -0.027044
C28   C     C_R   0.273516 0.584615 0.905930 -0.086225
C29   C     C_R   0.186842 0.544455 0.954236 0.010535
C30   C     C_R   0.243712 0.544768 0.026919 0.022965
C31   C     C_R   0.396577 0.579466 0.053203 -0.102488
C32   C     C_R   0.354895 0.547351 0.172235 -0.031922
C33   C     C_R   0.450490 0.580129 0.123620 -0.096860
C34   C     C_3   0.199876 0.716860 0.620384 0.313301
C35   C     C_R   0.409113 0.550190 0.244292 -0.014591
C36   C     C_R   0.309139 0.519642 0.292763 -0.292045
C37   C     C_R   0.161412 0.477592 0.269883 0.061480
C38   C     C_R   0.384504 0.725913 0.466846 -0.300840
C39   C     C_R   0.532026 0.754550 0.501464 0.055500
C40   C     C_R   0.588742 0.837181 0.503652 -0.105582
C41   C     C_R   0.496413 0.892669 0.472057 0.250579
C42   C     C_R   0.344557 0.863219 0.440789 -0.170181
C43   C     C_R   0.288136 0.781075 0.439061 -0.025780
C44   C     C_R   0.620152 0.142730 0.479409 -0.139663
C45   C     C_3   0.212421 0.811632 0.635776 0.237566
C46   C     C_R   0.662389 0.227867 0.488872 -0.013334
C47   C     C_R   0.723208 0.087889 0.506085 0.267504
C48   C     C_R   0.804370 0.260034 0.527073 -0.230511
C49   C     C_R   0.912588 0.207189 0.550302 0.001273
C50   C     C_R   0.872098 0.121188 0.539540 -0.141028
C51   C     C_3   0.107405 0.262168 0.343069 0.639140
C52   C     C_3   0.195838 0.194706 0.298185 -0.238959
C53   C     C_3   0.764209 0.727426 0.688206 0.714299
C54   C     C_3   0.760588 0.783849 0.761824 -0.289028
H1    H     H_    0.659753 0.750969 0.357337 0.068981
H2    H     H_    0.249370 0.835517 0.587278 -0.010036
H3    H     H_    0.094838 0.835640 0.649978 0.044216
H4    H     H_    0.185009 0.298071 0.385472 0.076629
H5    H     H_    0.109730 0.147163 0.265730 0.099489
H6    H     H_    0.269705 0.163270 0.334384 0.093651
H7    H     H_    0.270681 0.220643 0.260346 0.074177
H8    H     H_    0.870283 0.749204 0.662377 0.008601
H9    H     H_    0.776466 0.844316 0.281242 0.158238
H10   H     H_    0.771052 0.849983 0.755584 0.114244
H11   H     H_    0.861546 0.771294 0.797290 0.084364
H12   H     H_    0.647401 0.772620 0.788143 0.124951
H13   H     H_    0.479325 0.733400 0.299046 -0.060014
H14   H     H_    0.584485 0.877360 0.310389 0.080301
H15   H     H_    0.372126 0.359828 0.327318 -0.039996
H16   H     H_    0.576798 0.397438 0.338567 0.086638
H17   H     H_    0.474292 0.259101 0.210065 0.125544
H18   H     H_    0.439460 0.368616 0.208176 0.073380
H19   H     H_    0.641133 0.335680 0.223372 0.108246
H20   H     H_    0.603020 0.823103 0.219465 0.111073
H21   H     H_    0.111458 0.683842 0.155860 0.074547
H22   H     H_    0.091749 0.343361 0.729241 -0.038223
H23   H     H_    0.940707 0.256893 0.708129 -0.035212
H24   H     H_    0.199240 0.293722 0.829088 -0.031886
H25   H     H_    0.710383 0.276171 0.659796 -0.074706
H26   H     H_    0.507997 0.242110 0.630119 0.089232
H27   H     H_    0.734657 0.141305 0.670959 0.097844
H28   H     H_    0.523388 0.120864 0.675901 0.104172
H29   H     H_    0.017225 0.644605 0.269846 0.083163
H30   H     H_    0.644203 0.170700 0.755461 0.178966
H31   H     H_    0.844679 0.470372 0.652797 0.070568
H32   H     H_    0.610114 0.407484 0.866251 0.104889
H33   H     H_    0.901011 0.387057 0.197831 0.110600
H34   H     H_    0.290598 0.615303 0.801931 0.094983
H35   H     H_    0.569618 0.607041 0.138809 0.112712
H36   H     H_    0.352375 0.523062 0.347890 0.071149
H37   H     H_    0.696704 0.416974 0.987416 0.063455
H38   H     H_    0.807574 0.383886 0.078079 0.075903
H39   H     H_    0.384835 0.620300 0.921532 0.060431
H40   H     H_    0.212987 0.699094 0.280665 -0.067298
H41   H     H_    0.480361 0.605511 0.020386 0.067019
H42   H     H_    0.511229 0.118815 0.448374 0.100727
H43   H     H_    0.268889 0.905743 0.419505 0.094942
H44   H     H_    0.701594 0.859001 0.532195 0.113838
H45   H     H_    0.955374 0.079708 0.557224 0.094364
H46   H     H_    0.339021 0.662852 0.466527 0.075259
H47   H     H_    0.835079 0.326002 0.535292 0.062803
H48   H     H_    0.930359 0.731816 0.183529 0.148327
H49   H     H_    0.119192 0.792102 0.197617 0.116915
H50   H     H_    0.317131 0.693844 0.605205 0.010169
H51   H     H_    0.111095 0.696690 0.574592 0.003798
N1    N     N_2   0.543707 0.977987 0.475113 -0.233648
N2    N     N_2   0.682519 0.001042 0.500788 -0.227068
O1    O     O_2   0.884010 0.444810 0.325060 -0.468028
O2    O     O_3   0.624718 0.734671 0.647079 -0.639518
O3    O     O_3   0.025530 0.766605 0.323588 -0.590510
O4    O     O_2   0.305690 0.555220 0.674980 -0.508576
O5    O     O_3   0.057610 0.548940 0.585700 -0.480349
O6    O     O_3   0.548930 0.405410 0.631060 -0.485910
O7    O     O_3   0.151858 0.687180 0.682032 -0.609104
O8    O     O_3   0.631040 0.400420 0.463490 -0.483986
O9    O     O_3   0.135930 0.361590 0.595000 -0.476643
O10   O     O_2   0.241698 0.214109 0.541212 -0.462037
O11   O     O_3   0.166538 0.231502 0.673776 -0.597226
O12   O     O_3   0.132090 0.451130 0.414310 -0.501048
O13   O     O_3   0.558660 0.599640 0.536520 -0.485262
O14   O     O_2   0.381010 0.300300 0.465220 -0.458826
O15   O     O_3   0.528210 0.271541 0.345076 -0.679296
O16   O     O_2   0.441453 0.454881 0.759445 -0.506104
O17   O     O_3   0.538311 0.303494 0.735425 -0.588206
O18   O     O_3   0.640770 0.594650 0.368950 -0.479061
O19   O     O_2   0.734596 0.524877 0.242684 -0.490648
O20   O     O_3   0.046403 0.314885 0.297977 -0.698283
O21   O     O_3   0.683270 0.682312 0.255852 -0.601005
O22   O     O_2   0.808690 0.699720 0.534830 -0.484545
O23   O     O_3   0.053760 0.638480 0.405010 -0.483405
O24   O     O_2   0.962463 0.788251 0.459919 -0.485520
P1    P     P_3+3 0.056550 0.421630 0.336220 0.946652
P2    P     P_3+3 0.635450 0.689180 0.556380 1.009194
P3    P     P_3+3 0.082356 0.745114 0.408076 0.956828
P4    P     P_3+3 0.133150 0.578440 0.663790 1.026676
P5    P     P_3+3 0.111043 0.253241 0.589063 0.991194
P6    P     P_3+3 0.615789 0.586944 0.276776 0.937081
P7    P     P_3+3 0.553251 0.297198 0.439642 0.913157
P8    P     P_3+3 0.577142 0.405632 0.722655 0.940557
Cl1   Cl    Cl    0.354226 0.850420 0.708205 -0.675318
O25   O     O_3   0.990868 0.218486 0.375439 -0.705801
C55   C     C_3   0.838814 0.236573 0.353876 0.243236
H52   H     H_    0.756749 0.187628 0.366646 0.042412
H53   H     H_    0.824979 0.301548 0.382662 0.047578
H54   H     H_    0.814215 0.233670 0.294932 0.070079
O26   O     O_3   0.779605 0.644805 0.697469 -0.723885
C56   C     C_3   0.633065 0.608547 0.714592 0.194990
H55   H     H_    0.594597 0.558316 0.669130 0.129288
H56   H     H_    0.534447 0.650632 0.724844 0.077652
H57   H     H_    0.650340 0.585069 0.765218 0.002180
Cl2   Cl    Cl    0.930852 0.266690 0.851412 -0.734793
O27   O     O_3   0.130419 0.165209 0.790516 -0.600352
C57   C     C_3   0.294913 0.152511 0.801204 0.237821
H58   H     H_    0.377425 0.208352 0.798596 0.048982
H59   H     H_    0.327508 0.100546 0.757513 0.094586
H60   H     H_    0.315901 0.132568 0.854977 0.070132

loop_
_geom_bond_atom_site_label_1
_geom_bond_atom_site_label_2
_ccdc_geom_bond_type
C53   C54   S    
C19   H31   S    
C57   H59   S    
C32   C35   A    
C39   C40   A    
C9    C22   A    
Ba1   O23   S    
C17   C29   A    
O6    P8    S    
Ba2   O9    S    
C23   H49   S    
C5    C6    S    
Ba2   O14   S    
C12   O3    S    
C3    O15   S    
C24   C25   A    
C27   C28   A    
C10   C26   A    
C23   H21   S    
C21   C27   A    
C47   N2    S    
O19   P6    D    
C22   C24   A    
Ba1   Ba2   S    
C3    H16   S    
O22   P2    D    
C56   H56   S    
C36   C37   A    
C42   H43   S    
C52   H7    S    
O25   C55   S    
C36   H36   S    
C8    H27   S    
C15   C18   A    
N1    N2    D    
C34   C45   S    
C32   C33   A    
O5    P4    S    
Ba1   O13   S    
C27   H34   S    
C9    C13   A    
C24   C32   A    
C25   C37   A    
C14   C15   A    
C2    H1    S    
O24   P3    D    
C26   H33   S    
C6    H24   S    
O12   P1    S    
C6    O27   S    
C7    C8    S    
O9    P5    S    
C7    H26   S    
C46   C48   A    
C44   H42   S    
C48   H47   S    
C19   C20   A    
C34   H51   S    
O10   P5    D    
C10   H38   S    
C1    H9    S    
O18   P6    S    
O3    P3    S    
C55   H54   S    
O21   P6    S    
C18   P8    S    
C12   H40   S    
C2    H13   S    
Ba2   O8    S    
C4    H18   S    
Ba2   O13   S    
C38   C43   A    
C44   C46   A    
C50   H45   S    
C57   H58   S    
C46   P7    S    
C34   H50   S    
C16   C21   A    
C4    H19   S    
C1    H14   S    
O26   C56   S    
C55   H53   S    
C56   H57   S    
O16   P8    D    
C16   C17   A    
C2    O21   S    
C52   H6    S    
C48   C49   A    
C51   C52   S    
C45   H3    S    
O14   P7    D    
C49   C50   A    
C11   H37   S    
C51   O25   S    
C35   C36   A    
C13   C17   A    
C41   C42   A    
C22   C30   A    
C28   H39   S    
C6    Cl2   S    
C40   H44   S    
Ba1   O1    S    
Ba2   O6    S    
C29   C30   A    
C20   P4    S    
C28   C29   A    
O23   P3    S    
C47   C50   A    
C45   Cl1   S    
C53   H8    S    
C51   H4    S    
C15   C16   A    
Ba1   O8    S    
C1    H20   S    
O27   C57   S    
C5    H22   S    
C38   C39   A    
C11   C13   A    
C35   P6    S    
O4    P4    D    
O1    P1    D    
O8    P7    S    
O11   P5    S    
Ba1   O5    S    
Ba1   P1    S    
C34   O7    S    
C39   P2    S    
C42   C43   A    
C4    H17   S    
C5    H23   S    
O7    P4    S    
Ba2   O12   S    
Ba2   O4    S    
C8    H30   S    
C43   P3    S    
C53   O2    S    
Ba2   P4    S    
C5    O11   S    
O15   P7    S    
C44   C47   A    
Ba1   O18   S    
C12   H29   S    
C55   H52   S    
Ba1   O22   S    
C9    C10   A    
C23   H48   S    
C52   H5    S    
C54   H11   S    
O17   P8    S    
C7    O17   S    
C30   C31   A    
C3    H15   S    
C54   H12   S    
C56   H55   S    
C45   H2    S    
Ba2   O5    S    
O2    P2    S    
C53   O26   S    
C3    C4    S    
C54   H10   S    
C8    H28   S    
C31   C33   A    
C31   H41   S    
C41   N1    S    
C12   C23   S    
Ba1   O12   S    
O13   P2    S    
C38   H46   S    
O20   P1    S    
C49   P5    S    
C51   O20   S    
C18   C19   A    
C40   C41   A    
C11   C14   A    
C25   C26   A    
C14   H32   S    
C20   C21   A    
Ba1   P2    S    
C1    C2    S    
C7    H25   S    
C57   H60   S    
C37   P1    S    
C33   H35   S    
