data_mof_unit_11080.cif
_audit_creation_date              2013-03-05T16:36:16-0500
_audit_creation_method            fapswitch 2.2
_symmetry_space_group_name_H-M    P1
_symmetry_Int_Tables_number       1
_space_group_crystal_system       triclinic
_cell_length_a                    27.787638
_cell_length_b                    9.099398
_cell_length_c                    7.777314
_cell_angle_alpha                 89.921758
_cell_angle_beta                  90.003894
_cell_angle_gamma                 90.004519
_cell_volume                      1966.49804865

loop_
_atom_site_label
_atom_site_type_symbol
_atom_site_description
_atom_site_fract_x
_atom_site_fract_y
_atom_site_fract_z
_atom_type_partial_charge
O1    O     O_R   0.500000 0.288390 0.642760 -0.576936
O2    O     O_R   0.500000 0.711610 0.357240 -0.576591
O3    O     O_R   0.500000 0.711610 0.642760 -0.582155
O4    O     O_R   0.500000 0.288390 0.357240 -0.582144
C1    C     C_R   0.500002 0.219968 0.500078 0.846608
C2    C     C_R   0.500001 0.780032 0.499922 0.846773
O5    O     O_R   0.430260 0.500000 0.642770 -0.584588
O6    O     O_R   0.569740 0.500000 0.357230 -0.584513
O7    O     O_R   0.569740 0.500000 0.642770 -0.584812
O8    O     O_R   0.430260 0.500000 0.357230 -0.584615
C3    C     C_R   0.407490 0.500001 0.499995 0.810725
C4    C     C_R   0.592510 0.499909 0.500009 0.810616
Cu1   Cu    Cu3+1 0.500000 0.500000 0.669080 0.986600
Cu2   Cu    Cu3+1 0.500000 0.500000 0.330920 0.986782
C5    C     C_R   0.178310 0.454940 0.643908 0.544604
C6    C     C_R   0.821694 0.545212 0.356007 0.544589
C7    C     C_R   0.178307 0.545145 0.355978 0.544593
C8    C     C_R   0.821699 0.455045 0.643954 0.544587
O9    O     O_2   0.203169 0.412393 0.784547 -0.517544
O10   O     O_2   0.796835 0.587715 0.215350 -0.517562
O11   O     O_2   0.203164 0.587672 0.215333 -0.517547
O12   O     O_2   0.796844 0.412535 0.784612 -0.517607
N1    N     N_R   0.202424 0.500032 0.499939 -0.460695
N2    N     N_R   0.797580 0.500114 0.499976 -0.460660
C9    C     C_R   0.279118 0.633061 0.500425 -0.123781
C10   C     C_R   0.720901 0.366995 0.499838 -0.124225
C11   C     C_R   0.279107 0.366975 0.499473 -0.123769
C12   C     C_R   0.720877 0.633074 0.500150 -0.123742
C13   C     C_R   0.329492 0.634922 0.500746 0.086249
C14   C     C_R   0.670525 0.365058 0.499624 0.086109
C15   C     C_R   0.329481 0.365100 0.499193 0.086240
C16   C     C_R   0.670503 0.634885 0.500500 0.086268
C17   C     C_R   0.254024 0.500022 0.499939 0.290523
C18   C     C_R   0.745979 0.500063 0.499964 0.290531
C19   C     C_R   0.102093 0.500077 0.499956 -0.041701
C20   C     C_R   0.897912 0.500140 0.499983 -0.041705
C21   C     C_R   0.127791 0.453717 0.646387 -0.027450
C22   C     C_R   0.872214 0.546476 0.353544 -0.027445
C23   C     C_R   0.127788 0.546412 0.353516 -0.027459
C24   C     C_R   0.872218 0.453804 0.646424 -0.027435
C25   C     C_R   0.102703 0.407351 0.791960 -0.155287
C26   C     C_R   0.897301 0.592854 0.207974 -0.155293
C27   C     C_R   0.102697 0.592802 0.207951 -0.155299
C28   C     C_R   0.897309 0.407436 0.791997 -0.155296
C29   C     C_R   0.354866 0.500007 0.499980 -0.064748
C30   C     C_R   0.645133 0.499946 0.500050 -0.064335
H1    H     H_    0.259096 0.264745 0.499202 0.145180
H2    H     H_    0.740874 0.735333 0.500184 0.145276
H3    H     H_    0.259115 0.735297 0.500688 0.145177
H4    H     H_    0.740921 0.264789 0.499816 0.145252
H5    H     H_    0.121626 0.371004 0.906196 0.193279
H6    H     H_    0.878378 0.629190 0.093734 0.193283
H7    H     H_    0.121618 0.629131 0.093709 0.193272
H8    H     H_    0.878389 0.371108 0.906241 0.193284
C31   C     C_R   0.974402 0.452751 0.649153 0.039568
C32   C     C_R   0.025604 0.547493 0.350795 0.039564
C33   C     C_R   0.974398 0.547509 0.350802 0.039565
C34   C     C_R   0.025607 0.452730 0.649145 0.039565
C35   C     C_R   0.949137 0.500135 0.499980 0.072632
C36   C     C_R   0.050868 0.500101 0.499966 0.072632
C37   C     C_R   0.947247 0.406694 0.793718 -0.221482
C38   C     C_R   0.052759 0.593556 0.206234 -0.221469
C39   C     C_R   0.947240 0.593588 0.206248 -0.221476
C40   C     C_R   0.052765 0.406642 0.793695 -0.221474
H9    H     H_    0.963203 0.369008 0.911743 0.146799
H10   H     H_    0.036803 0.631253 0.088213 0.146797
H11   H     H_    0.963193 0.631282 0.088225 0.146803
H12   H     H_    0.036812 0.368955 0.911720 0.146802
C41   C     C_1   0.500004 0.065347 0.500103 -0.188040
C42   C     C_1   0.500004 0.934653 0.499898 -0.188266
N3    N     N_1   0.500000 0.500000 0.076820 -0.050713
N4    N     N_1   0.500000 0.500000 0.923180 -0.050760
C43   C     C_3   0.355067 0.218235 0.497826 -0.427075
C44   C     C_3   0.368265 0.169617 0.679708 -0.796875
H13   H     H_    0.391186 0.252904 0.743845 0.271912
H14   H     H_    0.335149 0.152509 0.757189 0.259713
H15   H     H_    0.388599 0.064739 0.674319 0.234914
H16   H     H_    0.331553 0.133060 0.439336 0.209913
H17   H     H_    0.387962 0.223311 0.416942 0.200817
C45   C     C_3   0.644908 0.781732 0.501671 -0.427192
C46   C     C_3   0.631795 0.830310 0.319700 -0.796692
H18   H     H_    0.664944 0.847247 0.242348 0.259752
H19   H     H_    0.608859 0.747068 0.255540 0.271940
H20   H     H_    0.611507 0.935280 0.324930 0.234854
H21   H     H_    0.611973 0.776679 0.582353 0.200739
H22   H     H_    0.668396 0.866908 0.560289 0.209675
C47   C     C_3   0.355089 0.781781 0.502148 -0.427083
C48   C     C_3   0.368292 0.830415 0.320280 -0.796916
H23   H     H_    0.391210 0.747139 0.256151 0.271908
H24   H     H_    0.335178 0.847525 0.242779 0.259717
H25   H     H_    0.388628 0.935296 0.325692 0.234920
H26   H     H_    0.331580 0.866953 0.560636 0.209915
H27   H     H_    0.387983 0.776692 0.583051 0.200819
C49   C     C_3   0.644963 0.218130 0.498669 -0.427211
C50   C     C_3   0.631594 0.170135 0.680623 -0.796200
H28   H     H_    0.664617 0.155650 0.759540 0.260235
H29   H     H_    0.607942 0.252570 0.743013 0.271782
H30   H     H_    0.611939 0.063958 0.675639 0.234645
H31   H     H_    0.612152 0.222826 0.417283 0.200681
H32   H     H_    0.668563 0.132781 0.440990 0.209882

loop_
_geom_bond_atom_site_label_1
_geom_bond_atom_site_label_2
_geom_bond_distance
_ccdc_geom_bond_type
O5    Cu1   1.948669 S    
C47   C48   1.526243 S    
C31   C35   1.422438 A    
C43   C44   1.526240 S    
C19   C23   1.408346 A    
C50   H28   1.111686 S    
C20   C35   1.423427 A    
C46   H18   1.110832 S    
C50   H30   1.110516 S    
C11   C17   1.397012 A    
C5    O9    1.349904 S    
C7    N1    1.367437 A    
C44   H14   1.110824 S    
O1    C1    1.273146 A    
C40   H12   1.075111 S    
C19   C21   1.408345 A    
C22   C26   1.394484 A    
C41   C42   1.189234 T    
C10   H4    1.083736 S    
C7    C23   1.403981 A    
C15   C43   1.513833 S    
C34   C36   1.422434 A    
C47   H27   1.110586 S    
O7    Cu1   1.948694 S    
C32   C33   1.422880 A    
Cu2   N3    1.976215 S    
C8    C24   1.403969 A    
C5    C21   1.403975 A    
C20   C24   1.408340 A    
C1    C41   1.406960 S    
C27   H7    1.083684 S    
N1    C17   1.433834 S    
C44   H15   1.109933 S    
C45   H22   1.111469 S    
C43   H16   1.111479 S    
C8    N2    1.367458 A    
O3    Cu1   1.936096 S    
C6    O10   1.349906 S    
O3    C2    1.272728 A    
C5    N1    1.367436 A    
C12   C18   1.396981 A    
C6    N2    1.367450 A    
Cu1   Cu2   2.629977 S    
C34   C40   1.417000 A    
O2    C2    1.273147 A    
C46   H19   1.108965 S    
C10   C18   1.397002 A    
C33   C39   1.417006 A    
C9    H3    1.083729 S    
C9    C13   1.399875 A    
C39   H11   1.075112 S    
C44   H13   1.108935 S    
C38   H10   1.075112 S    
C11   C15   1.399882 A    
C12   C16   1.399873 A    
C4    C30   1.462277 S    
O8    Cu2   1.948697 S    
C45   C46   1.526213 S    
C23   C27   1.394481 A    
N2    C18   1.433870 S    
C32   C36   1.422437 A    
C13   C29   1.415779 A    
C19   C36   1.423425 A    
O5    C3    1.277986 A    
C45   H21   1.110580 S    
C37   H9    1.075108 S    
C16   C45   1.513806 S    
C48   H25   1.109921 S    
C49   H32   1.111542 S    
O6    C4    1.278012 A    
C9    C17   1.397006 A    
C43   H17   1.110581 S    
C48   H24   1.110805 S    
C10   C14   1.399924 A    
C32   C38   1.417004 A    
C3    C29   1.462294 S    
O1    Cu1   1.936653 S    
C46   H20   1.109957 S    
C11   H1    1.083728 S    
C2    C42   1.406961 S    
C12   H2    1.083738 S    
O6    Cu2   1.948666 S    
C8    O12   1.349906 S    
C16   C30   1.415813 A    
C14   C30   1.415810 A    
O4    C1    1.272729 A    
C50   H29   1.109576 S    
Cu1   N4    1.976215 S    
C28   C37   1.387740 A    
C20   C22   1.408344 A    
N3    N4    1.194907 T    
C14   C49   1.513915 S    
O4    Cu2   1.936097 S    
C49   H31   1.110655 S    
C31   C37   1.417000 A    
C21   C25   1.394478 A    
C49   C50   1.526318 S    
O2    Cu2   1.936652 S    
O7    C4    1.277967 A    
C7    O11   1.349905 S    
C13   C47   1.513829 S    
C33   C35   1.422435 A    
O8    C3    1.277987 A    
C28   H8    1.083685 S    
C24   C28   1.394481 A    
C48   H23   1.108914 S    
C15   C29   1.415779 A    
C31   C34   1.422872 A    
C6    C22   1.403987 A    
C25   C40   1.387740 A    
C47   H26   1.111479 S    
C26   C39   1.387749 A    
C25   H5    1.083683 S    
C27   C38   1.387748 A    
C26   H6    1.083687 S    
