data_mof_unit_19613.cif
_audit_creation_date              2012-12-10T20:27:52-0500
_audit_creation_method            fapswitch 2.2
_symmetry_space_group_name_H-M    P1
_symmetry_Int_Tables_number       1
_space_group_crystal_system       triclinic
_cell_length_a                    12.8421
_cell_length_b                    10.65523
_cell_length_c                    9.864409
_cell_angle_alpha                 89.997138
_cell_angle_beta                  97.554959
_cell_angle_gamma                 90.166622
_cell_volume                      1338.07853771

loop_
_atom_site_label
_atom_site_type_symbol
_atom_type_description
_atom_site_fract_x
_atom_site_fract_y
_atom_site_fract_z
_atom_type_partial_charge
C1    C     C_R   0.501037 0.260157 0.500345 0.896762
C2    C     C_R   0.028914 0.554909 0.553285 0.132545
C3    C     C_R   0.971294 0.491541 0.441175 0.159506
C4    C     C_R   0.865466 0.472905 0.438582 -0.322134
C5    C     C_R   0.868793 0.583195 0.655826 0.004213
C6    C     C_R   0.977262 0.604588 0.659875 -0.041346
C7    C     C_R   0.474016 0.063085 0.609000 0.114254
C8    C     C_R   0.512355 0.128642 0.504780 -0.159400
C9    C     C_R   0.571783 0.067762 0.415512 -0.187971
C10   C     C_R   0.578537 0.937094 0.417839 -0.022333
C11   C     C_R   0.520045 0.871520 0.507456 -0.238252
C12   C     C_R   0.298220 0.501480 0.472708 0.880883
C13   C     C_R   0.477254 0.935527 0.610045 0.162849
C14   C     C_3   0.370802 0.924905 0.655928 -0.105742
C15   C     C_3   0.367739 0.067566 0.654872 -0.480257
C16   C     C_R   0.439178 0.416328 0.060964 0.234946
C17   C     C_R   0.566930 0.574583 0.083362 -0.109230
C18   C     C_R   0.566855 0.574710 0.939401 -0.122773
C19   C     C_R   0.438994 0.416501 0.918359 0.228407
C20   C     C_3   0.322130 0.406828 0.893447 -0.503668
C21   C     C_3   0.322568 0.405985 0.047302 -0.524985
C22   C     C_R   0.505315 0.739700 0.501161 0.861931
C23   C     C_R   0.701999 0.503483 0.527393 0.900738
C24   C     C_R   0.814420 0.517114 0.544493 -0.058848
C25   C     C_R   0.186075 0.506332 0.454885 -0.069985
C26   C     C_R   0.020378 0.444236 0.333532 -0.184503
C27   C     C_R   0.128145 0.452122 0.340153 -0.206228
C28   C     C_R   0.137258 0.560235 0.558532 -0.229439
H1    H     H_    0.822304 0.422592 0.353176 0.172460
H2    H     H_    0.306913 0.106573 0.575493 0.179451
H3    H     H_    0.370366 0.111037 0.757766 0.214139
H4    H     H_    0.619569 0.636565 0.146505 0.157327
H5    H     H_    0.619157 0.637070 0.893998 0.169044
H6    H     H_    0.284644 0.492066 0.844088 0.218582
H7    H     H_    0.295195 0.316684 0.843905 0.202001
H8    H     H_    0.285224 0.490498 0.085895 0.221275
H9    H     H_    0.296565 0.315027 0.086862 0.203317
H10   H     H_    0.975839 0.397689 0.246744 0.143008
H11   H     H_    0.166350 0.410648 0.259527 0.153454
H12   H     H_    0.185349 0.601379 0.645392 0.186685
H13   H     H_    0.611371 0.121751 0.344251 0.199353
H14   H     H_    0.310496 0.878744 0.580546 0.164154
N1    N     N_R   0.499290 0.499140 0.142710 -0.114452
N2    N     N_R   0.499290 0.499180 0.857070 -0.118238
O1    O     O_R   0.500010 0.316790 0.614690 -0.608147
O2    O     O_R   0.500000 0.316760 0.385350 -0.619761
O3    O     O_R   0.346360 0.499990 0.595720 -0.632811
O4    O     O_R   0.346350 0.499960 0.366370 -0.617288
O5    O     O_R   0.500000 0.683240 0.614650 -0.615996
O6    O     O_R   0.499990 0.683210 0.385310 -0.625801
O7    O     O_R   0.653650 0.500040 0.633630 -0.591537
O8    O     O_R   0.653640 0.500010 0.404280 -0.642701
Zn1   Zn    Zn3+2 0.500010 0.500020 0.653130 0.953011
Zn2   Zn    Zn3+2 0.499990 0.499980 0.346870 0.946602
N3    N     N_3   0.376813 0.873721 0.794079 -0.411982
H15   H     H_    0.384406 0.776357 0.787530 0.218755
H16   H     H_    0.304318 0.889475 0.828382 0.230239
N4    N     N_3   0.812039 0.634470 0.759086 -0.445255
H17   H     H_    0.823439 0.731661 0.763409 0.191627
H18   H     H_    0.841306 0.595312 0.853542 0.175142
C29   C     C_2   0.032818 0.681146 0.773434 0.337072
H19   H     H_    0.014626 0.669041 0.876936 0.073937
O9    O     O_2   0.095171 0.762985 0.751355 -0.591261
C30   C     C_2   0.646686 0.872544 0.329283 0.424084
H20   H     H_    0.670356 0.776008 0.349148 0.069709
O10   O     O_2   0.679151 0.927422 0.234471 -0.579141

loop_
_geom_bond_atom_site_label_1
_geom_bond_atom_site_label_2
_ccdc_geom_bond_type
C23   C24   S    
C17   N1    A    
C15   H3    S    
C16   C21   S    
C18   N2    A    
C25   C27   A    
C1    C8    S    
C9    C10   A    
C11   C22   S    
C23   O7    A    
C19   C20   S    
O3    Zn1   S    
C12   C25   S    
C22   O6    A    
C20   H6    S    
C30   H20   S    
O2    Zn2   S    
N3    H15   S    
C7    C15   S    
C14   N3    S    
C23   O8    A    
O1    Zn1   S    
C7    C8    A    
C21   H8    S    
C2    C6    A    
C14   H14   S    
C19   N2    A    
C25   C28   A    
O4    Zn2   S    
C11   C13   A    
C16   N1    A    
C1    O1    A    
C26   C27   A    
O6    Zn2   S    
C5    C24   A    
C5    N4    S    
C12   O3    A    
O5    Zn1   S    
C5    C6    A    
C6    C29   S    
C12   O4    A    
O8    Zn2   S    
C17   C18   A    
C2    C3    A    
C22   O5    A    
C16   C19   A    
C29   H19   S    
C4    C24   A    
C18   H5    S    
C1    O2    A    
C10   C11   A    
C28   H12   S    
N4    H18   S    
C3    C4    A    
C7    C13   A    
C21   H9    S    
C20   C21   S    
C15   H2    S    
C29   O9    D    
C17   H4    S    
C14   C15   S    
C26   H10   S    
C2    C28   A    
N1    Zn2   S    
C13   C14   S    
N4    H17   S    
N3    H16   S    
C20   H7    S    
C9    H13   S    
N2    Zn1   S    
C3    C26   A    
C10   C30   S    
C4    H1    S    
C27   H11   S    
C8    C9    A    
O7    Zn1   S    
C30   O10   D    
