data_mof_unit_19335.cif
_audit_creation_date              2012-12-11T15:10:40-0500
_audit_creation_method            fapswitch 2.2
_symmetry_space_group_name_H-M    P1
_symmetry_Int_Tables_number       1
_space_group_crystal_system       triclinic
_cell_length_a                    21.124314
_cell_length_b                    7.236
_cell_length_c                    18.227097
_cell_angle_alpha                 89.981318
_cell_angle_beta                  93.584939
_cell_angle_gamma                 89.981521
_cell_volume                      2780.66050441

loop_
_atom_site_label
_atom_site_type_symbol
_atom_type_description
_atom_site_fract_x
_atom_site_fract_y
_atom_site_fract_z
_atom_type_partial_charge
O1    O     O_R   0.448880 0.506250 0.415280 -0.531913
O2    O     O_R   0.551120 0.006250 0.584720 -0.531769
O3    O     O_R   0.434830 0.174000 0.557310 -0.522734
O4    O     O_R   0.565170 0.674000 0.442690 -0.522840
C1    C     C_R   0.416903 0.344509 0.579550 0.691843
C2    C     C_R   0.583098 0.844503 0.420450 0.691770
O5    O     O_R   0.441680 0.176440 0.414130 -0.530368
O6    O     O_R   0.558320 0.676440 0.585870 -0.530633
O7    O     O_R   0.558020 0.007570 0.440520 -0.517479
O8    O     O_R   0.441980 0.507570 0.559480 -0.517508
C3    C     C_R   0.428141 0.345186 0.387977 0.683981
C4    C     C_R   0.571870 0.845101 0.612015 0.684058
O9    O     O_3   0.538160 0.339670 0.508820 -0.362945
O10   O     O_3   0.461840 0.839670 0.491180 -0.362846
V1    V     V_3+5 0.492920 0.064260 0.498360 1.408392
V2    V     V_3+5 0.507080 0.564260 0.501640 1.407948
C5    C     C_R   0.881405 0.899958 0.685409 -0.023120
C6    C     C_R   0.118614 0.384285 0.313801 -0.021499
H1    H     H_    0.968472 0.926228 0.753694 0.149060
H2    H     H_    0.031451 0.411920 0.245948 0.146967
H3    H     H_    0.796011 0.861256 0.566417 0.114807
H4    H     H_    0.203631 0.373938 0.433112 0.116747
C7    C     C_R   0.887948 0.936130 0.818612 -0.080262
C8    C     C_R   0.112056 0.435261 0.181376 -0.078586
C9    C     C_R   0.581145 0.851935 0.749373 0.032532
C10   C     C_R   0.419090 0.352138 0.250617 0.032644
C11   C     C_R   0.617501 0.829711 0.815498 -0.120920
C12   C     C_R   0.382855 0.330291 0.184394 -0.120859
C13   C     C_R   0.683749 0.816537 0.817710 -0.033086
C14   C     C_R   0.316612 0.316868 0.181988 -0.033160
C15   C     C_R   0.716149 0.854993 0.753037 -0.004580
C16   C     C_R   0.284067 0.354020 0.246649 -0.004535
C17   C     C_R   0.679111 0.857646 0.684436 0.046315
C18   C     C_R   0.321004 0.357887 0.315348 0.046591
C19   C     C_R   0.783707 0.885849 0.753276 0.080230
C20   C     C_R   0.216412 0.382386 0.246290 0.078642
C21   C     C_R   0.813985 0.884092 0.685351 0.063586
C22   C     C_R   0.186063 0.375991 0.313995 0.061689
C23   C     C_R   0.776099 0.866815 0.619359 -0.197341
C24   C     C_R   0.223903 0.368359 0.380261 -0.196349
C25   C     C_R   0.710392 0.861007 0.618872 -0.151044
C26   C     C_R   0.289651 0.364700 0.380876 -0.150650
C27   C     C_R   0.821704 0.927501 0.818417 -0.238279
C28   C     C_R   0.178356 0.426849 0.181450 -0.237711
C29   C     C_R   0.917147 0.919114 0.752601 -0.138292
C30   C     C_R   0.082839 0.410991 0.247093 -0.139509
C31   C     C_R   0.611474 0.853328 0.682519 -0.107266
C32   C     C_R   0.388643 0.353631 0.317398 -0.107408
H5    H     H_    0.800842 0.956653 0.869684 0.116633
H6    H     H_    0.199256 0.458680 0.130429 0.116668
H7    H     H_    0.593172 0.811905 0.865666 0.166209
H8    H     H_    0.407286 0.313127 0.134266 0.166172
H9    H     H_    0.684184 0.856243 0.565914 0.102064
H10   H     H_    0.315841 0.365887 0.433875 0.102207
C33   C     C_1   0.864769 0.938760 0.132444 -0.183022
C34   C     C_1   0.135233 0.438747 0.867561 -0.182126
C35   C     C_1   0.822114 0.924342 0.176452 0.029115
C36   C     C_1   0.177890 0.424337 0.823555 0.030157
C37   C     C_1   0.771796 0.904698 0.228869 0.023208
C38   C     C_1   0.228210 0.404711 0.771140 0.024144
C39   C     C_1   0.729389 0.887711 0.273048 0.002140
C40   C     C_1   0.270619 0.387739 0.726961 0.002981
C41   C     C_1   0.678818 0.868646 0.325165 -0.003922
C42   C     C_1   0.321188 0.368679 0.674840 -0.003571
C43   C     C_1   0.635700 0.855315 0.368597 -0.201281
C44   C     C_1   0.364303 0.355339 0.631405 -0.201000
O11   O     O_R   0.058070 0.289240 0.940580 -0.519337
O12   O     O_R   0.941930 0.789240 0.059420 -0.519062
O13   O     O_R   0.058330 0.616740 0.085880 -0.530843
O14   O     O_R   0.941670 0.116740 0.914120 -0.531404
C45   C     C_R   0.072052 0.448209 0.111932 0.693117
C46   C     C_R   0.927935 0.948320 0.888080 0.694187
O15   O     O_R   0.065180 0.619040 0.942700 -0.522164
O16   O     O_R   0.934820 0.119040 0.057300 -0.522526
O17   O     O_R   0.948870 0.787780 0.915270 -0.528838
O18   O     O_R   0.051130 0.287780 0.084730 -0.530157
C47   C     C_R   0.083144 0.450300 0.920122 0.708657
C48   C     C_R   0.916856 0.950305 0.079880 0.707747
O19   O     O_3   0.961870 0.453310 0.991210 -0.365685
O20   O     O_3   0.038130 0.953310 0.008790 -0.366001
V3    V     V_3+5 0.007070 0.728770 0.001630 1.438555
V4    V     V_3+5 0.992930 0.228770 0.998370 1.436202
C49   C     C_2   0.916447 0.898957 0.616852 0.398514
H11   H     H_    0.893039 0.927002 0.563593 0.052093
O21   O     O_2   0.973464 0.869159 0.619209 -0.513245
C50   C     C_2   0.083737 0.357726 0.381544 0.394986
H12   H     H_    0.105765 0.290318 0.429647 0.053551
O22   O     O_2   0.028736 0.408340 0.383966 -0.512538
C51   C     C_3   0.509733 0.865162 0.752701 -0.366435
C52   C     C_3   0.480762 0.676125 0.768486 -0.312702
C53   C     C_3   0.409864 0.692836 0.778579 -0.723468
H13   H     H_    0.401137 0.790880 0.823733 0.235533
H14   H     H_    0.384562 0.741839 0.726935 0.230384
H15   H     H_    0.390834 0.555701 0.793218 0.225427
H16   H     H_    0.488264 0.580391 0.722117 0.199536
H17   H     H_    0.504014 0.615970 0.819423 0.201394
H18   H     H_    0.498939 0.964382 0.796833 0.180428
H19   H     H_    0.486704 0.921749 0.701091 0.174665
C54   C     C_3   0.490512 0.365666 0.247444 -0.366380
C55   C     C_3   0.519633 0.176939 0.231434 -0.312654
C56   C     C_3   0.590551 0.194058 0.221559 -0.723511
H20   H     H_    0.599320 0.292909 0.176673 0.235508
H21   H     H_    0.615735 0.242253 0.273378 0.230298
H22   H     H_    0.609681 0.057246 0.206643 0.225512
H23   H     H_    0.512096 0.080608 0.277621 0.199468
H24   H     H_    0.496518 0.117302 0.180347 0.201333
H25   H     H_    0.501305 0.465428 0.203482 0.180337
H26   H     H_    0.513451 0.421766 0.299163 0.174786
C57   C     C_2   0.715634 0.731989 0.884551 0.347104
H27   H     H_    0.759835 0.657089 0.880928 0.061265
O23   O     O_2   0.692351 0.741653 0.944112 -0.525227
C58   C     C_2   0.284827 0.234101 0.114757 0.347098
H28   H     H_    0.240600 0.159189 0.117964 0.060636
O24   O     O_2   0.308231 0.245259 0.055305 -0.525231

loop_
_geom_bond_atom_site_label_1
_geom_bond_atom_site_label_2
_ccdc_geom_bond_type
C14   C16   A    
C41   C43   T    
C56   H20   S    
C7    C29   A    
C11   C13   A    
O11   C47   A    
O2    C4    A    
C2    O7    A    
C58   O24   D    
C52   H16   S    
C23   C25   A    
O5    C3    A    
C54   H26   S    
C55   H23   S    
C6    C50   S    
O12   V3    S    
C16   C20   A    
C13   C57   S    
C19   C21   A    
C5    C29   A    
C4    C31   S    
C45   O18   A    
C50   O22   D    
C35   C37   S    
C36   C38   S    
C7    C27   A    
C38   C40   T    
C39   C41   S    
C40   C42   S    
C2    C43   S    
C54   C55   S    
C18   C26   A    
O1    C3    A    
C15   C17   A    
C19   C27   A    
C9    C31   A    
C10   C32   A    
C10   C54   S    
C24   C26   A    
O6    V2    S    
C3    C32   S    
O16   V4    S    
C46   O17   A    
C6    C30   A    
O15   V3    S    
C58   H28   S    
C11   H7    S    
O12   C48   A    
C37   C39   T    
O13   C45   A    
O4    C2    A    
O18   V4    S    
C53   H13   S    
C33   C48   S    
C50   H12   S    
O17   V3    S    
C9    C51   S    
C34   C47   S    
C51   H18   S    
C5    C49   S    
C42   C44   T    
O4    V2    S    
C53   H14   S    
C49   H11   S    
H3    C23   S    
O6    C4    A    
H4    C24   S    
O1    V2    S    
C5    C21   A    
O2    V1    S    
C25   H9    S    
C49   O21   D    
C56   H22   S    
C33   C35   T    
C17   C31   A    
C15   C19   A    
C20   C28   A    
C18   C32   A    
C20   C22   A    
O3    V1    S    
C56   H21   S    
C28   H6    S    
C55   H24   S    
C7    C46   S    
C27   H5    S    
O20   V3    S    
O3    C1    A    
O19   V4    S    
H1    C29   S    
C52   H17   S    
C9    C11   A    
C54   H25   S    
C10   C12   A    
C51   H19   S    
C8    C30   A    
C57   O23   D    
C6    C22   A    
C17   C25   A    
C12   C14   A    
C21   C23   A    
O8    V2    S    
C57   H27   S    
C1    C44   S    
C53   H15   S    
C22   C24   A    
C12   H8    S    
C52   C53   S    
C8    C28   A    
O5    V1    S    
C55   C56   S    
C34   C36   T    
O7    V1    S    
O14   V4    S    
H2    C30   S    
O13   V3    S    
C1    O8    A    
O11   V4    S    
C13   C15   A    
O16   C48   A    
O9    V2    S    
C14   C58   S    
O15   C47   A    
O10   V1    S    
O14   C46   A    
C51   C52   S    
C26   H10   S    
C8    C45   S    
C16   C18   A    
