data_mof_unit_28942.cif
_audit_creation_date              2013-03-05T16:33:10-0500
_audit_creation_method            fapswitch 2.2
_symmetry_space_group_name_H-M    P1
_symmetry_Int_Tables_number       1
_space_group_crystal_system       triclinic
_cell_length_a                    27.821643
_cell_length_b                    10.818873
_cell_length_c                    9.529913
_cell_angle_alpha                 89.904805
_cell_angle_beta                  90.015459
_cell_angle_gamma                 90.129205
_cell_volume                      2868.48123509

loop_
_atom_site_label
_atom_site_type_symbol
_atom_site_description
_atom_site_fract_x
_atom_site_fract_y
_atom_site_fract_z
_atom_type_partial_charge
O1    O     O_R   0.500000 0.319640 0.618810 -0.582309
O2    O     O_R   0.500010 0.319680 0.381230 -0.590258
C1    C     C_R   0.500875 0.262254 0.500039 0.805403
O3    O     O_R   0.430260 0.500000 0.618780 -0.584675
O4    O     O_R   0.430270 0.500040 0.381190 -0.581190
C2    C     C_R   0.407448 0.499894 0.499965 0.801016
Cu1   Cu    Cu3+1 0.500000 0.499980 0.640670 0.944822
Cu2   Cu    Cu3+1 0.500000 0.500020 0.359330 0.945069
O5    O     O_R   0.499990 0.680320 0.618770 -0.579758
O6    O     O_R   0.500000 0.680360 0.381190 -0.584432
O7    O     O_R   0.569730 0.499960 0.618810 -0.582972
O8    O     O_R   0.569740 0.500000 0.381220 -0.583602
C3    C     C_R   0.500912 0.737720 0.499855 0.805613
C4    C     C_R   0.592582 0.499459 0.500108 0.828167
C5    C     C_R   0.177889 0.393942 0.463359 0.534200
O9    O     O_2   0.202615 0.291190 0.428835 -0.535200
N1    N     N_R   0.202085 0.499268 0.499857 -0.468736
C6    C     C_R   0.178089 0.604606 0.536353 0.534714
C7    C     C_R   0.278849 0.505869 0.626824 -0.102522
C8    C     C_R   0.328967 0.505901 0.627022 -0.219374
C9    C     C_R   0.328954 0.493123 0.372823 -0.214846
C10   C     C_R   0.278835 0.492791 0.372972 -0.102424
C11   C     C_R   0.253631 0.499270 0.499885 0.357806
C12   C     C_R   0.101888 0.499277 0.499929 -0.043696
C13   C     C_R   0.127424 0.391968 0.462792 -0.020583
C14   C     C_R   0.102209 0.285311 0.425544 -0.145030
C15   C     C_R   0.127630 0.606588 0.536997 -0.020830
C16   C     C_R   0.354501 0.499655 0.499931 -0.041428
H1    H     H_    0.347630 0.488100 0.273309 0.159221
H2    H     H_    0.259515 0.487931 0.274466 0.141097
H3    H     H_    0.120996 0.201982 0.394916 0.188501
C17   C     C_R   0.645592 0.499018 0.500781 -0.092942
C18   C     C_R   0.974326 0.387901 0.471436 0.042852
C19   C     C_R   0.974539 0.610602 0.529028 0.043187
C20   C     C_R   0.949193 0.499237 0.500347 0.070741
C21   C     C_R   0.947224 0.278604 0.449797 -0.202319
C22   C     C_R   0.897321 0.279569 0.451610 -0.140813
C23   C     C_R   0.872318 0.389142 0.475762 -0.028918
C24   C     C_R   0.898063 0.499205 0.500613 -0.043632
C25   C     C_R   0.872532 0.609236 0.525750 -0.026880
C26   C     C_R   0.822080 0.607165 0.525601 0.573868
N2    N     N_R   0.797943 0.499084 0.501521 -0.448180
C27   C     C_R   0.821862 0.391114 0.476729 0.569840
C28   C     C_R   0.721401 0.499700 0.375230 -0.192296
C29   C     C_R   0.671365 0.500213 0.374195 -0.212008
C30   C     C_R   0.670863 0.496660 0.628516 -0.319732
C31   C     C_R   0.721459 0.499785 0.630550 0.550273
C32   C     C_R   0.746440 0.498982 0.502537 0.288341
O10   O     O_2   0.796859 0.286027 0.453698 -0.526239
C33   C     C_R   0.025407 0.389087 0.466024 0.042489
C34   C     C_R   0.050754 0.499273 0.500018 0.068232
C35   C     C_R   0.025620 0.609452 0.534123 0.042399
C36   C     C_R   0.052304 0.283692 0.426745 -0.205289
H4    H     H_    0.652977 0.500569 0.274232 0.159205
H5    H     H_    0.740879 0.500034 0.276846 0.157166
H6    H     H_    0.878367 0.193343 0.434141 0.187631
H7    H     H_    0.963347 0.189481 0.433351 0.137047
H8    H     H_    0.036016 0.198234 0.393768 0.139341
O11   O     O_2   0.203008 0.707361 0.570826 -0.534659
C37   C     C_R   0.102622 0.713251 0.574292 -0.144926
H9    H     H_    0.347652 0.511015 0.726558 0.159414
H10   H     H_    0.259541 0.510617 0.725311 0.141161
H11   H     H_    0.121571 0.796585 0.604855 0.188593
C38   C     C_R   0.947642 0.719886 0.550828 -0.203043
C39   C     C_R   0.897738 0.718858 0.549542 -0.145234
O12   O     O_2   0.797287 0.712236 0.548965 -0.543184
C40   C     C_R   0.052722 0.714862 0.573267 -0.205430
H12   H     H_    0.963927 0.809038 0.567048 0.137348
H13   H     H_    0.651335 0.490543 0.726218 0.158253
H14   H     H_    0.878943 0.805060 0.567208 0.187739
H15   H     H_    0.036605 0.800318 0.606308 0.139471
C41   C     C_R   0.507186 0.063319 0.625681 0.140618
C42   C     C_R   0.505743 0.129194 0.499709 -0.096026
C43   C     C_R   0.511261 0.064674 0.372739 -0.208254
C44   C     C_R   0.511257 0.935854 0.372614 -0.210496
H16   H     H_    0.513078 0.888000 0.273054 0.158694
C45   C     C_R   0.505772 0.870782 0.499457 -0.096328
C46   C     C_R   0.507178 0.936120 0.625531 0.120148
C47   C     C_3   0.474764 0.928986 0.750243 -0.457023
C48   C     C_3   0.474827 0.069332 0.750550 -0.479332
H17   H     H_    0.439080 0.888123 0.725031 0.205778
H18   H     H_    0.493022 0.888397 0.843221 0.192253
H19   H     H_    0.439166 0.110197 0.725769 0.199421
H20   H     H_    0.493243 0.109312 0.843588 0.194950
C49   C     C_R   0.517289 0.599576 0.073457 0.258879
N3    N     N_R   0.500300 0.500930 0.147930 -0.184137
C50   C     C_R   0.478077 0.408277 0.074613 -0.081780
H21   H     H_    0.461046 0.332927 0.130448 0.140896
C51   C     C_R   0.478022 0.408373 0.925645 -0.081388
N4    N     N_R   0.500310 0.500890 0.852020 -0.183577
C52   C     C_R   0.517311 0.599513 0.926059 0.260036
C53   C     C_3   0.566914 0.651482 0.919877 -0.506600
C54   C     C_3   0.566917 0.651542 0.079194 -0.505679
H22   H     H_    0.593291 0.585877 0.874694 0.210601
H23   H     H_    0.567661 0.745828 0.873603 0.195697
H24   H     H_    0.593280 0.585938 0.124696 0.211860
H25   H     H_    0.567706 0.745962 0.124862 0.192488
O13   O     O_3   0.747660 0.493093 0.754436 -0.569111
C55   C     C_3   0.731551 0.581865 0.852101 -0.277414
H26   H     H_    0.699429 0.547553 0.909490 0.148203
H27   H     H_    0.724106 0.673098 0.802180 0.176270
H28   H     H_    0.760326 0.596666 0.930933 0.197177
H29   H     H_    0.513149 0.112972 0.273232 0.163149
H30   H     H_    0.460824 0.333362 0.870021 0.139396

loop_
_geom_bond_atom_site_label_1
_geom_bond_atom_site_label_2
_geom_bond_distance
_ccdc_geom_bond_type
C50   H21   1.081281 S    
C26   N2    1.366828 A    
C42   C43   1.406535 A    
C20   C24   1.422512 A    
C7    C8    1.394368 A    
C12   C15   1.408214 A    
C48   H20   1.111650 S    
C49   C52   1.404688 A    
Cu1   Cu2   2.681144 S    
C45   C46   1.395500 A    
Cu1   O7    1.951213 S    
N1    C11   1.434089 S    
C31   O13   1.389248 S    
C37   H11   1.083630 S    
C38   H12   1.076082 S    
C21   C22   1.388567 A    
C15   C37   1.395402 A    
C48   H19   1.112253 S    
C23   C24   1.408562 A    
O7    C4    1.297825 A    
C5    C13   1.404148 A    
C7    H10   1.082912 S    
C39   H14   1.083659 S    
C18   C21   1.416343 A    
Cu1   O5    1.961861 S    
C19   C20   1.421544 A    
C17   C29   1.403555 A    
C8    H9    1.082987 S    
O5    C3    1.291578 A    
C30   H13   1.080006 S    
C41   C46   1.376147 A    
C22   H6    1.083652 S    
C49   C54   1.490670 S    
C2    C16   1.473061 S    
C55   H26   1.110731 S    
C37   C40   1.388483 A    
Cu2   N3    2.014652 S    
C12   C34   1.422618 A    
C14   H3    1.083630 S    
C9    C10   1.394404 A    
O3    Cu1   1.951411 S    
C53   H22   1.109613 S    
C33   C34   1.421517 A    
C3    C45   1.445606 S    
C33   C36   1.416235 A    
C43   C44   1.393687 A    
C34   C35   1.421503 A    
C12   C13   1.408222 A    
O3    C2    1.297888 A    
C21   H7    1.076085 S    
C52   C53   1.490148 S    
C47   H17   1.112231 S    
N3    C50   1.369150 A    
C27   O10   1.349761 S    
C8    C16   1.406088 A    
C18   C33   1.422116 A    
C49   N3    1.364367 A    
Cu1   N4    2.014205 S    
C9    H1    1.082993 S    
C53   H23   1.111386 S    
O1    C1    1.292135 A    
C7    C11   1.400139 A    
C44   H16   1.082873 S    
C22   C23   1.395312 A    
C47   H18   1.111511 S    
C31   C32   1.404264 A    
Cu2   O8    1.951405 S    
C19   C38   1.416317 A    
N1    C6    1.367601 A    
N2    C32   1.432909 S    
C44   C45   1.406028 A    
C35   C40   1.416222 A    
C25   C26   1.403783 A    
C55   H27   1.114796 S    
C9    C16   1.406091 A    
O8    C4    1.298914 A    
C29   H4    1.081198 S    
C54   H24   1.109457 S    
C25   C39   1.395270 A    
C50   C51   1.419644 A    
C51   H30   1.080766 S    
N2    C27   1.366621 A    
C14   C36   1.388546 A    
C54   H25   1.111204 S    
C24   C25   1.408497 A    
C28   C29   1.392128 A    
C5    N1    1.367607 A    
C30   C31   1.408109 A    
C10   H2    1.082909 S    
O1    Cu1   1.962510 S    
C17   C30   1.405816 A    
O2    Cu2   1.961863 S    
C6    C15   1.404077 A    
C4    C17   1.474856 S    
C41   C42   1.395712 A    
O6    C3    1.291069 A    
O4    Cu2   1.951215 S    
C36   H8    1.076063 S    
C26   O12   1.349822 S    
C19   C35   1.422047 A    
C38   C39   1.388479 A    
O2    C1    1.290836 A    
C13   C14   1.395426 A    
C23   C27   1.404009 A    
C41   C48   1.493957 S    
C46   C47   1.493886 S    
C28   H5    1.083054 S    
N4    C52   1.363849 A    
O4    C2    1.297994 A    
C53   C54   1.518276 S    
C18   C20   1.421536 A    
C40   H15   1.076062 S    
C1    C42   1.446232 S    
C47   C48   1.518385 S    
C28   C32   1.398861 A    
C6    O11   1.349843 S    
C55   H28   1.109245 S    
Cu2   O6    1.962509 S    
O13   C55   1.412333 S    
C10   C11   1.400134 A    
C51   N4    1.368862 A    
C5    O9    1.349832 S    
C43   H29   1.083193 S    
