data_mof_unit_20270.cif
_audit_creation_date              2013-03-05T16:06:02-0500
_audit_creation_method            fapswitch 2.2
_symmetry_space_group_name_H-M    P1
_symmetry_Int_Tables_number       1
_space_group_crystal_system       triclinic
_cell_length_a                    10.524343
_cell_length_b                    14.998571
_cell_length_c                    15.461557
_cell_angle_alpha                 82.592239
_cell_angle_beta                  89.315455
_cell_angle_gamma                 103.97361
_cell_volume                      2346.26168145

loop_
_atom_site_label
_atom_site_type_symbol
_atom_site_description
_atom_site_fract_x
_atom_site_fract_y
_atom_site_fract_z
_atom_type_partial_charge
O1    O     O_R   0.462600 0.383110 0.605620 -0.623550
O2    O     O_R   0.537400 0.616890 0.394380 -0.625415
O3    O     O_R   0.510210 0.531900 0.639510 -0.619336
O4    O     O_R   0.489790 0.468100 0.360490 -0.619345
C1    C     C_R   0.484903 0.442169 0.662109 0.888474
C2    C     C_R   0.521907 0.557950 0.337829 0.906715
O5    O     O_R   0.662240 0.425610 0.483080 -0.627297
O6    O     O_R   0.337760 0.574390 0.516920 -0.623294
O7    O     O_R   0.709860 0.574400 0.516970 -0.608218
O8    O     O_R   0.290140 0.425600 0.483030 -0.605818
C3    C     C_R   0.742178 0.500382 0.499758 0.937544
C4    C     C_R   0.257811 0.499592 0.500315 0.948071
Zn1   Zn    Zn3+2 0.468210 0.400660 0.477370 0.974506
Zn2   Zn    Zn3+2 0.531790 0.599340 0.522630 0.975764
C5    C     C_3   0.930056 0.416663 0.481518 -0.209922
C6    C     C_3   0.069902 0.583307 0.518630 -0.207593
C7    C     C_3   0.016804 0.431046 0.561631 -0.269854
C8    C     C_3   0.983167 0.568920 0.438510 -0.270715
H1    H     H_    0.870707 0.349599 0.465024 0.196922
H2    H     H_    0.129244 0.650372 0.535126 0.197929
C9    C     C_3   0.122937 0.499769 0.500901 -0.161287
C10   C     C_3   0.877026 0.500190 0.499250 -0.157743
C11   C     C_3   0.037818 0.486009 0.422871 0.371476
C12   C     C_3   0.962144 0.513955 0.577282 0.375705
C13   C     C_R   0.498208 0.408897 0.753837 -0.039763
C14   C     C_R   0.554979 0.592317 0.245506 -0.044999
C15   C     C_R   0.512194 0.288254 0.870761 -0.144515
C16   C     C_R   0.631379 0.716318 0.126448 -0.152300
C17   C     C_R   0.488746 0.315163 0.783811 -0.147878
C18   C     C_R   0.594670 0.687254 0.214489 -0.158350
C19   C     C_R   0.533834 0.474998 0.810491 -0.184588
C20   C     C_R   0.555686 0.527324 0.188753 -0.215446
C21   C     C_R   0.564255 0.450396 0.896261 0.106943
C22   C     C_R   0.596641 0.554659 0.101273 0.093245
C23   C     C_R   0.547586 0.355109 0.927611 0.152451
C24   C     C_R   0.630020 0.650643 0.069266 0.153547
C25   C     C_R   0.601086 0.518046 0.953081 0.069886
C26   C     C_R   0.594801 0.488332 0.043702 0.068522
C27   C     C_R   0.583993 0.393294 0.073430 -0.191625
C28   C     C_R   0.641405 0.614205 0.922589 -0.181444
C29   C     C_R   0.563514 0.328012 0.015598 -0.182885
C30   C     C_R   0.658162 0.679417 0.980350 -0.188257
H3    H     H_    0.519210 0.454838 0.213159 0.165580
H4    H     H_    0.533782 0.545926 0.787381 0.154664
H5    H     H_    0.596544 0.738717 0.257887 0.170070
H6    H     H_    0.463406 0.263021 0.740368 0.165183
H7    H     H_    0.501578 0.215345 0.893735 0.162000
H8    H     H_    0.658825 0.789898 0.102815 0.162433
H9    H     H_    0.593752 0.367973 0.141008 0.159944
H10   H     H_    0.662977 0.640640 0.854300 0.162676
N1    N     N_R   0.574200 0.731700 0.552740 -0.110414
N2    N     N_R   0.425800 0.268300 0.447260 -0.112967
C31   C     C_R   0.692532 0.841054 0.638539 -0.230263
C32   C     C_R   0.304023 0.158229 0.363485 -0.227355
C33   C     C_R   0.662960 0.753045 0.614045 0.015232
C34   C     C_R   0.335497 0.246677 0.386946 0.017781
C35   C     C_R   0.513284 0.793644 0.512094 -0.020234
C36   C     C_R   0.486422 0.206189 0.487967 -0.023924
C37   C     C_R   0.540191 0.885178 0.532695 -0.008412
C38   C     C_R   0.456825 0.114047 0.468889 -0.007195
C39   C     C_R   0.629482 0.907744 0.599650 0.036336
C40   C     C_R   0.366335 0.091257 0.402665 0.030348
C41   C     C_R   0.482072 0.954018 0.489070 0.029310
C42   C     C_R   0.513676 0.044889 0.513209 0.030472
C43   C     C_R   0.598987 0.063500 0.582105 -0.279963
C44   C     C_R   0.394837 0.934984 0.421240 -0.277678
C45   C     C_R   0.655736 0.996649 0.625330 0.315352
C46   C     C_R   0.337941 0.001816 0.378155 0.313369
H11   H     H_    0.288262 0.298714 0.356954 0.175223
H12   H     H_    0.710213 0.701069 0.644169 0.166714
H13   H     H_    0.765359 0.856134 0.686796 0.202676
H14   H     H_    0.230127 0.142993 0.315934 0.207145
H15   H     H_    0.621372 0.129204 0.606528 0.173203
H16   H     H_    0.369986 0.868720 0.397982 0.175035
H17   H     H_    0.034325 0.376457 0.612473 0.195419
H18   H     H_    0.965588 0.623485 0.387660 0.195531
H19   H     H_    0.557163 0.231760 0.534027 0.132925
H20   H     H_    0.444589 0.768354 0.464805 0.133686
N3    N     N_R   0.085210 0.471337 0.338232 0.210165
O9    O     O_R   0.033968 0.395458 0.305971 -0.385089
O10   O     O_R   0.179395 0.534107 0.294713 -0.392799
N4    N     N_R   0.914806 0.528530 0.661972 0.208555
O11   O     O_R   0.964521 0.605010 0.693671 -0.388503
O12   O     O_R   0.822795 0.464771 0.706375 -0.401250
H21   H     H_    0.554288 0.255685 0.040496 0.171269
H22   H     H_    0.687281 0.752537 0.954890 0.177711
N5    N     N_R   0.737423 0.020175 0.696977 0.202907
O13   O     O_R   0.821753 0.100284 0.690743 -0.373214
O14   O     O_R   0.711266 0.969792 0.773074 -0.387788
N6    N     N_R   0.253905 0.977689 0.307771 0.203610
O15   O     O_R   0.167960 0.898181 0.315900 -0.372502
O16   O     O_R   0.279161 0.026577 0.230928 -0.379236

loop_
_geom_bond_atom_site_label_1
_geom_bond_atom_site_label_2
_geom_bond_distance
_ccdc_geom_bond_type
C13   C19   1.393934 A    
C44   C46   1.390798 A    
N5    O13   1.301429 A    
C14   C20   1.394351 A    
C6    C9    1.542470 S    
C15   C17   1.395434 A    
C18   H5    1.083002 S    
C24   C30   1.392669 A    
C27   C29   1.390385 A    
C5    H1    1.110607 S    
O1    C1    1.306349 A    
C25   C28   1.416594 A    
C26   C27   1.416883 A    
C35   C37   1.411952 A    
C36   C38   1.411872 A    
C44   H16   1.074404 S    
C43   H15   1.074793 S    
C38   C40   1.424281 A    
O4    Zn1   1.936078 S    
C12   N4    1.456529 S    
C36   H19   1.074123 S    
C31   C39   1.406185 A    
C5    C10   1.542309 S    
C43   C45   1.390925 A    
C46   N6    1.437856 S    
C19   C21   1.392246 A    
C30   H22   1.084020 S    
N1    C33   1.352239 A    
O6    C4    1.286858 A    
C5    C11   1.533895 S    
C41   C44   1.413472 A    
C6    C12   1.533934 S    
C22   C26   1.414860 A    
O2    C2    1.306019 A    
C23   C29   1.392769 A    
O8    C4    1.294397 A    
C31   C33   1.384213 A    
C13   C17   1.401588 A    
C32   C34   1.384162 A    
C37   C39   1.424539 A    
C7    C12   1.534776 S    
C19   H4    1.077800 S    
C8    C11   1.534717 S    
O4    C2    1.307106 A    
N3    O10   1.300641 A    
C32   C40   1.405977 A    
C15   C23   1.404111 A    
C4    C9    1.420025 S    
N4    O11   1.300401 A    
C21   C25   1.414078 A    
C41   C42   1.422225 A    
C20   C22   1.393221 A    
O5    C3    1.286890 A    
O7    Zn2   2.000702 S    
C25   C26   1.410214 A    
Zn1   N2    2.042635 S    
C39   C45   1.404740 A    
N6    O16   1.301390 A    
Zn2   N1    2.042636 S    
C6    H2    1.110609 S    
O7    C3    1.294346 A    
O3    Zn2   1.936078 S    
N2    C36   1.347764 A    
C1    C13   1.461542 S    
C27   H9    1.079631 S    
C14   C18   1.401393 A    
N4    O12   1.300431 A    
C9    C11   1.517030 S    
C10   C12   1.517064 S    
O1    Zn1   1.964676 S    
C31   H13   1.081105 S    
C15   H7    1.083679 S    
C5    C7    1.554074 S    
C16   H8    1.083707 S    
O6    Zn2   1.990358 S    
C8    C10   1.536755 S    
C45   N5    1.437985 S    
C35   H20   1.073726 S    
O3    C1    1.306795 A    
O8    Zn1   2.000700 S    
C29   H21   1.083955 S    
C3    C10   1.419817 S    
C37   C41   1.424937 A    
C40   C46   1.404513 A    
C17   H6    1.083020 S    
C38   C42   1.424684 A    
C42   C43   1.413247 A    
C16   C18   1.394769 A    
N6    O15   1.301428 A    
C2    C14   1.461585 S    
C28   H10   1.080006 S    
C28   C30   1.389621 A    
C21   C23   1.416521 A    
C20   H3    1.077452 S    
C22   C24   1.417292 A    
O2    Zn2   1.964673 S    
C7    C9    1.536588 S    
C33   H12   1.082180 S    
N3    O9    1.300483 A    
N1    C35   1.347534 A    
O5    Zn1   1.990359 S    
C32   H14   1.081072 S    
C16   C24   1.403651 A    
C6    C8    1.554109 S    
C34   H11   1.082068 S    
C7    H17   1.110288 S    
N5    O14   1.301425 A    
C11   N3    1.456504 S    
N2    C34   1.352169 A    
C8    H18   1.110323 S    
