data_mof_unit_53426.cif
_audit_creation_date              2012-12-10T16:59:17-0500
_audit_creation_method            fapswitch 2.2
_symmetry_space_group_name_H-M    P1
_symmetry_Int_Tables_number       1
_space_group_crystal_system       triclinic
_cell_length_a                    7.741703
_cell_length_b                    8.55246
_cell_length_c                    27.420127
_cell_angle_alpha                 90.670616
_cell_angle_beta                  86.210633
_cell_angle_gamma                 93.759343
_cell_volume                      1807.58654813

loop_
_atom_site_label
_atom_site_type_symbol
_atom_type_description
_atom_site_fract_x
_atom_site_fract_y
_atom_site_fract_z
_atom_type_partial_charge
C1    C     C_R   0.545615 0.794656 0.496866 0.961566
C2    C     C_R   0.406218 0.680767 0.132444 -0.020110
C3    C     C_R   0.510834 0.531995 0.646112 -0.039801
C4    C     C_R   0.481275 0.475444 0.353390 -0.064830
C5    C     C_R   0.389539 0.709362 0.030457 0.047222
C6    C     C_R   0.261228 0.449553 0.975368 0.042215
C7    C     C_R   0.278122 0.433008 0.026000 0.046680
C8    C     C_R   0.404218 0.715384 0.978791 0.042816
C9    C     C_R   0.339519 0.564282 0.053473 0.074899
C10   C     C_R   0.337642 0.585636 0.951545 0.073199
C11   C     C_R   0.429543 0.841511 0.060005 -0.237529
C12   C     C_R   0.453858 0.205113 0.500275 0.951868
C13   C     C_R   0.176302 0.332292 0.947272 -0.222955
C14   C     C_R   0.435896 0.827440 0.110286 -0.133833
C15   C     C_R   0.182801 0.341530 0.896654 -0.134964
C16   C     C_R   0.503185 0.502922 0.593940 0.853449
C17   C     C_R   0.495082 0.491210 0.406089 0.859151
C18   C     C_R   0.492130 0.842877 0.953315 -0.223219
C19   C     C_R   0.245205 0.287129 0.049612 -0.227507
C20   C     C_2   0.568997 0.958042 0.493339 -0.385900
C21   C     C_2   0.429115 0.041463 0.499358 -0.384219
C22   C     C_R   0.486052 0.702618 0.825010 0.514360
C23   C     C_R   0.353951 0.588913 0.899936 -0.054568
C24   C     C_R   0.361924 0.386131 0.175496 0.501456
C25   C     C_R   0.302705 0.467699 0.821632 0.511637
C26   C     C_R   0.425711 0.662216 0.182401 0.506622
C27   C     C_R   0.508428 0.425163 0.727160 -0.078927
C28   C     C_R   0.590791 0.557258 0.272403 -0.098306
C29   C     C_R   0.531357 0.406518 0.676823 -0.267551
C30   C     C_R   0.611983 0.548843 0.322208 -0.258551
C31   C     C_R   0.477043 0.680931 0.666126 0.059829
C32   C     C_R   0.332796 0.398693 0.333668 0.077048
C33   C     C_R   0.440730 0.694803 0.716508 -0.120813
C34   C     C_R   0.356683 0.549056 0.104159 -0.053437
C35   C     C_R   0.307301 0.420508 0.284331 -0.123869
C36   C     C_R   0.454742 0.567180 0.747238 0.260250
C37   C     C_R   0.435572 0.498304 0.253535 0.267287
C38   C     C_3   0.489257 0.827870 0.635455 -0.427980
C39   C     C_3   0.646750 0.935743 0.648518 -0.337731
C40   C     C_3   0.704446 0.051096 0.607707 -0.856692
C41   C     C_3   0.201889 0.290617 0.363089 -0.457635
C42   C     C_3   0.193164 0.123414 0.341809 -0.309136
C43   C     C_3   0.073000 0.012735 0.373950 -0.865200
C44   C     C_R   0.451399 0.712604 0.875691 -0.015858
C45   C     C_R   0.328821 0.401268 0.126317 -0.016170
C46   C     C_R   0.518039 0.839854 0.902676 -0.134806
C47   C     C_R   0.272765 0.271342 0.098763 -0.149706
C48   C     C_R   0.278065 0.465655 0.872593 -0.019635
H1    H     H_    0.013553 0.381894 0.463683 0.184756
H2    H     H_    0.525107 0.326717 0.750494 0.166858
H3    H     H_    0.469490 0.931409 0.131491 0.206804
H4    H     H_    0.118890 0.247446 0.876419 0.191741
H5    H     H_    0.454483 0.957724 0.045186 0.145410
H6    H     H_    0.102472 0.232726 0.963646 0.146507
H7    H     H_    0.551850 0.942423 0.971743 0.146266
H8    H     H_    0.207304 0.181005 0.030326 0.144647
H9    H     H_    0.700852 0.009408 0.487203 0.179479
H10   H     H_    0.297053 0.990223 0.505055 0.179148
H11   H     H_    0.764026 0.987698 0.576010 0.258857
H12   H     H_    0.986291 0.617814 0.536419 0.194704
H13   H     H_    0.592455 0.112680 0.596031 0.262613
H14   H     H_    0.803259 0.139025 0.620746 0.257376
H15   H     H_    0.613212 0.001934 0.682599 0.232551
H16   H     H_    0.758436 0.865048 0.655173 0.242886
H17   H     H_    0.502242 0.799045 0.596052 0.213949
H18   H     H_    0.368358 0.890598 0.641755 0.198842
H19   H     H_    0.122025 0.005506 0.410997 0.257069
H20   H     H_    0.939770 0.054465 0.377203 0.262510
H21   H     H_    0.067619 0.893598 0.357354 0.260763
H22   H     H_    0.144306 0.122834 0.304610 0.248760
H23   H     H_    0.402204 0.805591 0.731779 0.169540
H24   H     H_    0.325185 0.078691 0.339104 0.244005
H25   H     H_    0.235564 0.279988 0.401408 0.220804
H26   H     H_    0.071923 0.338942 0.363419 0.206574
H27   H     H_    0.187979 0.374442 0.269444 0.154765
H28   H     H_    0.592293 0.937227 0.884796 0.189090
H29   H     H_    0.250409 0.156355 0.115030 0.187929
H30   H     H_    0.728025 0.604268 0.336613 0.164715
H31   H     H_    0.559046 0.292923 0.661910 0.157420
H32   H     H_    0.692783 0.614280 0.248701 0.161863
N1    N     N_R   0.412694 0.580548 0.798918 -0.345645
N2    N     N_R   0.407920 0.515895 0.202707 -0.349435
N3    N     N_2   0.950320 0.457960 0.486880 -0.172377
N4    N     N_2   0.049680 0.542040 0.513120 -0.170013
O1    O     O_R   0.389250 0.738570 0.503220 -0.614116
O2    O     O_2   0.350927 0.242380 0.195759 -0.563691
O3    O     O_2   0.461916 0.789378 0.210464 -0.548900
O4    O     O_2   0.218763 0.356698 0.794988 -0.565009
O5    O     O_R   0.610750 0.261430 0.496780 -0.609128
O6    O     O_R   0.678390 0.711630 0.494810 -0.628654
O7    O     O_R   0.321610 0.288370 0.505190 -0.634514
O8    O     O_R   0.355440 0.513440 0.575450 -0.606111
O9    O     O_R   0.644560 0.486560 0.424550 -0.616478
O10   O     O_R   0.644590 0.486500 0.567040 -0.616531
O11   O     O_R   0.355410 0.513500 0.432960 -0.629086
O12   O     O_2   0.596243 0.811570 0.802340 -0.578033
Zn1   Zn    Zn3+2 0.306940 0.517990 0.505620 0.939108
Zn2   Zn    Zn3+2 0.693060 0.482010 0.494380 0.939294

loop_
_geom_bond_atom_site_label_1
_geom_bond_atom_site_label_2
_ccdc_geom_bond_type
C19   H8    S    
C1    O6    A    
C27   C29   A    
C41   C42   S    
C12   O7    A    
C46   H28   S    
C39   H16   S    
C35   H27   S    
N4    Zn1   S    
C35   C37   A    
C5    C11   A    
C38   C39   S    
C11   C14   A    
C19   C47   A    
O10   Zn2   S    
C42   H22   S    
C33   C36   A    
C40   H14   S    
C3    C29   A    
C24   N2    A    
C41   H26   S    
C22   C44   A    
N3    N4    D    
C43   H20   S    
N3    Zn2   S    
C32   C41   S    
C31   C33   A    
C17   O11   A    
C11   H5    S    
C27   H2    S    
C2    C34   A    
C26   N2    A    
C40   H11   S    
C25   N1    A    
C15   C48   A    
C2    C14   A    
C18   C46   A    
C44   C46   A    
O8    Zn1   S    
C45   C47   A    
C1    O1    A    
C22   N1    A    
C38   H18   S    
C12   O5    A    
C39   C40   S    
C26   O3    S    
C12   C21   S    
C25   O4    S    
C8    C18   A    
C40   H13   S    
C32   C35   A    
C5    C9    A    
C14   H3    S    
C29   H31   S    
C38   H17   S    
C36   N1    S    
C42   H24   S    
C2    C26   A    
C34   C45   A    
C15   H4    S    
O7    Zn1   S    
C3    C31   A    
C25   C48   A    
C4    C32   A    
C18   H7    S    
C4    C17   S    
C43   H19   S    
C16   O8    A    
C7    C19   A    
C13   C15   A    
C9    C34   A    
C10   C23   A    
C37   N2    S    
C17   O9    A    
C42   C43   S    
C24   C45   A    
C13   H6    S    
C7    C9    A    
C1    C20   S    
C23   C48   A    
C22   O12   S    
C6    C10   A    
C5    C8    A    
O11   Zn1   S    
C6    C7    A    
C27   C36   A    
C39   H15   S    
C16   O10   A    
C31   C38   S    
O5    Zn2   S    
H1    N3    S    
C28   C30   A    
C21   H10   S    
C6    C13   A    
H12   N4    S    
C28   C37   A    
C28   H32   S    
O1    Zn1   S    
C33   H23   S    
C41   H25   S    
C30   H30   S    
C20   C21   D    
C8    C10   A    
C47   H29   S    
C20   H9    S    
C43   H21   S    
C24   O2    S    
O9    Zn2   S    
O6    Zn2   S    
C4    C30   A    
C3    C16   S    
C23   C44   A    
