data_mof_unit_66541.cif
_audit_creation_date              2012-12-11T17:19:06-0500
_audit_creation_method            fapswitch 2.2
_symmetry_space_group_name_H-M    P1
_symmetry_Int_Tables_number       1
_space_group_crystal_system       triclinic
_cell_length_a                    15.271283
_cell_length_b                    7.476766
_cell_length_c                    13.421285
_cell_angle_alpha                 91.077707
_cell_angle_beta                  100.742474
_cell_angle_gamma                 89.259175
_cell_volume                      1505.24798782

loop_
_atom_site_label
_atom_site_type_symbol
_atom_type_description
_atom_site_fract_x
_atom_site_fract_y
_atom_site_fract_z
_atom_type_partial_charge
O1    O     O_R   0.648180 0.355050 0.151550 -0.527625
O2    O     O_R   0.351820 0.644950 0.848450 -0.538389
O3    O     O_R   0.851820 0.855050 0.348450 -0.524524
O4    O     O_R   0.148180 0.144950 0.651550 -0.507724
O5    O     O_R   0.835240 0.681980 0.154280 -0.501896
O6    O     O_R   0.164760 0.318020 0.845720 -0.528541
O7    O     O_R   0.664760 0.181980 0.345720 -0.516623
O8    O     O_R   0.335240 0.818020 0.654280 -0.520091
C1    C     C_R   0.856409 0.515738 0.125376 0.657963
C2    C     C_R   0.137553 0.486533 0.868686 0.695882
C3    C     C_R   0.639488 0.017378 0.371398 0.734287
C4    C     C_R   0.362034 0.983558 0.631855 0.639511
O9    O     O_R   0.647870 0.684600 0.139630 -0.524197
O10   O     O_R   0.352130 0.315400 0.860370 -0.520053
O11   O     O_R   0.852130 0.184600 0.360370 -0.511408
O12   O     O_R   0.147870 0.815400 0.639630 -0.526713
O13   O     O_R   0.663110 0.857440 0.333700 -0.529998
O14   O     O_R   0.336890 0.142560 0.666300 -0.522510
O15   O     O_R   0.836890 0.357440 0.166300 -0.529984
O16   O     O_R   0.163110 0.642560 0.833700 -0.510406
C5    C     C_R   0.614180 0.516047 0.115528 0.766150
C6    C     C_R   0.386187 0.483171 0.883990 0.812097
C7    C     C_R   0.887872 0.016598 0.381634 0.832425
C8    C     C_R   0.115682 0.983557 0.613130 0.747649
O17   O     O_3   0.755220 0.522230 0.313690 -0.398808
O18   O     O_3   0.244780 0.477770 0.686310 -0.360291
O19   O     O_3   0.744780 0.022230 0.186310 -0.378160
O20   O     O_3   0.255220 0.977770 0.813690 -0.379145
V1    V     V_3+5 0.749030 0.796100 0.238190 1.539440
V2    V     V_3+5 0.250970 0.203900 0.761810 1.563290
V3    V     V_3+5 0.750970 0.296100 0.261810 1.506635
V4    V     V_3+5 0.249030 0.703900 0.738190 1.564472
C9    C     C_1   0.969915 0.006919 0.461484 -0.139753
C10   C     C_1   0.036273 0.994714 0.529912 -0.132820
C11   C     C_1   0.532119 0.503551 0.035673 -0.078888
C12   C     C_1   0.465990 0.493041 0.966855 -0.077496
C13   C     C_R   0.552841 0.993338 0.723765 -0.040581
C14   C     C_R   0.442534 0.056981 0.292266 -0.044603
C15   C     C_R   0.943040 0.488737 0.777826 -0.032509
C16   C     C_R   0.044880 0.542269 0.213069 -0.073624
C17   C     C_R   0.637907 0.046401 0.773791 0.084798
C18   C     C_R   0.349511 0.074591 0.252939 0.121549
C19   C     C_R   0.852868 0.507690 0.728202 0.107874
C20   C     C_R   0.130056 0.602786 0.260058 0.150606
C21   C     C_R   0.706606 0.044708 0.716736 0.023303
C22   C     C_R   0.291754 0.094017 0.322260 0.011952
C23   C     C_R   0.788655 0.547648 0.788020 -0.019330
C24   C     C_R   0.197831 0.601613 0.201545 0.013418
C25   C     C_R   0.685009 0.019241 0.609100 -0.062735
C26   C     C_R   0.328167 0.112020 0.425688 -0.279052
C27   C     C_R   0.814271 0.572510 0.894907 -0.127375
C28   C     C_R   0.174758 0.581890 0.094734 -0.141284
C29   C     C_R   0.595063 0.012114 0.553980 -0.004474
C30   C     C_R   0.412949 0.038727 0.464151 0.029480
C31   C     C_R   0.903346 0.532102 0.947322 0.001192
C32   C     C_R   0.086355 0.540193 0.043085 -0.016559
C33   C     C_R   0.527308 0.995648 0.615240 0.050601
C34   C     C_R   0.476708 0.031418 0.398794 0.017342
C35   C     C_R   0.971079 0.505810 0.886392 0.004000
C36   C     C_R   0.018833 0.527350 0.104347 0.010354
C37   C     C_R   0.570496 0.015102 0.442497 -0.170334
C38   C     C_R   0.435374 0.995499 0.568741 -0.110202
C39   C     C_R   0.926504 0.515284 0.057093 -0.118713
C40   C     C_R   0.064481 0.504946 0.934224 -0.142935
C41   C     C_3   0.646690 0.106325 0.886261 -0.276570
C42   C     C_3   0.730329 0.201031 0.940294 -0.598569
H1    H     H_    0.779909 0.111315 0.984665 0.266644
H2    H     H_    0.761552 0.268683 0.885724 0.203979
H3    H     H_    0.712698 0.301607 0.994637 0.193474
H4    H     H_    0.591642 0.204195 0.888740 0.211972
H5    H     H_    0.633938 0.994961 0.933929 0.177821
C43   C     C_3   0.321220 0.103188 0.138027 -0.321239
C44   C     C_3   0.223542 0.113926 0.085456 -0.625483
H6    H     H_    0.187415 0.990378 0.094773 0.264137
H7    H     H_    0.189521 0.231658 0.111655 0.221503
H8    H     H_    0.220826 0.129593 0.003020 0.240714
H9    H     H_    0.351936 0.228110 0.120648 0.237060
H10   H     H_    0.353799 0.997389 0.099595 0.201578
C45   C     C_3   0.831444 0.467747 0.611732 -0.301997
C46   C     C_3   0.736341 0.469550 0.549801 -0.597258
H11   H     H_    0.691993 0.378098 0.580329 0.211409
H12   H     H_    0.707688 0.605718 0.539056 0.247422
H13   H     H_    0.738550 0.418183 0.473141 0.249027
H14   H     H_    0.871936 0.553963 0.572649 0.192224
H15   H     H_    0.858814 0.334850 0.598888 0.241080
C47   C     C_3   0.142001 0.654470 0.374050 -0.277880
C48   C     C_3   0.227563 0.738478 0.431509 -0.596729
H16   H     H_    0.265814 0.642649 0.484190 0.274663
H17   H     H_    0.270320 0.789262 0.382702 0.209299
H18   H     H_    0.211299 0.853775 0.477585 0.139987
H19   H     H_    0.088493 0.753676 0.380312 0.187222
H20   H     H_    0.128305 0.537946 0.418068 0.222399
C49   C     C_2   0.500201 0.899623 0.787753 0.718517
O21   O     O_2   0.494803 0.737105 0.780381 -0.541720
O22   O     O_R   0.461798 0.994772 0.859648 -0.674191
H21   H     H_    0.438101 0.914846 0.908246 0.284594
C50   C     C_2   0.499626 0.105275 0.221171 0.703492
O23   O     O_2   0.510215 0.263831 0.208995 -0.552182
O24   O     O_R   0.530788 0.975444 0.159863 -0.660304
H22   H     H_    0.563062 0.029332 0.108291 0.297543
C51   C     C_2   0.002295 0.412519 0.713483 0.723123
O25   O     O_2   0.012995 0.250980 0.712730 -0.523331
O26   O     O_R   0.037027 0.520446 0.646681 -0.664218
H23   H     H_    0.069207 0.449203 0.599351 0.310692
C52   C     C_2   0.994207 0.454895 0.282695 0.772648
O27   O     O_2   0.989982 0.291990 0.282082 -0.548925
O28   O     O_R   0.956245 0.556767 0.352262 -0.670074
H24   H     H_    0.931174 0.481110 0.401881 0.297851
C53   C     C_2   0.195293 0.114552 0.289801 0.734315
O29   O     O_2   0.161881 0.260215 0.295660 -0.559143
O30   O     O_R   0.141890 0.970496 0.252371 -0.684286
H25   H     H_    0.076613 0.004264 0.231767 0.312929
C54   C     C_2   0.802459 0.044001 0.767898 0.798042
O31   O     O_2   0.855879 0.134077 0.735286 -0.561659
O32   O     O_R   0.833387 0.934581 0.849272 -0.648045
H26   H     H_    0.899929 0.945291 0.875200 0.309340
C55   C     C_2   0.294206 0.589279 0.250321 0.793600
O33   O     O_2   0.318222 0.481886 0.317087 -0.543827
O34   O     O_R   0.357973 0.695580 0.218533 -0.664671
H27   H     H_    0.420728 0.669400 0.255967 0.312198
C56   C     C_2   0.692952 0.556815 0.740842 0.840039
O35   O     O_2   0.663119 0.687180 0.693521 -0.565714
O36   O     O_R   0.636187 0.417030 0.750827 -0.666936
H28   H     H_    0.572908 0.437938 0.713459 0.324021
C57   C     C_2   0.760621 0.987473 0.560098 0.713745
O37   O     O_2   0.782944 0.104002 0.509809 -0.594819
O38   O     O_R   0.817100 0.844038 0.589986 -0.658332
H29   H     H_    0.876009 0.851853 0.567110 0.298862
C58   C     C_2   0.297659 0.265418 0.482412 0.927878
O39   O     O_2   0.352178 0.376915 0.520649 -0.517949
O40   O     O_R   0.210203 0.282722 0.497405 -0.648203
H30   H     H_    0.172891 0.174989 0.472337 0.239874
C59   C     C_2   0.747625 0.665077 0.945129 0.749554
O41   O     O_2   0.767503 0.802432 0.993245 -0.532090
O42   O     O_R   0.659234 0.611959 0.925212 -0.674876
H31   H     H_    0.618058 0.708797 0.943380 0.285488
C60   C     C_2   0.247300 0.608728 0.040684 0.743136
O43   O     O_2   0.303094 0.491721 0.041529 -0.598554
O44   O     O_R   0.257267 0.773689 0.998879 -0.646977
H32   H     H_    0.319734 0.791832 0.987079 0.295741

loop_
_geom_bond_atom_site_label_1
_geom_bond_atom_site_label_2
_ccdc_geom_bond_type
O17   V3    S    
C42   H2    S    
C48   H16   S    
O1    C5    A    
C49   O21   D    
C16   C36   A    
C31   C35   A    
O19   V1    S    
O13   V1    S    
C44   H6    S    
C52   O27   D    
O3    C7    A    
O22   H21   S    
O15   V3    S    
C50   O23   D    
O36   H28   S    
O7    C3    A    
C52   O28   S    
C35   C40   A    
C51   O25   D    
C36   C39   A    
O9    V1    S    
C14   C18   A    
C47   H19   S    
C55   O34   S    
C30   C34   A    
C45   H14   S    
O4    C8    A    
C23   C56   S    
C42   H3    S    
C19   C45   S    
C41   H4    S    
O1    V3    S    
C4    C38   S    
O2    V4    S    
C18   C22   A    
O3    V1    S    
C49   O22   S    
C43   H10   S    
C14   C34   A    
C29   C37   A    
C1    O15   A    
C11   C12   T    
C2    O16   A    
C7    C9    S    
C31   C39   A    
O2    C6    A    
O28   H24   S    
C32   C40   A    
O14   V2    S    
C16   C20   A    
C34   C37   A    
O11   C7    A    
C42   H1    S    
O12   C8    A    
C13   C17   A    
C44   H7    S    
O10   V2    S    
C14   C50   S    
C20   C47   S    
C50   O24   S    
C15   C51   S    
O5    V1    S    
O44   H32   S    
O7    V3    S    
C13   C49   S    
O8    V4    S    
O42   H31   S    
C46   H12   S    
C29   C33   A    
C47   C48   S    
C43   C44   S    
C15   C19   A    
C30   C38   A    
C33   C38   A    
C41   H5    S    
C8    C10   S    
C32   C36   A    
O5    C1    A    
C43   H9    S    
C26   C58   S    
C21   C54   S    
C60   O44   S    
O24   H22   S    
C21   C25   A    
O8    C4    A    
C15   C35   A    
C18   C43   S    
C28   C60   S    
O9    C5    A    
C26   C30   A    
C57   O38   S    
C56   O35   D    
O6    V2    S    
C48   H17   S    
C59   O41   D    
C44   H8    S    
C48   H18   S    
O38   H29   S    
C45   H15   S    
C25   C57   S    
C46   H13   S    
C54   O31   D    
O16   V4    S    
C3    O13   A    
O30   H25   S    
C1    C39   S    
C2    C40   S    
C46   H11   S    
C3    C37   S    
O6    C2    A    
C23   C27   A    
O34   H27   S    
O11   V3    S    
C24   C55   S    
C5    C11   S    
O12   V4    S    
C6    C12   S    
C60   O43   D    
C22   C26   A    
O10   C6    A    
C53   O30   S    
C58   O39   D    
C47   H20   S    
C53   O29   D    
C27   C59   S    
O32   H26   S    
C57   O37   D    
C25   C29   A    
O20   V2    S    
C9    C10   T    
C27   C31   A    
C17   C41   S    
O40   H30   S    
O4    V2    S    
C56   O36   S    
C45   C46   S    
C28   C32   A    
C24   C28   A    
C51   O26   S    
C41   C42   S    
C22   C53   S    
C4    O14   A    
O26   H23   S    
C59   O42   S    
C17   C21   A    
C58   O40   S    
C55   O33   D    
C19   C23   A    
O18   V4    S    
C13   C33   A    
C20   C24   A    
C16   C52   S    
C54   O32   S    
