data_mof_unit_11955.cif
_audit_creation_date              2012-12-10T16:52:03-0500
_audit_creation_method            fapswitch 2.2
_symmetry_space_group_name_H-M    P1
_symmetry_Int_Tables_number       1
_space_group_crystal_system       triclinic
_cell_length_a                    7.776303
_cell_length_b                    8.563429
_cell_length_c                    14.853425
_cell_angle_alpha                 91.013869
_cell_angle_beta                  86.02137
_cell_angle_gamma                 93.635546
_cell_volume                      984.659285973

loop_
_atom_site_label
_atom_site_type_symbol
_atom_type_description
_atom_site_fract_x
_atom_site_fract_y
_atom_site_fract_z
_atom_type_partial_charge
C1    C     C_R   0.545729 0.794670 0.497654 0.955821
C2    C     C_R   0.557019 0.636491 0.812520 -0.267214
C3    C     C_R   0.492527 0.501360 0.232260 -0.033905
C4    C     C_R   0.507472 0.498640 0.767740 -0.033905
C5    C     C_R   0.543257 0.639086 0.186791 -0.257170
C6    C     C_R   0.456743 0.360913 0.813209 -0.257170
C7    C     C_R   0.545602 0.640068 0.093525 0.125010
C8    C     C_R   0.454398 0.359932 0.906475 0.125010
C9    C     C_R   0.497815 0.500434 0.046892 0.056469
C10   C     C_R   0.502185 0.499566 0.953108 0.056469
C11   C     C_R   0.446154 0.361550 0.094151 0.128525
C12   C     C_R   0.454271 0.205330 0.502346 0.955822
C13   C     C_R   0.553845 0.638449 0.905849 0.128525
C14   C     C_R   0.595830 0.777359 0.046278 -0.219088
C15   C     C_R   0.404169 0.222641 0.953722 -0.219088
C16   C     C_R   0.599877 0.776568 0.952556 -0.218655
C17   C     C_R   0.400122 0.223432 0.047444 -0.218655
C18   C     C_2   0.569805 0.958189 0.496297 -0.384572
C19   C     C_2   0.430195 0.041811 0.503703 -0.384571
C20   C     C_R   0.502409 0.499928 0.672732 0.881178
C21   C     C_R   0.497591 0.500072 0.327267 0.881178
C22   C     C_R   0.442981 0.363509 0.187480 -0.267214
H1    H     H_    0.405072 0.258166 0.225358 0.129534
H2    H     H_    0.418705 0.255727 0.775824 0.132021
H3    H     H_    0.638759 0.883559 0.916658 0.151648
H4    H     H_    0.361241 0.116441 0.083342 0.151648
H5    H     H_    0.594928 0.741834 0.774642 0.129534
H6    H     H_    0.631992 0.884869 0.081755 0.151341
H7    H     H_    0.368008 0.115130 0.918244 0.151341
H8    H     H_    0.701680 0.009207 0.489219 0.182101
H9    H     H_    0.298320 0.990793 0.510781 0.182101
H10   H     H_    0.013563 0.382542 0.432060 0.193427
H11   H     H_    0.986437 0.617457 0.567940 0.193427
H12   H     H_    0.581295 0.744273 0.224176 0.132021
N1    N     N_2   0.950330 0.457950 0.475660 -0.172531
N2    N     N_2   0.049670 0.542050 0.524340 -0.172531
O1    O     O_R   0.389250 0.738570 0.505970 -0.613069
O2    O     O_R   0.610750 0.261430 0.494030 -0.613069
O3    O     O_R   0.678390 0.711620 0.490370 -0.632116
O4    O     O_R   0.321610 0.288380 0.509630 -0.632116
O5    O     O_R   0.355420 0.513510 0.639950 -0.612177
O6    O     O_R   0.644580 0.486490 0.360050 -0.612177
O7    O     O_R   0.644560 0.486560 0.624350 -0.623726
O8    O     O_R   0.355440 0.513440 0.375650 -0.623726
Zn1   Zn    Zn3+2 0.306940 0.517990 0.510420 0.947147
Zn2   Zn    Zn3+2 0.693060 0.482010 0.489580 0.947147

loop_
_geom_bond_atom_site_label_1
_geom_bond_atom_site_label_2
_ccdc_geom_bond_type
C12   O4    A    
C2    C4    A    
C15   C17   A    
C2    H5    S    
C18   H8    S    
C21   O8    A    
C9    C10   A    
C11   C22   A    
N1    N2    D    
C1    O1    A    
C6    H2    S    
C5    H12   S    
H11   N2    S    
C20   O5    A    
C19   H9    S    
N2    Zn1   S    
C9    C11   A    
C1    C18   S    
O3    Zn2   S    
C17   H4    S    
C12   C19   S    
C8    C10   A    
C15   H7    S    
C8    C15   A    
C12   O2    A    
O4    Zn1   S    
O7    Zn2   S    
C14   C16   A    
O2    Zn2   S    
C3    C21   S    
C1    O3    A    
O1    Zn1   S    
C21   O6    A    
C4    C20   S    
H10   N1    S    
C7    C9    A    
C20   O7    A    
O8    Zn1   S    
C4    C6    A    
C18   C19   D    
O6    Zn2   S    
C13   C16   A    
C16   H3    S    
C5    C7    A    
C2    C13   A    
O5    Zn1   S    
C22   H1    S    
C11   C17   A    
C3    C22   A    
C6    C8    A    
C14   H6    S    
N1    Zn2   S    
C7    C14   A    
C3    C5    A    
C10   C13   A    
