data_mof_unit_53644.cif
_audit_creation_date              2012-12-10T18:39:46-0500
_audit_creation_method            fapswitch 2.2
_symmetry_space_group_name_H-M    P1
_symmetry_Int_Tables_number       1
_space_group_crystal_system       triclinic
_cell_length_a                    15.13146
_cell_length_b                    13.946038
_cell_length_c                    23.52962
_cell_angle_alpha                 90.181793
_cell_angle_beta                  93.438558
_cell_angle_gamma                 90.117844
_cell_volume                      4956.33595351

loop_
_atom_site_label
_atom_site_type_symbol
_atom_type_description
_atom_site_fract_x
_atom_site_fract_y
_atom_site_fract_z
_atom_type_partial_charge
C1    C     C_R   0.329552 0.500066 0.500631 0.826349
C2    C     C_R   0.502168 0.588045 0.701698 -0.245720
C3    C     C_R   0.493090 0.587028 0.239028 -0.119547
C4    C     C_R   0.503133 0.588645 0.760972 -0.119724
C5    C     C_R   0.496823 0.500374 0.209053 0.348955
C6    C     C_R   0.502999 0.502135 0.791005 0.350246
C7    C     C_R   0.095706 0.589534 0.515389 -0.249587
C8    C     C_R   0.907264 0.443664 0.541115 -0.251400
C9    C     C_R   0.902002 0.568975 0.469790 -0.242726
C10   C     C_R   0.090064 0.419082 0.497047 -0.261770
C11   C     C_R   0.187848 0.587682 0.516619 0.416274
C12   C     C_R   0.669734 0.500348 0.500958 0.836697
C13   C     C_R   0.815215 0.443296 0.540871 0.380837
C14   C     C_R   0.809819 0.565423 0.466335 0.414221
C15   C     C_R   0.181664 0.416607 0.492700 0.393107
C16   C     C_R   0.232166 0.501170 0.503408 -0.245589
C17   C     C_R   0.766004 0.501926 0.502080 -0.230604
C18   C     C_R   0.047030 0.505371 0.506325 0.016483
C19   C     C_R   0.950631 0.506691 0.506038 0.009754
C20   C     C_R   0.499444 0.499906 0.390957 0.768079
C21   C     C_R   0.500420 0.500155 0.609056 0.772564
C22   C     C_R   0.528110 0.107679 0.549305 0.362264
C23   C     C_R   0.501499 0.413500 0.238795 -0.119230
C24   C     C_R   0.423258 0.891721 0.481565 0.335956
C25   C     C_R   0.467887 0.106362 0.452125 0.306924
C26   C     C_R   0.574654 0.893267 0.519937 0.348657
C27   C     C_R   0.536457 0.208174 0.545903 0.389150
C28   C     C_R   0.428766 0.791440 0.476053 0.396050
C29   C     C_R   0.463404 0.207351 0.454160 0.384653
C30   C     C_R   0.570438 0.792541 0.524576 0.379791
C31   C     C_R   0.497762 0.054206 0.500894 -0.189165
C32   C     C_R   0.498451 0.945463 0.500981 -0.201742
C33   C     C_R   0.576505 0.472497 0.883477 0.548371
C34   C     C_R   0.501862 0.414865 0.761347 -0.123715
C35   C     C_R   0.423435 0.530905 0.116584 0.550545
C36   C     C_R   0.429194 0.534156 0.877236 0.556599
C37   C     C_R   0.571483 0.471092 0.122816 0.552513
C38   C     C_R   0.426909 0.534640 0.936670 -0.049603
C39   C     C_R   0.574032 0.471323 0.063401 -0.045665
C40   C     C_R   0.501622 0.503423 0.970066 -0.085692
C41   C     C_R   0.499457 0.502818 0.030040 -0.081612
C42   C     C_R   0.578327 0.472939 0.943534 -0.093160
C43   C     C_R   0.422556 0.532722 0.056570 -0.094976
C44   C     C_R   0.351293 0.565216 0.963081 -0.259167
C45   C     C_R   0.502506 0.413186 0.298071 -0.216452
C46   C     C_R   0.649716 0.440884 0.037002 -0.269165
C47   C     C_R   0.347384 0.562355 0.022353 0.442824
C48   C     C_R   0.654072 0.444471 0.977671 0.470241
C49   C     C_3   0.204559 0.525230 0.039041 0.085672
C50   C     C_3   0.120942 0.562125 0.065120 -0.283617
C51   C     C_3   0.045309 0.489661 0.057864 -0.951546
C52   C     C_3   0.802898 0.471540 0.966758 0.069256
C53   C     C_3   0.805118 0.555944 0.925294 -0.320871
C54   C     C_3   0.886820 0.618540 0.937994 -0.924281
C55   C     C_3   0.267276 0.675795 0.584714 0.128161
C56   C     C_R   0.500732 0.414061 0.702047 -0.223174
C57   C     C_3   0.201992 0.724623 0.622660 -0.422484
C58   C     C_3   0.243692 0.741792 0.682513 -0.874042
C59   C     C_3   0.770512 0.439548 0.631163 0.038012
C60   C     C_3   0.745531 0.372138 0.678694 -0.334943
C61   C     C_3   0.745909 0.424131 0.735818 -0.843193
C62   C     C_3   0.728060 0.583202 0.381497 0.086561
C63   C     C_3   0.792531 0.588926 0.333918 -0.421012
C64   C     C_3   0.750664 0.548990 0.278086 -0.807206
C65   C     C_3   0.199712 0.299214 0.425864 0.033589
C66   C     C_3   0.211194 0.190526 0.422561 -0.300186
C67   C     C_R   0.498677 0.499935 0.328369 -0.042852
C68   C     C_3   0.209331 0.155127 0.361089 -0.834119
C69   C     C_3   0.485149 0.034933 0.630497 0.099948
C70   C     C_3   0.453537 0.118251 0.666784 -0.346737
C71   C     C_3   0.380245 0.086147 0.704294 -0.925708
C72   C     C_3   0.297643 0.960754 0.512159 0.113846
C73   C     C_3   0.198405 0.951157 0.497009 -0.303305
C74   C     C_3   0.144024 0.997262 0.542313 -0.960099
C75   C     C_3   0.502506 0.035671 0.369090 0.101338
C76   C     C_3   0.463049 0.989701 0.314277 -0.300537
C77   C     C_3   0.535298 0.957611 0.275894 -0.943714
C78   C     C_R   0.501048 0.500698 0.671663 -0.037596
C79   C     C_3   0.701714 0.966905 0.493660 0.078544
C80   C     C_3   0.751964 0.881563 0.469753 -0.303237
C81   C     C_3   0.813930 0.913714 0.424665 -0.931949
C82   C     C_R   0.493951 0.586913 0.298285 -0.245431
Cu1   Cu    Cu3+1 0.500000 0.596430 0.500000 0.941651
Cu2   Cu    Cu3+1 0.500000 0.403570 0.500000 0.960284
H1    H     H_    0.294194 0.591352 0.937818 0.193027
H2    H     H_    0.504027 0.656347 0.783660 0.141396
H3    H     H_    0.062227 0.656507 0.523208 0.161502
H4    H     H_    0.944953 0.396924 0.570163 0.166645
H5    H     H_    0.935629 0.618520 0.442966 0.161126
H6    H     H_    0.051971 0.353478 0.491279 0.157667
H7    H     H_    0.615308 0.306285 0.573917 0.384638
H8    H     H_    0.384746 0.693303 0.424888 0.353585
H9    H     H_    0.388678 0.306428 0.423905 0.366185
H10   H     H_    0.615403 0.694162 0.574766 0.352175
H11   H     H_    0.225497 0.457294 0.060734 0.151113
H12   H     H_    0.706189 0.413573 0.062383 0.189134
H13   H     H_    0.188379 0.510455 0.993019 0.123091
H14   H     H_    0.135365 0.576523 0.111245 0.244333
H15   H     H_    0.100027 0.630387 0.044118 0.221698
H16   H     H_    0.029527 0.474420 0.012014 0.252701
H17   H     H_    0.985297 0.519275 0.076396 0.259684
H18   H     H_    0.063662 0.421754 0.080070 0.265207
H19   H     H_    0.863669 0.428121 0.962642 0.170186
H20   H     H_    0.805964 0.498405 0.011460 0.117965
H21   H     H_    0.806041 0.528285 0.880984 0.256930
H22   H     H_    0.744878 0.600538 0.928735 0.211117
H23   H     H_    0.504393 0.346222 0.215887 0.143671
H24   H     H_    0.887445 0.647329 0.982096 0.261771
H25   H     H_    0.885912 0.679651 0.907836 0.264670
H26   H     H_    0.948040 0.576340 0.932935 0.258055
H27   H     H_    0.329205 0.718949 0.585873 0.169523
H28   H     H_    0.286087 0.603846 0.602243 0.110829
H29   H     H_    0.181241 0.794420 0.603699 0.232374
H30   H     H_    0.142284 0.678802 0.625481 0.220622
H31   H     H_    0.264801 0.672722 0.702383 0.275902
H32   H     H_    0.194558 0.776096 0.709238 0.263972
H33   H     H_    0.302030 0.790029 0.680952 0.243486
H34   H     H_    0.501427 0.347703 0.784295 0.145651
H35   H     H_    0.719643 0.497000 0.626004 0.133172
H36   H     H_    0.835806 0.472807 0.644297 0.146611
H37   H     H_    0.678476 0.342215 0.668674 0.253623
H38   H     H_    0.793445 0.311822 0.682129 0.238188
H39   H     H_    0.812769 0.453565 0.747692 0.247118
H40   H     H_    0.727951 0.372653 0.769105 0.296825
H41   H     H_    0.697004 0.483508 0.733829 0.269671
H42   H     H_    0.666407 0.621590 0.367398 0.175421
H43   H     H_    0.708862 0.507038 0.388510 0.106212
H44   H     H_    0.811915 0.664895 0.327572 0.232453
H45   H     H_    0.506441 0.345114 0.320061 0.192996
H46   H     H_    0.853093 0.547096 0.346145 0.216650
H47   H     H_    0.730040 0.473227 0.283527 0.267546
H48   H     H_    0.799453 0.551926 0.244721 0.260601
H49   H     H_    0.691978 0.592225 0.263760 0.259429
H50   H     H_    0.244021 0.335627 0.396683 0.154982
H51   H     H_    0.130185 0.315634 0.410698 0.125201
H52   H     H_    0.274776 0.169101 0.444837 0.260437
H53   H     H_    0.156719 0.155709 0.444528 0.200359
H54   H     H_    0.145390 0.174053 0.338271 0.234172
H55   H     H_    0.216982 0.075963 0.360520 0.268596
H56   H     H_    0.499671 0.345700 0.680107 0.186427
H57   H     H_    0.264621 0.187532 0.338718 0.280208
H58   H     H_    0.507863 0.975838 0.659322 0.167466
H59   H     H_    0.429034 0.005421 0.603101 0.084568
H60   H     H_    0.510113 0.146626 0.694176 0.244334
H61   H     H_    0.427526 0.176896 0.638700 0.220694
H62   H     H_    0.322507 0.058844 0.677570 0.256959
H63   H     H_    0.358515 0.147960 0.729804 0.265503
H64   H     H_    0.404717 0.028809 0.733848 0.259947
H65   H     H_    0.313515 0.036451 0.523813 0.133466
H66   H     H_    0.313587 0.914323 0.550058 0.098131
H67   H     H_    0.491102 0.654908 0.320459 0.160057
H68   H     H_    0.181535 0.985824 0.455371 0.227635
H69   H     H_    0.180834 0.873887 0.492961 0.250801
H70   H     H_    0.160595 0.964743 0.584612 0.257903
H71   H     H_    0.072424 0.986113 0.531044 0.264611
H72   H     H_    0.157392 0.075562 0.544851 0.265776
H73   H     H_    0.547550 0.982700 0.390871 0.114676
H74   H     H_    0.540807 0.100719 0.358001 0.136136
H75   H     H_    0.422602 0.926350 0.325014 0.237573
H76   H     H_    0.419179 0.042148 0.291021 0.226454
H77   H     H_    0.575942 0.020001 0.263972 0.261162
H78   H     H_    0.502287 0.655935 0.679480 0.157108
H79   H     H_    0.504479 0.924737 0.236465 0.265906
H80   H     H_    0.578740 0.903530 0.297988 0.254355
H81   H     H_    0.750876 0.021070 0.510042 0.179002
H82   H     H_    0.660736 0.003052 0.459322 0.092043
H83   H     H_    0.791319 0.845576 0.504908 0.260897
H84   H     H_    0.704237 0.828869 0.449952 0.236832
H85   H     H_    0.775679 0.948943 0.388782 0.251860
H86   H     H_    0.848461 0.850323 0.407944 0.273786
H87   H     H_    0.864328 0.964579 0.443372 0.255424
H88   H     H_    0.490097 0.654498 0.216350 0.145738
N1    N     N_R   0.502952 0.502983 0.851990 -0.471206
N2    N     N_R   0.497157 0.500696 0.148072 -0.472276
N3    N     N_R   0.500000 0.258690 0.500000 -0.306616
N4    N     N_R   0.500000 0.741310 0.500000 -0.326280
O1    O     O_R   0.371460 0.581430 0.500000 -0.537539
O2    O     O_2   0.351320 0.558195 0.143495 -0.501448
O3    O     O_2   0.357781 0.563399 0.844764 -0.550826
O4    O     O_2   0.643203 0.442627 0.155267 -0.561021
O5    O     O_3   0.582596 0.253021 0.590312 -0.713600
O6    O     O_3   0.359583 0.746367 0.446396 -0.646941
O7    O     O_3   0.420817 0.251855 0.408494 -0.717476
O8    O     O_3   0.640041 0.748184 0.553899 -0.684431
O9    O     O_3   0.271935 0.595282 0.046537 -0.565417
O10   O     O_3   0.729167 0.411118 0.952890 -0.563128
O11   O     O_3   0.232813 0.672990 0.527390 -0.564814
O12   O     O_R   0.628540 0.418570 0.500000 -0.579857
O13   O     O_3   0.774045 0.387073 0.579777 -0.600753
O14   O     O_3   0.763737 0.630014 0.431224 -0.597171
O15   O     O_3   0.221846 0.329725 0.482430 -0.593601
O16   O     O_3   0.557980 0.062793 0.599242 -0.516610
O17   O     O_3   0.344447 0.935598 0.464053 -0.521543
O18   O     O_3   0.433058 0.059877 0.403808 -0.525714
O19   O     O_3   0.651684 0.939269 0.539873 -0.516051
O20   O     O_R   0.628540 0.581430 0.500000 -0.535276
O21   O     O_R   0.371460 0.418570 0.500000 -0.555987
O22   O     O_R   0.499970 0.581450 0.417880 -0.612234
O23   O     O_R   0.500030 0.418550 0.582120 -0.563820
O24   O     O_R   0.500030 0.581450 0.582120 -0.624251
O25   O     O_R   0.499970 0.418550 0.417880 -0.568744
O26   O     O_2   0.647397 0.442195 0.856484 -0.527813

loop_
_geom_bond_atom_site_label_1
_geom_bond_atom_site_label_2
_ccdc_geom_bond_type
Cu2   O25   S    
C25   C31   A    
C71   H63   S    
C76   H75   S    
C26   C32   A    
C59   H36   S    
C23   C45   A    
C55   H28   S    
C12   O20   A    
C5    N2    S    
C20   C67   S    
C68   H54   S    
C75   C76   S    
C2    H78   S    
C27   O5    S    
C13   O13   S    
C79   O19   S    
C39   C41   A    
C53   C54   S    
C51   H18   S    
C34   C56   A    
C74   H70   S    
C50   H15   S    
C8    C13   A    
H10   O8    S    
C61   H40   S    
C11   O11   S    
C33   C42   A    
C29   N3    A    
C20   O25   A    
C10   C15   A    
C62   H43   S    
C56   H56   S    
C52   H19   S    
C3    H88   S    
C4    H2    S    
C66   C68   S    
C15   C16   A    
C12   O12   A    
C33   O26   S    
C56   C78   A    
C54   H26   S    
C18   C19   S    
C73   C74   S    
C63   H46   S    
Cu1   O20   S    
C49   C50   S    
C28   O6    S    
C37   N2    A    
C1    O1    A    
C53   H22   S    
C9    C19   A    
C76   H76   S    
C64   H48   S    
C21   C78   S    
C45   C67   A    
C70   C71   S    
C81   H85   S    
C47   O9    S    
Cu2   N3    S    
C35   C43   A    
C80   H83   S    
C82   H67   S    
C44   C47   A    
C72   C73   S    
C75   H73   S    
C77   H80   S    
C40   C42   A    
C71   H64   S    
C59   C60   S    
Cu1   N4    S    
C81   H87   S    
C77   H77   S    
C41   C43   A    
C14   C17   A    
C60   H37   S    
C36   O3    S    
C52   O10   S    
C21   O23   A    
C26   O19   S    
C69   O16   S    
C30   N4    A    
Cu2   O23   S    
C25   C29   A    
C10   C18   A    
C46   C48   A    
C50   H14   S    
C8    C19   A    
C22   C31   A    
Cu1   O1    S    
C77   H79   S    
C24   C28   A    
C76   C77   S    
C4    C6    A    
C27   N3    A    
C72   O17   S    
C62   H42   S    
C28   N4    A    
C57   H29   S    
C69   H58   S    
C63   C64   S    
C34   H34   S    
C58   H33   S    
C49   H11   S    
C6    C34   A    
C54   H25   S    
C60   C61   S    
C8    H4    S    
C12   C17   S    
C7    C11   A    
C9    C14   A    
C24   C32   A    
C38   C44   A    
C62   C63   S    
C2    C78   A    
C11   C16   A    
Cu1   Cu2   S    
C5    C23   A    
C64   H47   S    
C7    C18   A    
C23   H23   S    
C62   O14   S    
C3    C82   A    
C50   C51   S    
C74   H72   S    
C68   H57   S    
C58   H32   S    
C1    C16   S    
C42   C48   A    
C81   H86   S    
C79   H81   S    
Cu1   O22   S    
C60   H38   S    
C20   O22   A    
C65   H51   S    
C70   H61   S    
C39   C46   A    
C66   H52   S    
C48   O10   S    
C75   H74   S    
C40   C41   A    
C46   H12   S    
C26   C30   A    
C72   H66   S    
C22   C27   A    
C55   C57   S    
C73   H68   S    
C65   O15   S    
C58   H31   S    
C59   O13   S    
C51   H17   S    
C21   O24   A    
C22   O16   S    
C44   H1    S    
C33   N1    A    
C52   C53   S    
C51   H16   S    
C37   O4    S    
C15   O15   S    
C64   H49   S    
C52   H20   S    
C59   H35   S    
C29   O7    S    
C55   H27   S    
C35   N2    A    
C30   O8    S    
C31   C32   S    
C1    O21   A    
C63   H44   S    
C80   C81   S    
C3    C5    A    
C55   O11   S    
C9    H5    S    
C57   H30   S    
C6    N1    S    
C54   H24   S    
Cu2   O21   S    
C69   H59   S    
C70   H60   S    
C13   C17   A    
C61   H39   S    
C45   H45   S    
H7    O5    S    
C37   C39   A    
H8    O6    S    
C38   C40   A    
H9    O7    S    
C57   C58   S    
C66   H53   S    
C24   O17   S    
C35   O2    S    
C2    C4    A    
C36   C38   A    
C74   H71   S    
C65   H50   S    
C65   C66   S    
C79   H82   S    
C7    H3    S    
C69   C70   S    
Cu2   O12   S    
C49   H13   S    
C79   C80   S    
C14   O14   S    
C75   O18   S    
C53   H21   S    
C36   N1    A    
C71   H62   S    
C49   O9    S    
C10   H6    S    
C67   C82   A    
C72   H65   S    
C73   H69   S    
C68   H55   S    
C61   H41   S    
Cu1   O24   S    
C43   C47   A    
C80   H84   S    
C25   O18   S    
