data_mof_unit_54650.cif
_audit_creation_date              2013-03-05T16:35:51-0500
_audit_creation_method            fapswitch 2.2
_symmetry_space_group_name_H-M    P1
_symmetry_Int_Tables_number       1
_space_group_crystal_system       triclinic
_cell_length_a                    23.48241
_cell_length_b                    9.080189
_cell_length_c                    7.778679
_cell_angle_alpha                 90.061822
_cell_angle_beta                  90.001952
_cell_angle_gamma                 89.997653
_cell_volume                      1658.60569148

loop_
_atom_site_label
_atom_site_type_symbol
_atom_site_description
_atom_site_fract_x
_atom_site_fract_y
_atom_site_fract_z
_atom_type_partial_charge
O1    O     O_R   0.500000 0.288390 0.642760 -0.562781
O2    O     O_R   0.500000 0.711610 0.357240 -0.562777
O3    O     O_R   0.500000 0.711610 0.642760 -0.579688
O4    O     O_R   0.500000 0.288390 0.357240 -0.579685
H1    H     H_    0.948255 0.364999 0.094128 0.202357
H2    H     H_    0.051783 0.635086 0.905879 0.202243
H3    H     H_    0.948263 0.635033 0.905888 0.202350
H4    H     H_    0.051776 0.365038 0.094106 0.202237
C1    C     C_R   0.500007 0.220008 0.499941 0.874420
C2    C     C_R   0.500007 0.779992 0.500059 0.874419
O5    O     O_R   0.417880 0.500000 0.642820 -0.561287
O6    O     O_R   0.582120 0.500000 0.357180 -0.560936
O7    O     O_R   0.582120 0.500000 0.642820 -0.560939
O8    O     O_R   0.417880 0.500000 0.357180 -0.561283
C3    C     C_R   0.209240 0.500069 0.499993 0.097511
C4    C     C_R   0.790795 0.500002 0.500011 0.097732
C5    C     C_R   0.390833 0.500005 0.499997 0.916821
C6    C     C_R   0.609175 0.499999 0.500003 0.916182
Cu1   Cu    Cu3+1 0.500000 0.500000 0.669080 1.101237
Cu2   Cu    Cu3+1 0.500000 0.500000 0.330920 1.101240
C7    C     C_R   0.298679 0.621758 0.432696 0.170379
C8    C     C_R   0.701358 0.379325 0.569857 0.170628
C9    C     C_R   0.298673 0.378310 0.567285 0.170409
C10   C     C_R   0.701356 0.620676 0.430161 0.170628
C11   C     C_R   0.328507 0.500024 0.499991 -0.262628
C12   C     C_R   0.671515 0.500000 0.500010 -0.262513
C13   C     C_R   0.880289 0.548252 0.643187 0.632897
C14   C     C_R   0.119750 0.451845 0.356794 0.632899
C15   C     C_R   0.880288 0.451748 0.356841 0.632906
C16   C     C_R   0.119752 0.548319 0.643179 0.632913
N1    N     N_R   0.851874 0.499999 0.500014 -0.441652
N2    N     N_R   0.148163 0.500085 0.499986 -0.441597
C17   C     C_R   0.940003 0.451111 0.353634 -0.032384
C18   C     C_R   0.060036 0.548969 0.646375 -0.032307
C19   C     C_R   0.940005 0.548925 0.646381 -0.032383
C20   C     C_R   0.060034 0.451165 0.353609 -0.032309
C21   C     C_R   0.969975 0.500032 0.500003 -0.002512
C22   C     C_R   0.030064 0.500056 0.499996 -0.002468
C23   C     C_R   0.970311 0.402870 0.208293 -0.147657
C24   C     C_R   0.029728 0.597213 0.791713 -0.147759
C25   C     C_R   0.970316 0.597186 0.791716 -0.147672
C26   C     C_R   0.029723 0.402895 0.208279 -0.147771
C27   C     C_1   0.500009 0.065390 0.499919 -0.070219
C28   C     C_1   0.500009 0.934610 0.500081 -0.070214
C29   C     C_R   0.238930 0.621622 0.433218 0.281006
C30   C     C_R   0.761108 0.379452 0.569264 0.280904
C31   C     C_R   0.238924 0.378492 0.566763 0.280960
C32   C     C_R   0.761106 0.620550 0.430753 0.280885
N3    N     N_1   0.500000 0.500000 0.076820 -0.015309
N4    N     N_1   0.500000 0.500000 0.923180 -0.015310
O9    O     O_2   0.850757 0.595296 0.781661 -0.460039
O10   O     O_2   0.149286 0.404774 0.218319 -0.460523
O11   O     O_2   0.850754 0.404670 0.218380 -0.460029
O12   O     O_2   0.149288 0.595406 0.781646 -0.460515
Br1   Br    Br    0.196908 0.787353 0.344760 -0.273271
Br2   Br    Br    0.803139 0.214930 0.660751 -0.273908
Br3   Br    Br    0.196892 0.212784 0.655204 -0.273315
Br4   Br    Br    0.803133 0.785066 0.339240 -0.273911
Br5   Br    Br    0.339498 0.790748 0.346129 -0.339072
Br6   Br    Br    0.660579 0.211566 0.659844 -0.339241
Br7   Br    Br    0.339483 0.209280 0.653827 -0.339045
Br8   Br    Br    0.660573 0.788434 0.340171 -0.339253

loop_
_geom_bond_atom_site_label_1
_geom_bond_atom_site_label_2
_geom_bond_distance
_ccdc_geom_bond_type
C16   N2    1.369880 A    
C27   C28   1.187501 T    
C32   Br4   1.927362 S    
C21   C22   1.411023 A    
C29   Br1   1.927151 S    
O8    Cu2   1.939173 S    
C31   Br3   1.927134 S    
C16   O12   1.350173 S    
C20   C26   1.405566 A    
Cu1   Cu2   2.630439 S    
C6    C12   1.463896 S    
C2    C28   1.403965 S    
C3    C31   1.405509 A    
C5    C11   1.463567 S    
C13   C19   1.402501 A    
C4    C32   1.405565 A    
C20   C22   1.409948 A    
C1    C27   1.403966 S    
C3    N2    1.434238 S    
C15   N1    1.369825 A    
O3    C2    1.272470 A    
C17   C23   1.405542 A    
C4    N1    1.434294 S    
O3    Cu1   1.932555 S    
C14   O10   1.350185 S    
O8    C5    1.279690 A    
O5    Cu1   1.939160 S    
Cu2   N3    1.976562 S    
C15   O11   1.350076 S    
O7    C6    1.279780 A    
C18   C24   1.405527 A    
C24   C25   1.395137 A    
C8    C30   1.403082 A    
H4    C26   1.083719 S    
C7    Br5   1.931106 S    
C23   C26   1.395142 A    
C7    C29   1.403059 A    
C9    C11   1.409813 A    
C13   N1    1.369837 A    
C8    Br6   1.931269 S    
C19   C25   1.405571 A    
Cu1   N4    1.976562 S    
O1    Cu1   1.932117 S    
C9    C31   1.403059 A    
C16   C18   1.402495 A    
O6    C6    1.279782 A    
O4    Cu2   1.932556 S    
C15   C17   1.402486 A    
C14   N2    1.369887 A    
H2    C24   1.083735 S    
O1    C1    1.272106 A    
C14   C20   1.402510 A    
C17   C21   1.409926 A    
N3    N4    1.195117 T    
C8    C12   1.410022 A    
C9    Br7   1.931152 S    
C30   Br2   1.927293 S    
H1    C23   1.083721 S    
C7    C11   1.409828 A    
C4    C30   1.405595 A    
O7    Cu1   1.939171 S    
C10   Br8   1.931221 S    
C19   C21   1.409893 A    
O4    C1    1.272469 A    
C18   C22   1.409968 A    
O2    Cu2   1.932116 S    
O6    Cu2   1.939157 S    
O2    C2    1.272106 A    
O5    C5    1.279690 A    
C10   C12   1.410076 A    
H3    C25   1.083681 S    
C13   O9    1.350068 S    
C3    C29   1.405487 A    
C10   C32   1.403077 A    
