data_mof_unit_15639.cif
_audit_creation_date              2012-12-10T17:08:41-0500
_audit_creation_method            fapswitch 2.2
_symmetry_space_group_name_H-M    P1
_symmetry_Int_Tables_number       1
_space_group_crystal_system       triclinic
_cell_length_a                    15.717144
_cell_length_b                    10.612893
_cell_length_c                    10.104439
_cell_angle_alpha                 92.431076
_cell_angle_beta                  91.574154
_cell_angle_gamma                 90.032699
_cell_volume                      1683.30953925

loop_
_atom_site_label
_atom_site_type_symbol
_atom_type_description
_atom_site_fract_x
_atom_site_fract_y
_atom_site_fract_z
_atom_type_partial_charge
C1    C     C_R   0.500095 0.262377 0.497019 0.933046
C2    C     C_3   0.951659 0.413113 0.598455 -0.655388
C3    C     C_3   0.917284 0.519748 0.507499 0.118558
C4    C     C_3   0.953672 0.653327 0.558021 0.611316
C5    C     C_3   0.054364 0.637941 0.561274 0.257721
C6    C     C_1   0.825547 0.514340 0.508106 0.000518
C7    C     C_1   0.174279 0.501468 0.496077 0.021783
C8    C     C_1   0.249637 0.500091 0.495333 -0.214630
C9    C     C_2   0.545449 0.928937 0.401771 -0.437020
C10   C     C_2   0.534302 0.866703 0.512797 0.304709
C11   C     C_2   0.553842 0.066030 0.407886 0.600858
C12   C     C_R   0.338532 0.499565 0.498425 0.886483
C13   C     C_2   0.500419 0.128825 0.488059 -0.364069
C14   C     C_2   0.442963 0.553128 0.925281 0.040908
C15   C     C_2   0.456574 0.576363 0.073744 0.022150
C16   C     C_R   0.507388 0.737218 0.503149 0.839538
C17   C     C_R   0.661475 0.500402 0.501594 0.893995
C18   C     C_3   0.049037 0.388378 0.580493 0.314136
C19   C     C_3   0.044576 0.495436 0.356973 -0.449028
C20   C     C_3   0.946211 0.486873 0.361163 -0.029067
C21   C     C_1   0.750268 0.507057 0.505589 -0.221353
C22   C     C_3   0.082716 0.504355 0.500695 0.147816
H1    H     H_    0.914496 0.325025 0.575227 0.181510
H2    H     H_    0.937315 0.434027 0.703504 0.200928
H3    H     H_    0.541754 0.881370 0.304443 0.162378
H4    H     H_    0.455095 0.081706 0.548542 0.144441
H5    H     H_    0.383560 0.582708 0.879232 0.077896
H6    H     H_    0.426855 0.658492 0.120173 0.101228
H7    H     H_    0.064621 0.579037 0.302674 0.235112
H8    H     H_    0.069458 0.413422 0.298366 0.170872
H9    H     H_    0.926671 0.387474 0.338690 0.160439
H10   H     H_    0.075233 0.644343 0.666256 0.057082
N1    N     N_2   0.500900 0.501330 0.852150 0.071305
N2    N     N_2   0.500920 0.501360 0.147810 -0.057177
O1    O     O_R   0.499990 0.319060 0.613040 -0.634226
O2    O     O_R   0.500010 0.319100 0.386900 -0.590024
O3    O     O_R   0.377130 0.499990 0.613120 -0.628253
O4    O     O_R   0.377160 0.500030 0.386980 -0.621704
O5    O     O_R   0.499990 0.680900 0.613100 -0.570356
O6    O     O_R   0.500010 0.680940 0.386960 -0.646915
O7    O     O_R   0.622840 0.499970 0.613020 -0.621044
O8    O     O_R   0.622870 0.500010 0.386880 -0.596609
Zn1   Zn    Zn3+2 0.499980 0.499970 0.650990 0.974289
Zn2   Zn    Zn3+2 0.500020 0.500030 0.349010 0.948432
C23   C     C_3   0.096040 0.365879 0.718311 -0.352945
C24   C     C_3   0.105536 0.472421 0.824074 -0.979253
H11   H     H_    0.155233 0.540460 0.797512 0.260646
H12   H     H_    0.044520 0.519017 0.844749 0.254803
H13   H     H_    0.128215 0.431868 0.918267 0.256823
H14   H     H_    0.062935 0.287572 0.765802 0.199666
H15   H     H_    0.161814 0.332753 0.701950 0.220366
O9    O     O_3   0.926301 0.741464 0.461901 -0.603221
C25   C     C_3   0.939547 0.871249 0.495998 -0.212183
H16   H     H_    0.958733 0.918955 0.405889 0.175403
H17   H     H_    0.989595 0.891365 0.572864 0.164261
H18   H     H_    0.879157 0.915192 0.528174 0.138083
O10   O     O_3   0.547852 0.924264 0.637669 -0.601901
C26   C     C_3   0.632952 0.903360 0.678575 -0.289313
H19   H     H_    0.678419 0.943333 0.608873 0.142834
H20   H     H_    0.645495 0.801171 0.689883 0.185751
H21   H     H_    0.644391 0.951833 0.776874 0.186197
O11   O     O_3   0.607635 0.131885 0.327168 -0.610191
C27   C     C_3   0.677590 0.058362 0.285877 -0.348804
H22   H     H_    0.657400 0.985971 0.208688 0.176592
H23   H     H_    0.710729 0.014122 0.370916 0.161687
H24   H     H_    0.724149 0.121057 0.240651 0.183358
O12   O     O_3   0.580163 0.523997 0.904691 -0.530370
C28   C     C_3   0.634981 0.423398 0.869369 -0.146407
H25   H     H_    0.692659 0.461412 0.824350 0.166452
H26   H     H_    0.605378 0.348861 0.802535 0.172857
H27   H     H_    0.657982 0.378420 0.960791 0.108117
C29   C     C_3   0.056556 0.256230 0.500694 -0.394599
C30   C     C_3   0.144779 0.214012 0.453879 -0.911177
H28   H     H_    0.168966 0.275309 0.377344 0.260693
H29   H     H_    0.192276 0.208717 0.536262 0.247783
H30   H     H_    0.139061 0.117585 0.407263 0.247830
H31   H     H_    0.032994 0.180667 0.563555 0.185544
H32   H     H_    0.013427 0.249883 0.412554 0.193279
C31   C     C_3   0.498984 0.366356 0.107734 -0.109477
C32   C     C_3   0.410502 0.307524 0.120123 -0.871199
H33   H     H_    0.383978 0.326942 0.218882 0.289807
H34   H     H_    0.365545 0.344473 0.044541 0.225942
H35   H     H_    0.414854 0.203686 0.103103 0.234534
H36   H     H_    0.517958 0.343402 0.006580 0.162053
H37   H     H_    0.546627 0.316350 0.168462 0.232311
C33   C     C_3   0.903396 0.562173 0.247874 -0.289341
C34   C     C_3   0.912241 0.494358 0.112210 -0.980292
H38   H     H_    0.980372 0.481438 0.088780 0.270261
H39   H     H_    0.880408 0.400809 0.110348 0.261449
H40   H     H_    0.881722 0.551366 0.034411 0.263553
H41   H     H_    0.834416 0.575322 0.264331 0.226336
H42   H     H_    0.932290 0.657040 0.241659 0.260188
O13   O     O_3   0.092954 0.734713 0.489292 -0.579556
C35   C     C_3   0.154614 0.803291 0.567551 -0.355832
H43   H     H_    0.207631 0.741647 0.599815 0.173506
H44   H     H_    0.125791 0.850584 0.655758 0.141955
H45   H     H_    0.181709 0.877532 0.507085 0.196246
C36   C     C_3   0.922188 0.695444 0.701235 -0.469074
C37   C     C_3   0.827392 0.727931 0.711908 -0.844437
H46   H     H_    0.799412 0.761069 0.617832 0.268912
H47   H     H_    0.791151 0.644269 0.741273 0.254908
H48   H     H_    0.818930 0.803066 0.790320 0.233258
H49   H     H_    0.936329 0.624521 0.774766 0.171658
H50   H     H_    0.959303 0.778668 0.739932 0.181091

loop_
_geom_bond_atom_site_label_1
_geom_bond_atom_site_label_2
_ccdc_geom_bond_type
C34   H38   S    
C27   H23   S    
O13   C35   S    
C4    C36   S    
C2    C18   S    
C30   H29   S    
C30   H28   S    
C19   C20   S    
C3    C6    S    
C14   N1    D    
C15   H6    S    
C9    H3    S    
C7    C8    T    
C25   H16   S    
C24   H13   S    
C1    O1    A    
O11   C27   S    
C4    O9    S    
C33   H41   S    
C31   H36   S    
C23   H15   S    
C26   H20   S    
C36   H49   S    
C12   O3    A    
C17   O8    A    
C29   H32   S    
C5    C22   S    
C28   H25   S    
C20   C33   S    
C14   H5    S    
O1    Zn1   S    
C9    C10   D    
C15   N2    D    
C5    H10   S    
C11   O11   S    
C26   H21   S    
C27   H24   S    
O7    Zn1   S    
O8    Zn2   S    
C32   H35   S    
C25   H17   S    
C18   C29   S    
C24   H12   S    
O12   C28   S    
N1    Zn1   S    
C10   O10   S    
N2    Zn2   S    
C32   H34   S    
C33   C34   S    
C32   H33   S    
O5    Zn1   S    
C35   H45   S    
C26   H19   S    
C23   C24   S    
C6    C21   T    
C17   C21   S    
C31   C32   S    
O3    Zn1   S    
O4    Zn2   S    
C29   H31   S    
N2    C31   S    
C37   H46   S    
O6    Zn2   S    
C8    C12   S    
C19   C22   S    
C3    C20   S    
C35   H44   S    
C9    C11   S    
C16   O6    A    
C37   H47   S    
C34   H39   S    
C2    H2    S    
C30   H30   S    
C13   H4    S    
O2    Zn2   S    
C1    C13   S    
C3    C4    S    
C19   H7    S    
C18   C23   S    
C31   H37   S    
O9    C25   S    
N1    O12   S    
C25   H18   S    
C24   H11   S    
C18   C22   S    
C29   C30   S    
C5    O13   S    
C7    C22   S    
C2    C3    S    
C33   H42   S    
C11   C13   D    
O10   C26   S    
C23   H14   S    
C28   H27   S    
C36   H50   S    
C12   O4    A    
C35   H43   S    
C17   O7    A    
C16   O5    A    
C27   H22   S    
C4    C5    S    
C37   H48   S    
C28   H26   S    
C36   C37   S    
C34   H40   S    
C2    H1    S    
C14   C15   S    
C10   C16   S    
C19   H8    S    
C1    O2    A    
C20   H9    S    
