data_mof_unit_61073.cif
_audit_creation_date              2012-12-10T16:43:24-0500
_audit_creation_method            fapswitch 2.2
_symmetry_space_group_name_H-M    P1
_symmetry_Int_Tables_number       1
_space_group_crystal_system       triclinic
_cell_length_a                    18.415466
_cell_length_b                    18.473187
_cell_length_c                    18.481312
_cell_angle_alpha                 119.820971
_cell_angle_beta                  90.401627
_cell_angle_gamma                 119.816569
_cell_volume                      4454.39601856

loop_
_atom_site_label
_atom_site_type_symbol
_atom_type_description
_atom_site_fract_x
_atom_site_fract_y
_atom_site_fract_z
_atom_type_partial_charge
C1    C     C_R   0.361211 0.999225 0.138377 0.897435
C2    C     C_2   0.799288 0.994725 0.686977 -0.379197
C3    C     C_2   0.711326 0.928597 0.766459 0.562269
C4    C     C_R   0.638487 0.999581 0.861213 0.877324
C5    C     C_2   0.697322 0.002359 0.808797 -0.408189
C6    C     C_2   0.283284 0.445171 0.733228 0.562887
C7    C     C_2   0.195010 0.388554 0.690896 -0.408863
C8    C     C_2   0.337934 0.557325 0.779926 -0.280663
C9    C     C_2   0.304570 0.612353 0.812742 -0.380969
C10   C     C_2   0.283222 0.049621 0.338063 0.563366
C11   C     C_2   0.195017 0.004081 0.306532 -0.406380
C12   C     C_R   0.114151 0.805643 0.583553 -0.175867
C13   C     C_2   0.337893 0.057647 0.280583 -0.279596
C14   C     C_2   0.304528 0.991682 0.192202 -0.378504
C15   C     C_2   0.775808 0.937983 0.218144 -0.163380
C16   C     C_R   0.636856 0.277336 0.138918 0.731551
C17   C     C_2   0.810978 0.006429 0.306156 -0.291712
C18   C     C_2   0.724071 0.942118 0.162175 -0.161880
C19   C     C_2   0.688858 0.994946 0.195345 -0.294822
C20   C     C_2   0.782744 0.555489 0.219223 -0.119909
C21   C     C_2   0.815665 0.612907 0.307839 -0.238869
C22   C     C_2   0.734905 0.443896 0.167117 -0.279779
C23   C     C_R   0.180381 0.899148 0.663816 0.099516
C24   C     C_2   0.682021 0.388523 0.195286 0.407516
C25   C     C_R   0.138943 0.277349 0.638740 0.877011
C26   C     C_R   0.862876 0.723054 0.361589 0.825608
C27   C     C_R   0.860819 0.999567 0.637979 0.893747
C28   C     C_R   0.361223 0.722857 0.861963 0.882951
C29   C     C_R   0.138948 0.000240 0.361673 0.875700
C30   C     C_R   0.861019 0.000711 0.360453 0.858557
C31   C     C_R   0.140133 0.998462 0.638436 0.775344
C32   C     C_R   0.638905 0.999280 0.139596 0.853478
C33   C     C_R   0.359736 0.998243 0.858373 0.785876
C34   C     C_R   0.234657 0.898991 0.718622 0.096680
C35   C     C_R   0.220770 0.805334 0.691263 -0.174824
C36   C     C_R   0.153863 0.714076 0.612746 -0.137459
C37   C     C_R   0.100760 0.714230 0.559094 -0.143284
C38   C     C_3   0.373249 0.435734 0.809496 -0.286017
C39   C     C_3   0.373519 0.063121 0.437032 -0.283181
C40   C     C_3   0.668446 0.414775 0.329691 -0.288300
C41   C     C_3   0.624912 0.754043 0.690143 -0.284495
C42   C     C_R   0.303448 0.993049 0.797336 -0.073878
C43   C     C_R   0.320421 0.085046 0.818168 -0.205329
C44   C     C_R   0.267456 0.085198 0.764726 -0.206035
C45   C     C_R   0.196297 0.993340 0.689233 -0.069962
C46   C     C_2   0.776921 0.939270 0.719847 -0.276825
H1    H     H_    0.730865 0.068818 0.807143 0.118874
H2    H     H_    0.693872 0.034398 0.264302 0.148040
H3    H     H_    0.794362 0.590610 0.183858 0.169889
H4    H     H_    0.744413 0.406959 0.104198 0.138261
H5    H     H_    0.144082 0.643062 0.592761 0.136532
H6    H     H_    0.073381 0.801965 0.537782 0.143548
H7    H     H_    0.280757 0.157493 0.783632 0.155556
H8    H     H_    0.805585 0.897435 0.710541 0.197203
H9    H     H_    0.769576 0.034354 0.692115 0.157140
H10   H     H_    0.373904 0.157265 0.877460 0.158797
H11   H     H_    0.332675 0.436868 0.853989 0.143179
H12   H     H_    0.161589 0.423486 0.692410 0.118391
H13   H     H_    0.435694 0.513021 0.840363 0.160579
H14   H     H_    0.392210 0.384564 0.801788 0.192665
H15   H     H_    0.436148 0.095585 0.422714 0.156482
H16   H     H_    0.333403 0.978052 0.394785 0.143072
H17   H     H_    0.392196 0.089110 0.506939 0.197163
H18   H     H_    0.408501 0.118684 0.313030 0.192829
H19   H     H_    0.235097 0.927730 0.157739 0.156782
H20   H     H_    0.810801 0.578874 0.342934 0.175778
H21   H     H_    0.726024 0.409878 0.334735 0.141002
H22   H     H_    0.606258 0.344841 0.315199 0.204407
H23   H     H_    0.408525 0.595467 0.789380 0.197241
H24   H     H_    0.681808 0.479422 0.395748 0.180117
H25   H     H_    0.049791 0.643341 0.497486 0.132494
H26   H     H_    0.671407 0.738040 0.659439 0.161290
H27   H     H_    0.581456 0.751669 0.645532 0.148072
H28   H     H_    0.581168 0.691883 0.697795 0.194528
H29   H     H_    0.235168 0.577410 0.807381 0.157242
H30   H     H_    0.161660 0.969427 0.238278 0.120999
H31   H     H_    0.786137 0.877817 0.185401 0.179644
H32   H     H_    0.262291 0.801388 0.728698 0.146525
H33   H     H_    0.805890 0.070350 0.340531 0.148359
H34   H     H_    0.713808 0.899033 0.091726 0.183547
O1    O     O_3   0.500000 0.000000 0.000000 -0.491407
O2    O     O_R   0.054120 0.939900 0.325040 -0.658514
O3    O     O_R   0.884120 0.060070 0.444330 -0.646985
O4    O     O_R   0.325020 0.939940 0.054210 -0.641707
O5    O     O_R   0.175860 0.060090 0.615830 -0.629906
O6    O     O_R   0.884120 0.939900 0.324160 -0.642888
O7    O     O_R   0.055710 0.939940 0.615850 -0.647444
O8    O     O_R   0.885720 0.939940 0.614980 -0.638654
O9    O     O_R   0.174930 0.060060 0.445830 -0.572214
O10   O     O_R   0.054120 0.229160 0.614300 -0.657059
O11   O     O_R   0.885050 0.770830 0.325070 -0.642985
O12   O     O_R   0.614240 0.229150 0.054160 -0.653300
O13   O     O_R   0.614240 0.060060 0.885070 -0.655108
O14   O     O_R   0.614900 0.229170 0.174980 -0.649724
O15   O     O_R   0.445840 0.770840 0.885740 -0.638751
O16   O     O_R   0.615830 0.060100 0.175880 -0.652315
O17   O     O_R   0.324090 0.939910 0.884220 -0.644228
O18   O     O_R   0.615830 0.939930 0.055710 -0.640872
O19   O     O_R   0.444240 0.060060 0.884190 -0.634466
O20   O     O_3   0.324889 0.397288 0.724859 -0.563658
O21   O     O_3   0.324727 0.099128 0.427428 -0.563479
O22   O     O_3   0.656770 0.433449 0.266607 -0.600597
O23   O     O_R   0.325020 0.770840 0.885120 -0.652115
O24   O     O_3   0.671458 0.847752 0.774788 -0.572189
O25   O     O_R   0.445840 0.060100 0.175010 -0.646659
O26   O     O_R   0.614900 0.939900 0.885710 -0.577651
O27   O     O_3   0.999960 0.000000 0.500040 -0.501556
O28   O     O_R   0.174930 0.229160 0.614920 -0.572542
O29   O     O_R   0.885720 0.770850 0.445880 -0.647725
O30   O     O_R   0.885050 0.060100 0.614330 -0.645365
Zn1   Zn    Zn3+2 0.542440 0.085830 0.956610 0.965683
Zn2   Zn    Zn3+2 0.543390 0.085850 0.129220 0.953954
Zn3   Zn    Zn3+2 0.543390 0.914160 0.957530 0.988545
Zn4   Zn    Zn3+2 0.370780 0.914160 0.956640 0.965374
Zn5   Zn    Zn3+2 0.957510 0.914170 0.543430 0.958539
Zn6   Zn    Zn3+2 0.956570 0.085840 0.542520 0.963650
Zn7   Zn    Zn3+2 0.956570 0.914150 0.370820 0.957469
Zn8   Zn    Zn3+2 0.129180 0.085840 0.543400 1.023967

loop_
_geom_bond_atom_site_label_1
_geom_bond_atom_site_label_2
_ccdc_geom_bond_type
C3    O24   S    
C15   C18   S    
C21   C26   S    
C23   C45   A    
C21   H20   S    
C35   C36   A    
C34   C42   A    
C41   H27   S    
C29   O9    A    
C2    C46   D    
C1    O4    A    
C5    H1    S    
C12   C23   A    
C8    H23   S    
C40   H24   S    
C28   O15   A    
C31   O5    A    
C33   C42   S    
C36   C37   A    
C18   C19   D    
C11   H30   S    
C17   H33   S    
C34   C35   A    
C30   O3    A    
C41   H28   S    
C44   H7    S    
O1    Zn1   S    
C27   O30   A    
C32   O18   A    
C8    C9    D    
C40   H21   S    
O1    Zn4   S    
C25   O28   A    
O11   Zn7   S    
C2    C27   S    
O10   Zn6   S    
C30   O6    A    
C7    H12   S    
O7    Zn5   S    
C22   H4    S    
C16   C24   S    
C13   C14   D    
C17   C30   S    
O5    Zn8   S    
C19   C32   S    
C12   H6    S    
C39   O21   S    
C39   H15   S    
C31   O7    A    
O26   Zn3   S    
O28   Zn8   S    
O2    Zn7   S    
O23   Zn4   S    
C38   O20   S    
C19   H2    S    
O18   Zn3   S    
C6    C8    S    
C26   O11   A    
C4    O26   A    
C38   H13   S    
C33   O19   A    
C6    O20   S    
C43   C44   A    
C20   H3    S    
C38   H11   S    
O16   Zn2   S    
O1    Zn2   S    
C23   C34   A    
O19   Zn1   S    
C46   H8    S    
C25   O10   A    
O9    Zn8   S    
C26   O29   A    
O27   Zn5   S    
C36   H5    S    
O13   Zn1   S    
C41   H26   S    
C38   H14   S    
C32   O16   A    
O25   Zn2   S    
C20   C22   S    
C16   O12   A    
C37   H25   S    
C31   C45   S    
C22   C24   D    
C42   C43   A    
O30   Zn6   S    
C44   C45   A    
C15   C17   D    
C39   H16   S    
O4    Zn4   S    
O27   Zn8   S    
O3    Zn6   S    
C10   O21   S    
C4    C5    S    
C3    C5    D    
C10   C13   S    
O12   Zn1   S    
C6    C7    D    
C39   H17   S    
C35   H32   S    
C16   O14   A    
C7    C25   S    
C41   O24   S    
C2    H9    S    
O8    Zn5   S    
C29   O2    A    
C12   C37   A    
C28   O23   A    
C15   H31   S    
C13   H18   S    
O15   Zn3   S    
O14   Zn2   S    
C14   H19   S    
C3    C46   S    
O6    Zn7   S    
C24   O22   S    
C27   O8    A    
O27   Zn6   S    
C10   C11   D    
O29   Zn5   S    
C40   O22   S    
C4    O13   A    
C43   H10   S    
C20   C21   D    
C11   C29   S    
C18   H34   S    
C40   H22   S    
O1    Zn3   S    
C1    C14   S    
C9    H29   S    
C33   O17   A    
O17   Zn4   S    
O27   Zn7   S    
C9    C28   S    
C1    O25   A    
