data_mof_unit_23531.cif
_audit_creation_date              2012-10-26T19:05:09-0400
_audit_creation_method            fapswitch 2.2
_symmetry_space_group_name_H-M    P1
_symmetry_Int_Tables_number       1
_space_group_crystal_system       triclinic
_cell_length_a                    15.88092
_cell_length_b                    10.871886
_cell_length_c                    9.624542
_cell_angle_alpha                 88.514187
_cell_angle_beta                  90.143113
_cell_angle_gamma                 94.466436
_cell_volume                      1656.12693262

loop_
_atom_site_label
_atom_site_type_symbol
_atom_type_description
_atom_site_fract_x
_atom_site_fract_y
_atom_site_fract_z
_atom_type_partial_charge
Br1   Br    Br    0.914621 0.666372 0.250321 -0.538325
Br2   Br    Br    0.077649 0.232942 0.470555 -0.465221
Br3   Br    Br    0.109636 0.771489 0.521283 -0.447858
C1    C     C_R   0.501437 0.262069 0.502990 0.548072
C2    C     C_R   0.438465 0.027108 0.877627 0.202173
C3    C     C_R   0.399116 0.911619 0.850523 0.047366
C4    C     C_R   0.340353 0.498958 0.499913 0.548492
C5    C     C_R   0.403403 0.862288 0.718808 0.236739
C6    C     C_R   0.453555 0.927004 0.613368 -0.040355
C7    C     C_R   0.477278 0.053419 0.630538 -0.042507
C8    C     C_R   0.501394 0.126888 0.509749 -0.027242
C9    C     C_R   0.517095 0.069479 0.385194 -0.117737
C10   C     C_R   0.512016 0.941697 0.377533 0.234697
C11   C     C_R   0.482996 0.869451 0.494015 0.027769
C12   C     C_3   0.950329 0.487539 0.648274 -0.253102
C13   C     C_R   0.614568 0.660087 0.148444 -0.044187
C14   C     C_R   0.676272 0.736135 0.084885 -0.165437
C15   C     C_R   0.681375 0.740163 0.943991 -0.137035
C16   C     C_R   0.494186 0.736651 0.498009 0.581533
C17   C     C_R   0.623827 0.669151 0.861737 0.276048
C18   C     C_R   0.559264 0.581518 0.924924 0.184535
C19   C     C_R   0.557349 0.579743 0.075045 0.117123
C20   C     C_R   0.445490 0.424259 0.075474 -0.001571
C21   C     C_R   0.445386 0.424386 0.928004 -0.016774
C22   C     C_R   0.659609 0.500161 0.500037 0.557549
C23   C     C_3   0.917177 0.503311 0.497677 0.009018
C24   C     C_3   0.047827 0.487681 0.649138 -0.204256
C25   C     C_3   0.042652 0.394592 0.410284 0.025524
C26   C     C_3   0.944898 0.394476 0.412143 -0.186248
C27   C     C_1   0.749302 0.501332 0.500133 0.007778
C28   C     C_3   0.083004 0.502125 0.498713 0.032965
C29   C     C_3   0.958005 0.627610 0.435580 0.061282
C30   C     C_3   0.055990 0.625501 0.432305 0.040536
C31   C     C_1   0.824893 0.502394 0.499425 -0.024497
C32   C     C_1   0.175266 0.500969 0.499190 0.026962
C33   C     C_1   0.250756 0.499908 0.499525 0.046401
C34   C     C_R   0.476011 0.098842 0.767476 -0.115068
Cu1   Cu    Cu3+1 0.499990 0.499990 0.640660 1.025143
Cu2   Cu    Cu3+1 0.500010 0.500010 0.359340 0.980568
H1    H     H_    0.922311 0.399366 0.696004 0.150215
H2    H     H_    0.719703 0.794701 0.145884 0.170478
H3    H     H_    0.730171 0.803347 0.897600 0.128494
H4    H     H_    0.400579 0.362040 0.874677 0.132088
H5    H     H_    0.064701 0.408491 0.300873 0.147681
H6    H     H_    0.916032 0.306030 0.457751 0.170217
H7    H     H_    0.920952 0.400994 0.303717 0.160208
H8    H     H_    0.078434 0.632121 0.322762 0.179361
H9    H     H_    0.940146 0.703361 0.502453 0.190626
H10   H     H_    0.467567 0.151741 0.014595 0.308293
H11   H     H_    0.340435 0.753471 0.593723 0.331631
H12   H     H_    0.075096 0.563990 0.714113 0.178390
H13   H     H_    0.555189 0.950350 0.187063 0.338431
H14   H     H_    0.678774 0.754775 0.698327 0.300700
H15   H     H_    0.930866 0.563640 0.713316 0.147149
H16   H     H_    0.536278 0.124373 0.293436 0.139295
H17   H     H_    0.507907 0.185722 0.794422 0.142820
H18   H     H_    0.364243 0.859897 0.932346 0.182166
H19   H     H_    0.400695 0.361738 0.131871 0.144162
H20   H     H_    0.066510 0.400510 0.699058 0.178230
H21   H     H_    0.614914 0.670005 0.256968 0.218340
N1    N     N_R   0.500800 0.501210 0.147910 -0.248807
N2    N     N_R   0.500820 0.501290 0.852040 -0.228733
O1    O     O_R   0.499990 0.319640 0.618810 -0.527662
O2    O     O_3   0.353030 0.755925 0.694558 -0.654432
O3    O     O_3   0.535045 0.886359 0.257154 -0.682004
O4    O     O_3   0.632224 0.691431 0.721936 -0.650830
O5    O     O_R   0.500000 0.319660 0.381240 -0.506685
O6    O     O_R   0.379430 0.499990 0.618840 -0.472225
O7    O     O_R   0.379440 0.500020 0.381260 -0.499147
O8    O     O_R   0.500000 0.680340 0.618760 -0.416524
O9    O     O_R   0.500010 0.680360 0.381190 -0.473003
O10   O     O_R   0.620560 0.499980 0.618740 -0.441485
O11   O     O_R   0.620570 0.500010 0.381160 -0.531819
O12   O     O_3   0.436530 0.069139 0.011551 -0.696474

loop_
_geom_bond_atom_site_label_1
_geom_bond_atom_site_label_2
_ccdc_geom_bond_type
C20   H19   S    
Cu1   O8    S    
C23   C29   S    
C2    C34   A    
H11   O2    S    
C4    C33   S    
C16   O9    A    
C32   C33   T    
C10   O3    S    
C1    O1    A    
C7    C34   A    
C17   O4    S    
C25   C26   S    
C15   H3    S    
Cu1   Cu2   S    
Br3   C30   S    
C13   H21   S    
C2    O12   S    
C4    O6    A    
C34   H17   S    
C23   C31   S    
C13   C14   A    
C21   N2    A    
C20   C21   A    
C28   C30   S    
C6    C7    A    
C15   C17   A    
C10   C11   A    
C29   H9    S    
C3    H18   S    
C24   H12   S    
Cu2   N1    S    
Cu1   O10   S    
C27   C31   T    
C24   C28   S    
C12   H15   S    
C5    C6    A    
C12   C23   S    
C3    C5    A    
C25   H5    S    
Br1   C29   S    
C26   H6    S    
C6    C11   A    
C12   C24   S    
C14   C15   A    
Cu2   O7    S    
C22   O10   A    
C9    C10   A    
C1    C8    S    
H14   O4    S    
C18   N2    A    
C5    O2    S    
Cu1   O6    S    
C30   H8    S    
C28   C32   S    
Cu1   O1    S    
C22   C27   S    
C13   C19   A    
Cu2   O5    S    
C11   C16   S    
C25   C28   S    
C4    O7    A    
C1    O5    A    
C8    C9    A    
C26   H7    S    
C29   C30   S    
C24   H20   S    
C19   N1    A    
C2    C3    A    
C22   O11   A    
Cu2   O11   S    
C14   H2    S    
C12   H1    S    
C9    H16   S    
C7    C8    A    
C20   N1    A    
C17   C18   A    
C23   C26   S    
C21   H4    S    
Cu2   O9    S    
H10   O12   S    
C16   O8    A    
Br2   C25   S    
C18   C19   A    
H13   O3    S    
Cu1   N2    S    
