data_mof_unit_65147.cif
_audit_creation_date              2013-03-05T16:25:07-0500
_audit_creation_method            fapswitch 2.2
_symmetry_space_group_name_H-M    P1
_symmetry_Int_Tables_number       1
_space_group_crystal_system       triclinic
_cell_length_a                    30.442693
_cell_length_b                    21.652786
_cell_length_c                    21.627159
_cell_angle_alpha                 89.789504
_cell_angle_beta                  134.67514
_cell_angle_gamma                 89.993768
_cell_volume                      10137.3343741

loop_
_atom_site_label
_atom_site_type_symbol
_atom_site_description
_atom_site_fract_x
_atom_site_fract_y
_atom_site_fract_z
_atom_type_partial_charge
O1    O     O_R   0.091640 0.500000 0.143360 -0.626433
O2    O     O_R   0.591640 0.000000 0.143360 -0.626039
O3    O     O_R   0.091570 0.500000 0.039860 -0.623989
O4    O     O_R   0.591570 0.000000 0.039860 -0.624009
C1    C     C_R   0.120391 0.500155 0.119998 0.880679
C2    C     C_R   0.620383 0.999848 0.119953 0.879838
O5    O     O_R   0.000030 0.591610 0.051750 -0.627225
O6    O     O_R   0.000030 0.408390 0.051750 -0.629451
O7    O     O_R   0.500030 0.091610 0.051750 -0.628818
O8    O     O_R   0.500030 0.908390 0.051750 -0.627451
O9    O     O_R   0.999970 0.591600 0.948260 -0.622840
O10   O     O_R   0.999970 0.408400 0.948260 -0.618802
O11   O     O_R   0.499970 0.091600 0.948260 -0.618265
O12   O     O_R   0.499970 0.908400 0.948260 -0.622934
C3    C     C_R   0.999788 0.619943 0.999636 0.889018
C4    C     C_R   0.999821 0.380135 0.999909 0.887667
C5    C     C_R   0.499955 0.119870 0.999842 0.888328
C6    C     C_R   0.499737 0.880090 0.999791 0.887754
Zn1   Zn    Zn3+2 0.000030 0.500000 0.069110 0.936841
Zn2   Zn    Zn3+2 0.500030 0.000000 0.069110 0.937533
Zn3   Zn    Zn3+2 0.999950 0.500000 0.930890 0.949543
Zn4   Zn    Zn3+2 0.499950 0.000000 0.930890 0.950135
O13   O     O_R   0.908410 0.500000 0.960140 -0.620803
O14   O     O_R   0.408410 0.000000 0.960140 -0.620679
O15   O     O_R   0.908350 0.500000 0.856640 -0.627291
O16   O     O_R   0.408350 0.000000 0.856640 -0.627095
C7    C     C_R   0.880031 0.500113 0.880287 0.879950
C8    C     C_R   0.380036 0.999829 0.880302 0.879772
C9    C     C_R   0.037667 0.718654 0.074400 0.121530
C10   C     C_R   0.042192 0.281047 0.073703 0.120766
C11   C     C_R   0.543046 0.218421 0.073483 0.119798
C12   C     C_R   0.539075 0.780880 0.074295 0.119612
C13   C     C_R   0.998830 0.685428 0.997964 -0.104207
C14   C     C_R   0.998238 0.314819 0.998346 -0.097617
C15   C     C_R   0.498798 0.185209 0.998209 -0.098265
C16   C     C_R   0.498236 0.814683 0.998102 -0.100167
C17   C     C_R   0.959197 0.717935 0.918447 -0.215180
C18   C     C_R   0.952672 0.283081 0.919822 -0.223125
C19   C     C_R   0.453289 0.217537 0.919678 -0.223127
C20   C     C_R   0.456109 0.782856 0.918708 -0.215406
H1    H     H_    0.928071 0.693545 0.857121 0.153971
H2    H     H_    0.917367 0.308073 0.859457 0.153597
H3    H     H_    0.417833 0.193006 0.859366 0.153469
H4    H     H_    0.423338 0.807784 0.857595 0.152436
C21   C     C_R   0.959043 0.782673 0.918544 -0.214029
C22   C     C_R   0.952491 0.218353 0.919883 -0.209971
C23   C     C_R   0.453159 0.282257 0.919737 -0.207925
C24   C     C_R   0.455927 0.718116 0.918747 -0.216076
H5    H     H_    0.927886 0.807580 0.857260 0.152803
H6    H     H_    0.917015 0.194096 0.859333 0.162625
H7    H     H_    0.417533 0.306966 0.859245 0.163313
H8    H     H_    0.423086 0.693748 0.857556 0.156012
C25   C     C_R   0.999933 0.814520 0.998130 -0.085601
C26   C     C_R   0.999029 0.185729 0.998076 -0.099792
C27   C     C_R   0.499733 0.314298 0.997915 -0.099610
C28   C     C_R   0.499156 0.685590 0.998015 -0.088273
C29   C     C_R   0.039097 0.780590 0.074491 0.076201
C30   C     C_R   0.043308 0.219117 0.073372 0.077385
C31   C     C_R   0.544312 0.280353 0.073070 0.077862
C32   C     C_R   0.540311 0.718946 0.074199 0.076947
C33   C     C_3   0.087838 0.784953 0.171209 -0.491770
C34   C     C_3   0.099936 0.214166 0.168430 -0.477238
C35   C     C_3   0.600671 0.284672 0.168231 -0.480036
C36   C     C_3   0.592705 0.713935 0.170583 -0.485083
C37   C     C_3   0.086438 0.713564 0.171142 -0.034903
C38   C     C_3   0.098820 0.285559 0.168668 -0.044225
C39   C     C_3   0.599269 0.213314 0.168671 -0.046009
C40   C     C_3   0.591556 0.785341 0.170616 -0.036825
H9    H     H_    0.070088 0.806356 0.196795 0.169576
H10   H     H_    0.090273 0.192603 0.204533 0.178164
H11   H     H_    0.590877 0.306292 0.203999 0.179154
H12   H     H_    0.578351 0.692466 0.200850 0.170209
H13   H     H_    0.131283 0.805314 0.195942 0.219788
H14   H     H_    0.139433 0.193615 0.181827 0.218266
H15   H     H_    0.640402 0.304795 0.181974 0.218048
H16   H     H_    0.634561 0.693266 0.190469 0.219455
H17   H     H_    0.068738 0.693835 0.197712 0.171216
H18   H     H_    0.089288 0.305302 0.205678 0.170207
H19   H     H_    0.589179 0.193721 0.205189 0.171939
H20   H     H_    0.577482 0.805141 0.201942 0.170157
C41   C     C_R   0.219043 0.513827 0.271621 0.137723
C42   C     C_R   0.718979 0.017391 0.270303 0.134527
C43   C     C_R   0.186638 0.504180 0.184840 -0.166101
C44   C     C_R   0.686624 0.003567 0.184519 -0.167895
C45   C     C_R   0.218999 0.501560 0.160547 -0.217257
C46   C     C_R   0.718973 0.997032 0.160511 -0.216103
H21   H     H_    0.194445 0.497778 0.092752 0.180667
H22   H     H_    0.694396 0.990004 0.093129 0.180380
C47   C     C_R   0.283494 0.500293 0.224050 0.177594
C48   C     C_R   0.783486 0.995984 0.224043 0.172943
C49   C     C_R   0.314738 0.501768 0.312237 -0.077865
C50   C     C_R   0.814723 0.001792 0.311920 -0.080152
C51   C     C_R   0.282359 0.513090 0.334436 0.063016
C52   C     C_R   0.782283 0.017033 0.333057 0.076443
C53   C     C_3   0.285447 0.480022 0.398125 -0.520264
C54   C     C_3   0.785528 0.988632 0.399181 -0.538815
C55   C     C_3   0.215337 0.480851 0.328649 -0.438421
C56   C     C_3   0.715431 0.989071 0.329769 -0.429791
H23   H     H_    0.305816 0.509091 0.455206 0.198848
H24   H     H_    0.305518 0.432834 0.414040 0.212846
H25   H     H_    0.805841 0.020563 0.453829 0.204399
H26   H     H_    0.805729 0.941331 0.418630 0.206878
H27   H     H_    0.195328 0.510519 0.345660 0.200836
H28   H     H_    0.194617 0.434121 0.304334 0.204532
H29   H     H_    0.695279 0.021327 0.344304 0.200642
H30   H     H_    0.694979 0.942048 0.309254 0.203963
C57   C     C_R   0.780671 0.463027 0.819267 0.129605
C58   C     C_R   0.280390 0.036623 0.818843 0.129667
C59   C     C_R   0.814535 0.501698 0.814891 -0.095861
C60   C     C_R   0.314565 0.997999 0.815046 -0.095382
C61   C     C_R   0.782657 0.541550 0.742730 -0.216723
C62   C     C_R   0.283015 0.957834 0.743790 -0.216748
H31   H     H_    0.807528 0.572701 0.737035 0.155123
H32   H     H_    0.308153 0.926638 0.738660 0.154779
C63   C     C_R   0.717936 0.541582 0.677984 -0.215279
C64   C     C_R   0.218280 0.957654 0.679143 -0.215542
H33   H     H_    0.693526 0.572776 0.623000 0.157756
H34   H     H_    0.194119 0.926356 0.624733 0.157843
C65   C     C_R   0.685479 0.500335 0.684327 -0.096916
C66   C     C_R   0.185494 0.999049 0.684690 -0.097675
C67   C     C_R   0.718805 0.461433 0.755715 0.133370
C68   C     C_R   0.218518 0.038053 0.755396 0.133712
C69   C     C_3   0.713821 0.412125 0.798664 -0.494039
C70   C     C_3   0.213156 0.087892 0.797055 -0.492088
C71   C     C_3   0.784992 0.413401 0.871196 -0.489058
C72   C     C_3   0.284338 0.086762 0.869493 -0.490359
H35   H     H_    0.694766 0.368538 0.760812 0.211031
H36   H     H_    0.691569 0.429027 0.819743 0.198293
H37   H     H_    0.191122 0.071445 0.818694 0.199877
H38   H     H_    0.193676 0.131231 0.758000 0.210976
H39   H     H_    0.807035 0.370747 0.874750 0.199867
H40   H     H_    0.803897 0.430561 0.934402 0.212362
H41   H     H_    0.303493 0.070117 0.933214 0.212675
H42   H     H_    0.305934 0.129260 0.871788 0.199787
O17   O     O_R   0.948280 0.000000 0.856590 -0.627237
O18   O     O_R   0.448280 0.500000 0.856590 -0.624661
O19   O     O_R   0.051720 1.000000 0.960100 -0.620454
O20   O     O_R   0.551720 0.500000 0.960100 -0.622509
C73   C     C_R   0.000429 0.000591 0.880394 0.878820
C74   C     C_R   0.500332 0.499950 0.880410 0.883161
O21   O     O_R   0.948270 0.908380 0.948190 -0.624375
O22   O     O_R   0.948270 0.091620 0.948190 -0.631019
O23   O     O_R   0.448270 0.408380 0.948190 -0.630605
O24   O     O_R   0.448270 0.591620 0.948190 -0.625365
O25   O     O_R   0.051710 0.908380 0.051700 -0.620575
O26   O     O_R   0.051710 0.091620 0.051700 -0.621199
O27   O     O_R   0.551710 0.408380 0.051700 -0.621230
O28   O     O_R   0.551710 0.591620 0.051700 -0.621178
C75   C     C_R   0.000065 0.880035 0.999836 0.885512
C76   C     C_R   0.999829 0.120044 0.999626 0.876122
C77   C     C_R   0.500045 0.379962 0.999639 0.877184
C78   C     C_R   0.499844 0.619996 0.999664 0.883405
Zn5   Zn    Zn3+2 0.930930 0.000000 0.930840 0.937943
Zn6   Zn    Zn3+2 0.430930 0.500000 0.930840 0.939498
Zn7   Zn    Zn3+2 0.069060 0.000000 0.069060 0.950631
Zn8   Zn    Zn3+2 0.569060 0.500000 0.069060 0.948831
O29   O     O_R   0.948260 0.000000 0.039800 -0.626584
O30   O     O_R   0.448260 0.500000 0.039800 -0.626401
O31   O     O_R   0.051700 1.000000 0.143310 -0.621853
O32   O     O_R   0.551700 0.500000 0.143310 -0.621815
C79   C     C_R   0.999682 0.000518 0.119551 0.887105
C80   C     C_R   0.499687 0.499580 0.119544 0.887445
O33   O     O_R   0.499940 0.551750 0.408310 -0.628779
O34   O     O_R   0.499940 0.448250 0.408310 -0.620291
O35   O     O_R   0.999940 0.051750 0.408310 -0.618988
O36   O     O_R   0.999940 0.948250 0.408310 -0.630001
C81   C     C_R   0.500760 0.500061 0.380393 0.871588
C82   C     C_R   0.000778 0.000119 0.380426 0.870953
O37   O     O_R   0.408380 0.551720 0.408370 -0.619372
O38   O     O_R   0.408380 0.448280 0.408370 -0.622148
O39   O     O_R   0.908380 0.051720 0.408370 -0.620972
O40   O     O_R   0.908380 0.948280 0.408370 -0.619796
C83   C     C_R   0.380156 0.500211 0.380402 0.893389
C84   C     C_R   0.880147 0.000219 0.380310 0.892318
Zn9   Zn    Zn3+2 0.500000 0.569060 0.499990 0.949244
Zn10  Zn    Zn3+2 0.500000 0.430940 0.499990 0.944105
Zn11  Zn    Zn3+2 0.000000 0.069060 0.499990 0.945882
Zn12  Zn    Zn3+2 0.000000 0.930940 0.499990 0.947737
O41   O     O_R   0.500050 0.551670 0.591650 -0.621281
O42   O     O_R   0.500050 0.448330 0.591650 -0.627198
O43   O     O_R   0.000050 0.051670 0.591650 -0.626184
O44   O     O_R   0.000050 0.948330 0.591650 -0.620199
O45   O     O_R   0.591610 0.551710 0.591590 -0.624117
O46   O     O_R   0.591610 0.448290 0.591590 -0.623691
O47   O     O_R   0.091610 0.051710 0.591590 -0.623579
O48   O     O_R   0.091610 0.948290 0.591590 -0.624009
C85   C     C_R   0.500316 0.499865 0.620306 0.881820
C86   C     C_R   0.000339 0.999819 0.620622 0.875405
C87   C     C_R   0.619950 0.499954 0.619853 0.883343
C88   C     C_R   0.119954 0.999839 0.619887 0.884335
C89   C     C_R   0.981686 0.948417 0.764524 0.105731
C90   C     C_R   0.466918 0.541012 0.748277 0.131272
C91   C     C_R   0.002554 0.999949 0.816874 -0.075985
C92   C     C_R   0.501259 0.498877 0.815945 -0.091121
C93   C     C_R   0.033034 0.047349 0.815201 -0.219795
C94   C     C_R   0.537391 0.455258 0.819797 -0.219600
H43   H     H_    0.053484 0.085637 0.860127 0.150356
H44   H     H_    0.564842 0.421419 0.871870 0.156223
C95   C     C_R   0.536889 0.454853 0.754495 -0.218647
C96   C     C_R   0.033368 0.047225 0.751158 -0.218822
H45   H     H_    0.564232 0.420817 0.757047 0.158478
H46   H     H_    0.054125 0.085513 0.747019 0.163397
C97   C     C_R   0.501729 0.499301 0.687306 -0.101513
C98   C     C_R   0.004650 0.998748 0.690967 -0.103972
C99   C     C_R   0.468123 0.542044 0.687568 0.133940
C100  C     C_R   0.983079 0.947626 0.702448 0.156366
C101  C     C_3   0.425273 0.595855 0.640511 -0.479231
C102  C     C_3   0.922213 0.915580 0.638348 -0.490860
C103  C     C_3   0.920778 0.916521 0.707117 -0.494523
C104  C     C_3   0.424315 0.594904 0.710817 -0.506799
H47   H     H_    0.380328 0.583415 0.574744 0.192697
H48   H     H_    0.448131 0.637315 0.643289 0.213167
H49   H     H_    0.926617 0.868305 0.623299 0.208253
H50   H     H_    0.885838 0.944861 0.580818 0.194639
H51   H     H_    0.924550 0.869797 0.732021 0.197550
H52   H     H_    0.883456 0.946274 0.689305 0.217757
H53   H     H_    0.378769 0.582050 0.685612 0.210582
H54   H     H_    0.446913 0.635640 0.754496 0.199659
C105  C     C_R   0.992789 0.055216 0.210245 0.078958
C106  C     C_R   0.495295 0.444807 0.213061 0.079771
C107  C     C_R   0.999886 0.000068 0.185246 -0.083673
C108  C     C_R   0.499863 0.500159 0.185177 -0.082990
C109  C     C_R   0.018421 0.946497 0.234988 -0.216961
C110  C     C_R   0.515843 0.554430 0.231973 -0.218104
H55   H     H_    0.028804 0.904428 0.220268 0.136944
H56   H     H_    0.524278 0.596851 0.214989 0.137103
C111  C     C_R   0.517788 0.554534 0.298232 -0.206055
C112  C     C_R   0.020373 0.946480 0.301239 -0.206315
H57   H     H_    0.526913 0.597468 0.331056 0.166831
H58   H     H_    0.031499 0.903947 0.336370 0.166248
C113  C     C_R   0.505150 0.499834 0.318503 -0.094323
C114  C     C_R   0.005240 0.000643 0.318635 -0.093440
C115  C     C_R   0.498731 0.444584 0.279823 0.053380
C116  C     C_R   0.996273 0.055584 0.277065 0.053088
C117  C     C_3   0.452661 0.393738 0.241021 -0.455646
C118  C     C_3   0.947889 0.104557 0.235699 -0.456971
C119  C     C_3   0.943069 0.103996 0.160292 0.340341
C120  C     C_3   0.447750 0.394271 0.165551 0.339280
H59   H     H_    0.410186 0.409022 0.223555 0.189604
H60   H     H_    0.474113 0.351258 0.281933 0.192843
H61   H     H_    0.967319 0.147792 0.274411 0.193127
H62   H     H_    0.906186 0.087450 0.219111 0.188577
C121  C     C_3   0.964420 0.164120 0.150463 -0.882463
H63   H     H_    0.010213 0.178654 0.213721 0.220680
H64   H     H_    0.968286 0.157393 0.103571 0.235043
H65   H     H_    0.930473 0.201586 0.125925 0.247216
C122  C     C_3   0.879754 0.081947 0.074487 -0.837249
H66   H     H_    0.878937 0.080386 0.022432 0.258389
H67   H     H_    0.868780 0.035297 0.082146 0.230903
H68   H     H_    0.843256 0.114631 0.053763 0.230484
C123  C     C_3   0.383539 0.414140 0.078752 -0.837039
H69   H     H_    0.382791 0.416152 0.026762 0.257752
H70   H     H_    0.348503 0.379992 0.059346 0.230886
H71   H     H_    0.370445 0.460181 0.084350 0.231792
C124  C     C_3   0.471592 0.334999 0.158522 -0.884849
H72   H     H_    0.517955 0.322032 0.222440 0.220848
H73   H     H_    0.439252 0.296371 0.135801 0.247432
H74   H     H_    0.475108 0.341965 0.111249 0.234314
C125  C     C_3   0.145527 0.682712 0.205973 -0.862252
H75   H     H_    0.160224 0.702714 0.175471 0.250494
H76   H     H_    0.183132 0.689050 0.277444 0.244310
H77   H     H_    0.137471 0.632499 0.191997 0.242440
C126  C     C_3   0.152699 0.315991 0.187897 -0.872875
H78   H     H_    0.159813 0.295143 0.148571 0.253228
H79   H     H_    0.143115 0.366040 0.172465 0.233806
H80   H     H_    0.195624 0.310362 0.257932 0.244715
C127  C     C_3   0.653410 0.182284 0.189055 -0.859110
H81   H     H_    0.660781 0.202605 0.149663 0.249988
H82   H     H_    0.696147 0.187915 0.259086 0.246184
H83   H     H_    0.643875 0.132272 0.174583 0.237338
C128  C     C_3   0.648586 0.815696 0.198500 -0.872509
H84   H     H_    0.660138 0.794951 0.164412 0.253266
H85   H     H_    0.639765 0.865806 0.183105 0.235908
H86   H     H_    0.688604 0.809840 0.269699 0.243569
C129  C     C_3   0.316211 0.495019 0.195094 -0.918382
H87   H     H_    0.367151 0.494825 0.250044 0.232530
H88   H     H_    0.302254 0.451570 0.158111 0.237531
H89   H     H_    0.303127 0.534718 0.152189 0.244697
C130  C     C_3   0.816225 0.986595 0.195602 -0.913760
H90   H     H_    0.867182 0.986767 0.250488 0.234806
H91   H     H_    0.802348 0.941632 0.161750 0.246116
H92   H     H_    0.803044 0.024146 0.149973 0.235286

loop_
_geom_bond_atom_site_label_1
_geom_bond_atom_site_label_2
_geom_bond_distance
_ccdc_geom_bond_type
C30   C34   1.491506 S    
C126  H80   1.109970 S    
O36   C82   1.281553 A    
C124  H73   1.110496 S    
C6    C16   1.416756 S    
C40   H20   1.112035 S    
C102  H49   1.111529 S    
C42   C52   1.370389 A    
C27   C31   1.383140 A    
C120  C123  1.537537 S    
C128  H86   1.109961 S    
C42   C56   1.493749 S    
C117  H60   1.112101 S    
O12   C6    1.274352 A    
O33   C81   1.282157 A    
C129  H87   1.107095 S    
C112  C114  1.405736 A    
O22   C76   1.276676 A    
O18   C74   1.276128 A    
C125  H77   1.109878 S    
O33   Zn9   2.017983 S    
Zn12  O48   2.019947 S    
C112  H58   1.083092 S    
C69   H36   1.111785 S    
O21   C75   1.276210 A    
O47   C88   1.277782 A    
C26   C76   1.422350 S    
O38   Zn10  2.017302 S    
O17   C73   1.279196 A    
O19   C73   1.274644 A    
C34   H10   1.111091 S    
C103  H51   1.111676 S    
C104  H53   1.111515 S    
C65   C87   1.418651 S    
O1    C1    1.281859 A    
C12   C16   1.380905 A    
Zn9   O45   2.017125 S    
C129  H88   1.110462 S    
C44   C46   1.406730 A    
C18   H2    1.083514 S    
C24   H8    1.083525 S    
C54   H26   1.112238 S    
C59   C61   1.407915 A    
Zn5   O29   2.020698 S    
C26   C30   1.383345 A    
C15   C19   1.405800 A    
C1    C43   1.437176 S    
C127  H83   1.108922 S    
C46   H22   1.084003 S    
C69   C71   1.541710 S    
C82   C114  1.435114 S    
O40   Zn12  2.017302 S    
C121  H63   1.111534 S    
C9    C13   1.381580 A    
C124  H72   1.111458 S    
Zn11  O47   2.017125 S    
C118  C119  1.531325 S    
C49   C83   1.418375 S    
C24   C28   1.409016 A    
C33   H13   1.112079 S    
C90   C99   1.339117 A    
C130  H92   1.110472 S    
C11   C31   1.341727 A    
C35   H11   1.110580 S    
C23   C27   1.410038 A    
C20   C24   1.401812 A    
C42   C44   1.391529 A    
C5    C15   1.414918 S    
C81   C113  1.435669 S    
O3    C1    1.278837 A    
C41   C55   1.494306 S    
C4    C14   1.414820 S    
O26   C76   1.278713 A    
O9    C3    1.274731 A    
C45   C47   1.396383 A    
O26   Zn7   2.017662 S    
O10   C4    1.274529 A    
C72   H41   1.111478 S    
O8    Zn2   2.020187 S    
C102  C103  1.518523 S    
C63   H33   1.083479 S    
O19   Zn7   2.020528 S    
C79   C107  1.416447 S    
C39   C127  1.529098 S    
O11   Zn4   2.019932 S    
C101  C104  1.541235 S    
C130  H90   1.107332 S    
O31   C79   1.275759 A    
C38   C126  1.529869 S    
O36   Zn12  2.015275 S    
O13   C7    1.277041 A    
C104  H54   1.111776 S    
C47   C49   1.411682 A    
O14   C8    1.276840 A    
C20   H4    1.083512 S    
C22   C26   1.409955 A    
O38   C83   1.277688 A    
O20   Zn8   2.020528 S    
C12   C40   1.490939 S    
C85   C97   1.419123 S    
O5    C3    1.276699 A    
O4    Zn4   2.022470 S    
C124  H74   1.110057 S    
C21   C25   1.408442 A    
O6    C4    1.275294 A    
C107  C109  1.399395 A    
C14   C18   1.405960 A    
C54   H25   1.111610 S    
C101  H47   1.110872 S    
C57   C59   1.381902 A    
C105  C116  1.372673 A    
C106  C120  1.505130 S    
O18   Zn6   2.012529 S    
O2    C2    1.282509 A    
C116  C118  1.494704 S    
C95   C97   1.409195 A    
C94   C95   1.401652 A    
O45   C87   1.275550 A    
C97   C99   1.382463 A    
C106  C108  1.390021 A    
C41   C43   1.392368 A    
O43   C86   1.280723 A    
C66   C68   1.382117 A    
C45   H21   1.083984 S    
O37   Zn9   2.020123 S    
C48   C50   1.411584 A    
C38   H18   1.112081 S    
O39   C84   1.273680 A    
C35   C39   1.545868 S    
C55   H27   1.111673 S    
O1    Zn1   2.014689 S    
O6    Zn1   2.020187 S    
C2    C44   1.436702 S    
C10   C14   1.380523 A    
O2    Zn2   2.014689 S    
C56   H29   1.111599 S    
C103  H52   1.112163 S    
C125  H76   1.109947 S    
Zn2   O14   2.022470 S    
C106  C115  1.372344 A    
C16   C20   1.407263 A    
C34   C38   1.546327 S    
C37   H17   1.112069 S    
C57   C71   1.488830 S    
C40   C128  1.529960 S    
C94   H44   1.083482 S    
C64   H34   1.083455 S    
C46   C48   1.396700 A    
C25   C75   1.419144 S    
C119  C121  1.534584 S    
C109  C112  1.391693 A    
C47   C129  1.508241 S    
C123  H71   1.111773 S    
C23   H7    1.083322 S    
C8    C60   1.418050 S    
C19   H3    1.083520 S    
C19   C23   1.401379 A    
Zn7   O31   2.012783 S    
O10   Zn3   2.017222 S    
O9    Zn3   2.019932 S    
C13   C17   1.407790 A    
C64   C66   1.408157 A    
C54   C56   1.517445 S    
C48   C130  1.508611 S    
C89   C100  1.372843 A    
C90   C92   1.380436 A    
C118  H61   1.112078 S    
O48   C88   1.275785 A    
O27   C77   1.278770 A    
C89   C91   1.388695 A    
O30   C80   1.276171 A    
O42   C85   1.275682 A    
C66   C88   1.418838 S    
C49   C51   1.388686 A    
C72   H42   1.111765 S    
C41   C51   1.370699 A    
C71   H39   1.111767 S    
O7    Zn2   2.017474 S    
C69   H35   1.111484 S    
C33   C37   1.546335 S    
Zn8   O32   2.012783 S    
O35   Zn11  2.017983 S    
C96   C98   1.403792 A    
C121  H65   1.110492 S    
Zn10  O46   2.019947 S    
C129  H89   1.110367 S    
C91   C93   1.401008 A    
C21   H5    1.083557 S    
C36   H16   1.112090 S    
C122  H67   1.111752 S    
C39   H19   1.112118 S    
C61   H31   1.083535 S    
O44   C86   1.277879 A    
C52   C54   1.492633 S    
O27   Zn8   2.020487 S    
C115  C117  1.495138 S    
C57   C67   1.340795 A    
C90   C104  1.488407 S    
Zn12  O44   2.018101 S    
C65   C67   1.382097 A    
O20   C74   1.275300 A    
C89   C103  1.491951 S    
C9    C37   1.491377 S    
C62   H32   1.083534 S    
C10   C38   1.490768 S    
O7    C5    1.275166 A    
C43   C45   1.406327 A    
C98   C100  1.394858 A    
O35   C82   1.280900 A    
C63   C65   1.408056 A    
C113  C115  1.395228 A    
C101  H48   1.111524 S    
C117  C120  1.530790 S    
C11   C15   1.380975 A    
O3    Zn3   2.022470 S    
O4    C2    1.278005 A    
C28   C78   1.420375 S    
C12   C32   1.341620 A    
C17   C21   1.401771 A    
C125  H75   1.111714 S    
C110  C111  1.391994 A    
C36   C40   1.546529 S    
C62   C64   1.401462 A    
C68   C70   1.488908 S    
C110  H56   1.083888 S    
Zn1   O13   2.022470 S    
C70   C72   1.541640 S    
C93   C96   1.392257 A    
C9    C29   1.341757 A    
C122  H68   1.110613 S    
C33   H9    1.111442 S    
C27   C77   1.422296 S    
C128  H85   1.109863 S    
O24   Zn6   2.020445 S    
Zn3   O15   2.014438 S    
C53   C55   1.517787 S    
C108  C110  1.399408 A    
C102  H50   1.110377 S    
C37   C125  1.529735 S    
C114  C116  1.394614 A    
C53   H24   1.112346 S    
C31   C35   1.491379 S    
O34   C81   1.280595 A    
O39   Zn11  2.020123 S    
O28   C78   1.277932 A    
C99   C101  1.489674 S    
C58   C68   1.340489 A    
O29   C79   1.276331 A    
O23   Zn6   2.017625 S    
C25   C29   1.382306 A    
Zn9   O41   2.015381 S    
C127  H81   1.111703 S    
C109  H55   1.083765 S    
C29   C33   1.490986 S    
C73   C91   1.420099 S    
O11   C5    1.274724 A    
C123  H69   1.109202 S    
O15   C7    1.274661 A    
C50   C84   1.418775 S    
O28   Zn8   2.017662 S    
C22   H6    1.083314 S    
O16   C8    1.274790 A    
C56   H30   1.111833 S    
C117  H59   1.111911 S    
C120  C124  1.534084 S    
C32   C36   1.491331 S    
C80   C108  1.415797 S    
O12   Zn4   2.017222 S    
C126  H78   1.111708 S    
O24   C78   1.276466 A    
C111  H57   1.083055 S    
C126  H79   1.109625 S    
C70   H38   1.111499 S    
C18   C22   1.401546 A    
C127  H82   1.109951 S    
C71   H40   1.111477 S    
O21   Zn5   2.017625 S    
C50   C52   1.388867 A    
C58   C60   1.381687 A    
C35   H15   1.112077 S    
C111  C113  1.405882 A    
O8    C6    1.276428 A    
O5    Zn1   2.017474 S    
Zn11  O43   2.015381 S    
C105  C119  1.505198 S    
C10   C30   1.341560 A    
O23   C77   1.276573 A    
O40   C84   1.277928 A    
C86   C98   1.432244 S    
C70   H37   1.111771 S    
O34   Zn10  2.015275 S    
C53   H23   1.110878 S    
C105  C107  1.390626 A    
C130  H91   1.110282 S    
O22   Zn5   2.020445 S    
C17   H1    1.083476 S    
C60   C62   1.407982 A    
C67   C69   1.488846 S    
C55   H28   1.111694 S    
C123  H70   1.110615 S    
C11   C39   1.491091 S    
C118  H62   1.112773 S    
O25   Zn7   2.020487 S    
C28   C32   1.382849 A    
Zn10  O42   2.018101 S    
O41   C85   1.276804 A    
C7    C59   1.418192 S    
C51   C53   1.493133 S    
Zn4   O16   2.014438 S    
C95   H45   1.083515 S    
Zn6   O30   2.020698 S    
O37   C83   1.273731 A    
O46   C87   1.277920 A    
C34   H14   1.112074 S    
C61   C63   1.401145 A    
C121  H64   1.110164 S    
C58   C72   1.488828 S    
C122  H66   1.109104 S    
C100  C102  1.493950 S    
C74   C92   1.414436 S    
C92   C94   1.406858 A    
C3    C13   1.418022 S    
C96   H46   1.083384 S    
O25   C75   1.277552 A    
O17   Zn5   2.012529 S    
C128  H84   1.111706 S    
C36   H12   1.111557 S    
O32   C80   1.275573 A    
C93   H43   1.083701 S    
C119  C122  1.537478 S    
