data_mof_unit_55649.cif
_audit_creation_date              2012-12-11T14:43:36-0500
_audit_creation_method            fapswitch 2.2
_symmetry_space_group_name_H-M    P1
_symmetry_Int_Tables_number       1
_space_group_crystal_system       triclinic
_cell_length_a                    20.853537
_cell_length_b                    7.106646
_cell_length_c                    16.341043
_cell_angle_alpha                 90.991291
_cell_angle_beta                  92.60072
_cell_angle_gamma                 90.129153
_cell_volume                      2418.85377449

loop_
_atom_site_label
_atom_site_type_symbol
_atom_type_description
_atom_site_fract_x
_atom_site_fract_y
_atom_site_fract_z
_atom_type_partial_charge
O1    O     O_R   0.564840 0.505290 0.579830 -0.525525
O2    O     O_R   0.435160 0.005290 0.420170 -0.532716
O3    O     O_R   0.556720 0.179930 0.409350 -0.543620
O4    O     O_R   0.443280 0.679930 0.590650 -0.518906
C1    C     C_R   0.570451 0.342990 0.380637 0.770809
C2    C     C_R   0.429472 0.846585 0.619128 0.771732
O5    O     O_R   0.572280 0.175810 0.578530 -0.531339
O6    O     O_R   0.427720 0.675810 0.421470 -0.524139
O7    O     O_R   0.450830 0.001920 0.590540 -0.543466
O8    O     O_R   0.549170 0.501920 0.409460 -0.518554
C3    C     C_R   0.590109 0.345575 0.604655 0.769974
C4    C     C_R   0.409527 0.843248 0.395731 0.769384
O9    O     O_3   0.460130 0.338030 0.503750 -0.359159
O10   O     O_3   0.539870 0.838030 0.496250 -0.360714
V1    V     V_3+5 0.507400 0.064560 0.499310 1.539517
V2    V     V_3+5 0.492600 0.564560 0.500690 1.586715
C5    C     C_R   0.142785 0.921327 0.168387 -0.050452
C6    C     C_R   0.858365 0.402485 0.830692 -0.045806
C7    C     C_R   0.355430 0.848073 0.333136 -0.130315
C8    C     C_R   0.643464 0.360850 0.668002 -0.124471
C9    C     C_R   0.309310 0.742062 0.200321 -0.170294
C10   C     C_R   0.682692 0.480844 0.801901 -0.177327
C11   C     C_R   0.361159 0.752336 0.257500 0.122477
C12   C     C_R   0.632102 0.445953 0.744638 0.112693
C13   C     C_R   0.297503 0.944388 0.348469 0.069226
C14   C     C_R   0.706490 0.301040 0.651442 0.069018
C15   C     C_R   0.245504 0.938424 0.288839 0.111392
C16   C     C_R   0.757706 0.334011 0.710659 0.113227
C17   C     C_R   0.251350 0.832240 0.215283 0.087901
C18   C     C_R   0.745455 0.428207 0.785578 0.091668
C19   C     C_R   0.199686 0.821502 0.156422 -0.200947
C20   C     C_R   0.795883 0.464355 0.844393 -0.204023
C21   C     C_R   0.137661 0.030032 0.240113 -0.172000
C22   C     C_R   0.870233 0.306595 0.757309 -0.172047
C23   C     C_R   0.187757 0.036580 0.300034 -0.124793
C24   C     C_R   0.820987 0.274899 0.697643 -0.124953
H1    H     H_    0.204443 0.740615 0.100149 0.112191
H2    H     H_    0.786161 0.534354 0.901998 0.108042
H3    H     H_    0.094348 0.109579 0.250062 0.117128
H4    H     H_    0.918027 0.255399 0.746199 0.114673
H5    H     H_    0.314912 0.666236 0.142989 0.154161
H6    H     H_    0.672636 0.547510 0.860063 0.150453
H7    H     H_    0.180687 0.121594 0.354251 0.158420
H8    H     H_    0.833235 0.201189 0.642201 0.156052
C25   C     C_R   0.380248 0.969345 0.834086 0.219899
C26   C     C_R   0.624276 0.239345 0.165995 0.231540
H9    H     H_    0.299575 0.982944 0.958048 0.171151
H10   H     H_    0.705758 0.257962 0.041502 0.127592
C27   C     C_R   0.389672 0.865367 0.691984 -0.140233
C28   C     C_R   0.610451 0.340901 0.307488 -0.176762
C29   C     C_R   0.079343 0.894338 0.731845 -0.172084
C30   C     C_R   0.919139 0.438668 0.267926 -0.169567
C31   C     C_R   0.114800 0.890164 0.661802 -0.110992
C32   C     C_R   0.883654 0.430832 0.337817 -0.110018
C33   C     C_R   0.181647 0.886220 0.668165 -0.096766
C34   C     C_R   0.817218 0.407994 0.331216 -0.102726
C35   C     C_R   0.214998 0.878640 0.745098 0.110049
C36   C     C_R   0.783938 0.399524 0.254120 0.111398
C37   C     C_R   0.178534 0.900062 0.816663 0.073304
C38   C     C_R   0.821233 0.391082 0.182849 0.069429
C39   C     C_R   0.283743 0.872396 0.752691 -0.015191
C40   C     C_R   0.715500 0.377495 0.246316 0.008554
C41   C     C_R   0.313968 0.929309 0.828816 0.061396
C42   C     C_R   0.688252 0.306897 0.170534 -0.002174
C43   C     C_R   0.277240 0.949018 0.898475 -0.128059
C44   C     C_R   0.725789 0.301431 0.101089 -0.171069
C45   C     C_R   0.210970 0.926896 0.893037 -0.212747
C46   C     C_R   0.790425 0.350098 0.106610 -0.178086
C47   C     C_R   0.323867 0.814562 0.688149 0.068569
C48   C     C_R   0.673007 0.419710 0.310507 0.070089
C49   C     C_R   0.416706 0.951170 0.764269 0.136150
C50   C     C_R   0.587848 0.242615 0.235854 0.198595
C51   C     C_R   0.110317 0.903010 0.809513 -0.080910
C52   C     C_R   0.889020 0.415517 0.190200 -0.086323
H11   H     H_    0.027400 0.897304 0.725434 0.110128
H12   H     H_    0.970732 0.457024 0.274556 0.110441
H13   H     H_    0.206679 0.900244 0.612311 0.170871
H14   H     H_    0.792949 0.386362 0.387140 0.171532
H15   H     H_    0.090326 0.893570 0.601991 0.133521
H16   H     H_    0.907948 0.439265 0.397744 0.133923
H17   H     H_    0.185057 0.943065 0.948661 0.107107
H18   H     H_    0.816957 0.343394 0.051184 0.103286
O11   O     O_R   0.950790 0.256670 0.090520 -0.533592
O12   O     O_R   0.049210 0.756670 0.909480 -0.533194
O13   O     O_R   0.927720 0.590370 0.921470 -0.536592
O14   O     O_R   0.072280 0.090370 0.078530 -0.538761
C53   C     C_R   0.910274 0.419870 0.895157 0.682777
C54   C     C_R   0.089980 0.923039 0.104667 0.682916
O15   O     O_R   0.943270 0.586180 0.090640 -0.536743
O16   O     O_R   0.056730 0.086180 0.909360 -0.536983
O17   O     O_R   0.064850 0.759970 0.079840 -0.534558
O18   O     O_R   0.935150 0.259970 0.920160 -0.536543
C55   C     C_R   0.929944 0.418962 0.118671 0.682495
C56   C     C_R   0.069805 0.916389 0.881205 0.684678
O19   O     O_3   0.039850 0.428050 0.996240 -0.369653
O20   O     O_3   0.960150 0.928050 0.003760 -0.369600
V3    V     V_3+5 0.992610 0.701540 0.000700 1.439177
V4    V     V_3+5 0.007390 0.201540 0.999300 1.434859
I1    I     I_    0.292621 0.608096 0.597157 -0.351191
I2    I     I_    0.693730 0.641267 0.399071 -0.342635
I3    I     I_    0.449154 0.634659 0.221764 -0.395759
I4    I     I_    0.538506 0.513528 0.781209 -0.448906
I5    I     I_    0.288926 0.092934 0.462738 -0.378798
I6    I     I_    0.723285 0.165696 0.536168 -0.391500
N1    N     N_3   0.481746 0.018622 0.768762 -0.636307
H19   H     H_    0.485069 0.130173 0.728475 0.257905
H20   H     H_    0.512255 0.912109 0.749683 0.251366
N2    N     N_3   0.526965 0.147079 0.231836 -0.575049
H21   H     H_    0.491403 0.238326 0.251378 0.241471
H22   H     H_    0.529718 0.032990 0.271290 0.247861
N3    N     N_3   0.409934 0.038659 0.909740 -0.644151
H23   H     H_    0.428823 0.172435 0.900012 0.278891
H24   H     H_    0.447865 0.949121 0.926402 0.278595
N4    N     N_3   0.596151 0.156111 0.092084 -0.589842
H25   H     H_    0.624491 0.042710 0.074263 0.232130
H26   H     H_    0.594947 0.256896 0.046197 0.239127

loop_
_geom_bond_atom_site_label_1
_geom_bond_atom_site_label_2
_ccdc_geom_bond_type
C36   C40   A    
C44   C46   A    
C41   C43   A    
C25   C49   A    
C5    C54   S    
C31   C33   A    
N3    H23   S    
O1    C3    A    
O2    C4    A    
C2    O7    A    
N4    H25   S    
O19   V4    S    
O18   V4    S    
C10   H6    S    
O5    C3    A    
N1    H20   S    
C21   H3    S    
C22   H4    S    
O12   V3    S    
H9    C43   S    
C31   H15   S    
C29   H11   S    
C30   C52   A    
C33   H13   S    
O14   C54   A    
C35   C37   A    
C15   C17   A    
C36   C38   A    
O11   C55   A    
C34   H14   S    
N2    H21   S    
C40   C48   A    
C38   C52   A    
C39   C41   A    
C28   C50   A    
C40   C42   A    
C14   I6    S    
C50   N2    S    
C30   C32   A    
C43   C45   A    
O11   V4    S    
O20   V4    S    
C20   H2    S    
C34   C36   A    
C23   H7    S    
C37   C51   A    
C26   C50   A    
C37   C45   A    
O5    V1    S    
O6    V2    S    
C27   C47   A    
C53   O18   A    
O15   C55   A    
C52   C55   S    
C5    C21   A    
C51   C56   S    
O14   V4    S    
C48   I2    S    
O16   C56   A    
C32   H16   S    
O13   C53   A    
C32   C34   A    
C3    C8    S    
C26   N4    S    
C8    C12   A    
O4    C2    A    
C13   I5    S    
C15   C23   A    
C9    C17   A    
C25   C41   A    
C19   H1    S    
C26   C42   A    
C29   C31   A    
C42   C44   A    
O4    V2    S    
C7    C11   A    
C33   C35   A    
C12   I4    S    
C54   O17   A    
O6    C4    A    
O20   V3    S    
O19   V3    S    
N3    H24   S    
O1    V2    S    
O12   C56   A    
O17   V3    S    
O2    V1    S    
C6    C22   A    
C38   C46   A    
C9    H5    S    
C47   I1    S    
C45   H17   S    
C49   N1    S    
C5    C19   A    
C10   C12   A    
C1    C28   S    
C24   H8    S    
C6    C20   A    
O3    C1    A    
O3    V1    S    
C39   C47   A    
C10   C18   A    
C29   C51   A    
C30   H12   S    
N4    H26   S    
C25   N3    S    
C35   C39   A    
C13   C15   A    
N1    H19   S    
C14   C16   A    
C6    C53   S    
C46   H18   S    
C9    C11   A    
O7    V1    S    
C1    O8    A    
C17   C19   A    
O8    V2    S    
C18   C20   A    
C11   I3    S    
C8    C14   A    
C4    C7    S    
C16   C18   A    
C21   C23   A    
N2    H22   S    
C22   C24   A    
C2    C27   S    
C28   C48   A    
C7    C13   A    
O13   V3    S    
C16   C24   A    
C27   C49   A    
O9    V2    S    
O15   V3    S    
O10   V1    S    
H10   C44   S    
O16   V4    S    
