data_mof_unit_5592.cif
_audit_creation_date              2013-03-05T16:44:17-0500
_audit_creation_method            fapswitch 2.2
_symmetry_space_group_name_H-M    P1
_symmetry_Int_Tables_number       1
_space_group_crystal_system       triclinic
_cell_length_a                    23.453786
_cell_length_b                    10.669631
_cell_length_c                    9.842568
_cell_angle_alpha                 89.531735
_cell_angle_beta                  89.613978
_cell_angle_gamma                 90.175329
_cell_volume                      2462.88601965

loop_
_atom_site_label
_atom_site_type_symbol
_atom_site_description
_atom_site_fract_x
_atom_site_fract_y
_atom_site_fract_z
_atom_type_partial_charge
O1    O     O_R   0.500010 0.316790 0.614690 -0.627710
O2    O     O_R   0.500000 0.316760 0.385350 -0.591488
C1    C     C_R   0.501575 0.260139 0.500517 0.971980
O3    O     O_R   0.416160 0.499980 0.614700 -0.619462
O4    O     O_R   0.416150 0.499940 0.385360 -0.621243
C2    C     C_R   0.389349 0.500029 0.500688 0.932477
Zn1   Zn    Zn3+2 0.500000 0.500020 0.653130 0.991358
Zn2   Zn    Zn3+2 0.500000 0.499980 0.346870 1.016850
O5    O     O_R   0.500000 0.683240 0.614650 -0.603851
O6    O     O_R   0.499990 0.683210 0.385310 -0.624349
O7    O     O_R   0.583850 0.500060 0.614640 -0.632052
O8    O     O_R   0.583840 0.500020 0.385300 -0.588680
C3    C     C_R   0.500440 0.739655 0.499584 0.896317
C4    C     C_R   0.611043 0.499679 0.499428 0.964790
C5    C     C_R   0.881685 0.601569 0.551714 0.635630
N1    N     N_R   0.853235 0.490377 0.539230 -0.330493
C6    C     C_R   0.881119 0.378425 0.530759 0.659349
C7    C     C_R   0.940656 0.375599 0.530615 -0.085122
C8    C     C_R   0.970894 0.489077 0.540994 -0.004041
C9    C     C_R   0.941196 0.603268 0.553483 -0.026214
C10   C     C_R   0.970235 0.262299 0.520323 -0.165433
C11   C     C_R   0.029773 0.259982 0.518237 0.332141
C12   C     C_R   0.060745 0.374539 0.521864 -0.145766
C13   C     C_R   0.030834 0.488806 0.536978 -0.036725
C14   C     C_R   0.060632 0.603536 0.546413 -0.020263
C15   C     C_R   0.030677 0.716240 0.561927 -0.078045
C16   C     C_R   0.971450 0.716159 0.565010 -0.097105
C17   C     C_R   0.120399 0.380663 0.507252 0.598889
N2    N     N_R   0.148095 0.492854 0.518856 -0.358694
C18   C     C_R   0.119938 0.602773 0.539256 0.570656
O9    O     O_2   0.852316 0.709852 0.560428 -0.499599
O10   O     O_2   0.851112 0.270674 0.521679 -0.485050
H1    H     H_    0.947170 0.174247 0.516315 0.223595
O11   O     O_2   0.150855 0.276940 0.479182 -0.434620
O12   O     O_2   0.149515 0.710826 0.551461 -0.485818
H2    H     H_    0.052869 0.805021 0.570095 0.237511
H3    H     H_    0.949513 0.804813 0.575313 0.213526
C19   C     C_R   0.236846 0.520415 0.389698 0.217276
C20   C     C_R   0.296120 0.521497 0.385179 -0.220530
H4    H     H_    0.317644 0.540982 0.289581 0.186429
C21   C     C_R   0.327257 0.498895 0.503839 -0.092634
C22   C     C_R   0.298737 0.474628 0.626998 -0.153602
H5    H     H_    0.322170 0.456191 0.719465 0.182302
C23   C     C_R   0.239706 0.471357 0.631704 0.204598
C24   C     C_R   0.208695 0.494794 0.513121 0.172951
C25   C     C_R   0.768041 0.477071 0.399480 0.258485
C26   C     C_R   0.708561 0.479950 0.385092 0.129715
C27   C     C_R   0.673897 0.498369 0.502040 -0.207368
C28   C     C_R   0.699786 0.514045 0.629386 -0.288859
H6    H     H_    0.674000 0.528004 0.719661 0.218881
C29   C     C_R   0.758624 0.509742 0.644337 0.334265
C30   C     C_R   0.792670 0.491728 0.528276 0.036124
C31   C     C_R   0.479043 0.062408 0.606276 -0.055390
C32   C     C_R   0.507333 0.128240 0.503321 -0.170881
C33   C     C_R   0.541223 0.064287 0.406973 0.300781
C34   C     C_R   0.538430 0.934063 0.404911 -0.228558
H7    H     H_    0.562457 0.882267 0.329588 0.193893
C35   C     C_R   0.504555 0.871049 0.500880 -0.134930
C36   C     C_R   0.478734 0.934624 0.606664 0.067868
C37   C     C_3   0.418508 0.924739 0.656018 -0.070230
C38   C     C_3   0.418048 0.067174 0.653970 0.087498
H8    H     H_    0.389782 0.879687 0.581147 0.180726
H9    H     H_    0.412727 0.109168 0.755766 0.139621
C39   C     C_R   0.457376 0.441198 0.072594 0.202815
N3    N     N_R   0.499610 0.499140 0.142800 -0.114811
C40   C     C_R   0.537846 0.570889 0.070778 -0.057562
H10   H     H_    0.568847 0.626716 0.124331 0.161341
C41   C     C_R   0.538205 0.570034 0.926598 -0.063665
H11   H     H_    0.569838 0.624246 0.871090 0.162276
N4    N     N_R   0.499610 0.499180 0.857150 -0.113846
C42   C     C_R   0.457230 0.441668 0.930017 0.228223
C43   C     C_3   0.441823 0.306323 0.925858 -0.510280
C44   C     C_3   0.442207 0.305712 0.080136 -0.423789
H12   H     H_    0.398563 0.292132 0.883110 0.220077
H13   H     H_    0.476139 0.247970 0.880605 0.233266
H14   H     H_    0.399313 0.290099 0.126084 0.231364
H15   H     H_    0.476817 0.247241 0.123907 0.250069
I1    I     I_    0.676253 0.459998 0.183122 -0.046429
N5    N     N_R   0.783038 0.523181 0.777545 0.247844
O13   O     O_R   0.830450 0.467390 0.809094 -0.320156
O14   O     O_R   0.755481 0.583096 0.871973 -0.317274
N6    N     N_R   0.578163 0.129133 0.312837 0.216907
O15   O     O_R   0.610301 0.220220 0.354987 -0.369403
O16   O     O_R   0.586688 0.084792 0.191616 -0.355825
I2    I     I_    0.414224 0.845396 0.856591 -0.272746
N7    N     N_R   0.379120 0.119116 0.552425 0.218922
O17   O     O_R   0.340056 0.198077 0.589882 -0.368149
O18   O     O_R   0.381287 0.083416 0.426258 -0.371348
N8    N     N_R   0.057414 0.140216 0.518736 0.246602
O19   O     O_R   0.089331 0.108517 0.620980 -0.285629
O20   O     O_R   0.040893 0.053973 0.434850 -0.349566
I3    I     I_    0.191293 0.558178 0.209122 -0.153172
I4    I     I_    0.199004 0.429670 0.819452 -0.150293
N9    N     N_R   0.804182 0.459539 0.283025 0.234133
O21   O     O_R   0.841616 0.544645 0.249199 -0.321401
O22   O     O_R   0.804225 0.352707 0.220242 -0.260172

loop_
_geom_bond_atom_site_label_1
_geom_bond_atom_site_label_2
_geom_bond_distance
_ccdc_geom_bond_type
C40   C41   1.419177 A    
C33   C34   1.391113 A    
C25   C30   1.406311 A    
C7    C10   1.399675 A    
C21   C22   1.402411 A    
C8    C9    1.411097 A    
C28   H6    1.083012 S    
Zn1   N4    2.007987 S    
C31   C36   1.363370 A    
C20   C21   1.401231 A    
C31   C32   1.391732 A    
Zn1   O7    2.000247 S    
C15   C16   1.389231 A    
C18   O12   1.350278 S    
C17   N2    1.366162 A    
C43   H13   1.112012 S    
C19   C20   1.390619 A    
C1    C32   1.414251 S    
N7    O18   1.302595 A    
C10   H1    1.083794 S    
C5    N1    1.366179 A    
C19   I3    2.116429 S    
C34   H7    1.084244 S    
C37   H8    1.112900 S    
C7    C8    1.406092 A    
C39   C42   1.403327 A    
C38   H9    1.107337 S    
O5    C3    1.278174 A    
C19   C24   1.403236 A    
C23   I4    2.117583 S    
C25   C26   1.403558 A    
C31   C38   1.503744 S    
N1    C6    1.366425 A    
C28   C29   1.389643 A    
C2    C21   1.456423 S    
C39   C44   1.488809 S    
N4    C42   1.363225 A    
N8    O20   1.301207 A    
C40   H10   1.081176 S    
C17   O11   1.348525 S    
C36   C37   1.493749 S    
C10   C11   1.396711 A    
C22   C23   1.385291 A    
O3    Zn1   2.004915 S    
C5    C9    1.396046 A    
C29   C30   1.404171 A    
C13   C14   1.411743 A    
C43   H12   1.111408 S    
C20   H4    1.083133 S    
N5    O14   1.301665 A    
N7    O17   1.300144 A    
C41   H11   1.081766 S    
C4    C27   1.474676 S    
C3    C35   1.405119 S    
C14   C15   1.403434 A    
N2    C24   1.422106 S    
C37   C38   1.519773 S    
O1    C1    1.280703 A    
N2    C18   1.363343 A    
C26   C27   1.420072 A    
C25   N9    1.434816 S    
Zn2   O8    2.004913 S    
C6    C7    1.396768 A    
C12   C17   1.406773 A    
C33   N6    1.436252 S    
N9    O22   1.301016 A    
O3    C2    1.290035 A    
C27   C28   1.407400 A    
O8    C4    1.295570 A    
N3    C40   1.367898 A    
N6    O16   1.301519 A    
C44   H14   1.111741 S    
C22   H5    1.083294 S    
C23   C24   1.400573 A    
C15   H2    1.083263 S    
C14   C18   1.392318 A    
Zn1   O5    1.988201 S    
C32   C33   1.414378 A    
O1    Zn1   1.994304 S    
Zn2   O6    1.994306 S    
O2    Zn2   1.988199 S    
N1    C30   1.425406 S    
C43   C44   1.518547 S    
O6    C3    1.280263 A    
O4    Zn2   2.000247 S    
C37   I2    2.143247 S    
C5    O9    1.349943 S    
C9    C16   1.401891 A    
C39   N3    1.361362 A    
O2    C1    1.280919 A    
C35   C36   1.384383 A    
C42   C43   1.488484 S    
O4    C2    1.293846 A    
C16   H3    1.083320 S    
O7    C4    1.297323 A    
C11   N8    1.434651 S    
C34   C35   1.397043 A    
C8    C13   1.406133 A    
N9    O21   1.300950 A    
C29   N5    1.442257 S    
C38   N7    1.464929 S    
C12   C13   1.416862 A    
N5    O13   1.301158 A    
Zn2   N3    2.008748 S    
C41   N4    1.367757 A    
N6    O15   1.300424 A    
C6    O10   1.350033 S    
C44   H15   1.112276 S    
C11   C12   1.420749 A    
C26   I1    2.144174 S    
N8    O19   1.301383 A    
