data_mof_unit_9102.cif
_audit_creation_date              2012-12-10T20:36:36-0500
_audit_creation_method            fapswitch 2.2
_symmetry_space_group_name_H-M    P1
_symmetry_Int_Tables_number       1
_space_group_crystal_system       triclinic
_cell_length_a                    10.510652
_cell_length_b                    10.673917
_cell_length_c                    9.885356
_cell_angle_alpha                 90.173191
_cell_angle_beta                  90.866387
_cell_angle_gamma                 90.070853
_cell_volume                      1108.90361178

loop_
_atom_site_label
_atom_site_type_symbol
_atom_type_description
_atom_site_fract_x
_atom_site_fract_y
_atom_site_fract_z
_atom_type_partial_charge
C1    C     C_R   0.504640 0.260029 0.499887 0.971325
C2    C     C_3   0.955743 0.606456 0.444104 -0.113586
C3    C     C_3   0.036634 0.507126 0.371042 -0.182242
C4    C     C_3   0.122202 0.500612 0.497537 -0.114441
C5    C     C_R   0.513068 0.064169 0.622684 -0.087780
C6    C     C_R   0.524910 0.128484 0.501146 -0.199634
C7    C     C_R   0.561493 0.063602 0.383841 0.621403
C8    C     C_R   0.560840 0.933916 0.384744 -0.278973
C9    C     C_R   0.524544 0.871111 0.502366 -0.138249
C10   C     C_R   0.513381 0.936519 0.623416 0.018911
C11   C     C_3   0.413718 0.929049 0.729443 -0.490750
C12   C     C_R   0.257306 0.500007 0.499043 0.947725
C13   C     C_3   0.413090 0.071128 0.728651 0.585359
C14   C     C_R   0.407318 0.437902 0.069431 0.088373
C15   C     C_R   0.596996 0.552659 0.073601 -0.061231
C16   C     C_R   0.596913 0.552825 0.929811 -0.117392
C17   C     C_R   0.407954 0.436751 0.926878 0.092554
C18   C     C_3   0.268644 0.461563 0.917974 0.385409
C19   C     C_3   0.268388 0.465757 0.071106 0.283418
C20   C     C_R   0.504071 0.739876 0.500318 0.902789
C21   C     C_R   0.742544 0.499932 0.501093 0.886485
C22   C     C_3   0.042475 0.395659 0.556007 0.744162
C23   C     C_3   0.955409 0.400341 0.430174 -0.293500
C24   C     C_3   0.877336 0.499758 0.503258 -0.084861
C25   C     C_3   0.962164 0.493188 0.630467 -0.196574
C26   C     C_3   0.043598 0.599797 0.570748 -0.253285
H1    H     H_    0.915454 0.318510 0.374381 0.187246
H2    H     H_    0.451598 0.889067 0.825609 0.178774
H3    H     H_    0.447145 0.115010 0.824693 0.095479
H4    H     H_    0.673883 0.597907 0.128969 0.140641
H5    H     H_    0.673681 0.598213 0.877139 0.152401
H6    H     H_    0.243485 0.551561 0.867925 0.117907
H7    H     H_    0.211296 0.390902 0.119309 0.124521
H8    H     H_    0.928374 0.486256 0.736053 0.180189
H9    H     H_    0.084042 0.681025 0.627193 0.173256
H10   H     H_    0.915256 0.692885 0.398518 0.157533
H11   H     H_    0.067449 0.513182 0.264823 0.223270
H12   H     H_    0.580730 0.883728 0.292046 0.192859
H13   H     H_    0.323546 0.886073 0.691313 0.226210
N1    N     N_R   0.499140 0.499140 0.142800 -0.073537
N2    N     N_R   0.499140 0.499180 0.857150 -0.132702
O1    O     O_R   0.500020 0.316790 0.614690 -0.600093
O2    O     O_R   0.500000 0.316760 0.385350 -0.569084
O3    O     O_R   0.313960 0.499990 0.614650 -0.600280
O4    O     O_R   0.313940 0.499950 0.385310 -0.588755
O5    O     O_R   0.500000 0.683240 0.614650 -0.628114
O6    O     O_R   0.499980 0.683210 0.385310 -0.609870
O7    O     O_R   0.686060 0.500050 0.614690 -0.637893
O8    O     O_R   0.686040 0.500010 0.385350 -0.627102
Zn1   Zn    Zn3+2 0.500010 0.500020 0.653130 0.991153
Zn2   Zn    Zn3+2 0.499990 0.499980 0.346870 1.032624
F1    F     F_    0.299527 0.119405 0.678916 -0.556198
F2    F     F_    0.203116 0.358904 0.866913 -0.591051
F3    F     F_    0.244777 0.585465 0.119048 -0.666856
F4    F     F_    0.091431 0.287193 0.612077 -0.557006
F5    F     F_    0.588968 0.123782 0.267005 -0.650938

loop_
_geom_bond_atom_site_label_1
_geom_bond_atom_site_label_2
_ccdc_geom_bond_type
C4    C26   S    
C23   C24   S    
C22   F4    S    
C12   O4    A    
C23   H1    S    
C4    C12   S    
N1    Zn2   S    
C4    C22   S    
C9    C10   A    
N2    Zn1   S    
C9    C20   S    
C5    C13   S    
C25   H8    S    
C21   O7    A    
C21   O8    A    
C17   C18   S    
C5    C10   A    
C2    C26   S    
C16   H5    S    
C11   H13   S    
C11   C13   S    
C14   C17   A    
O2    Zn2   S    
C6    C7    A    
C8    H12   S    
C7    F5    S    
O1    Zn1   S    
C11   H2    S    
C19   F3    S    
O7    Zn1   S    
C2    C3    S    
C2    C24   S    
C5    C6    A    
C17   N2    A    
C15   N1    A    
C20   O6    A    
C18   H6    S    
C10   C11   S    
O4    Zn2   S    
C14   N1    A    
C15   C16   A    
C13   F1    S    
C20   O5    A    
C1    O1    A    
C7    C8    A    
C2    H10   S    
C24   C25   S    
C3    H11   S    
C15   H4    S    
C12   O3    A    
C18   C19   S    
C19   H7    S    
C21   C24   S    
C13   H3    S    
C26   H9    S    
O5    Zn1   S    
C22   C23   S    
C14   C19   S    
O3    Zn1   S    
C18   F2    S    
C25   C26   S    
C3    C23   S    
C16   N2    A    
C1    O2    A    
O6    Zn2   S    
C3    C4    S    
C1    C6    S    
C8    C9    A    
O8    Zn2   S    
C22   C25   S    
