data_mof_unit_61770.cif
_audit_creation_date              2012-12-10T18:03:34-0500
_audit_creation_method            fapswitch 2.2
_symmetry_space_group_name_H-M    P1
_symmetry_Int_Tables_number       1
_space_group_crystal_system       triclinic
_cell_length_a                    21.757441
_cell_length_b                    21.757441
_cell_length_c                    47.324752
_cell_angle_alpha                 89.641082
_cell_angle_beta                  89.641084
_cell_angle_gamma                 90.851243
_cell_volume                      22399.5216205

loop_
_atom_site_label
_atom_site_type_symbol
_atom_type_description
_atom_site_fract_x
_atom_site_fract_y
_atom_site_fract_z
_atom_type_partial_charge
C1    C     C_R   0.000426 0.120092 0.999948 0.843735
C2    C     C_R   0.879908 0.999574 0.000052 0.843735
C3    C     C_R   0.000694 0.880240 0.000111 0.851960
C4    C     C_R   0.119760 0.999306 0.999889 0.851961
C5    C     C_R   0.500428 0.620092 0.499947 0.843736
C6    C     C_R   0.379908 0.499572 0.500053 0.843736
C7    C     C_R   0.500693 0.380240 0.500111 0.851958
C8    C     C_R   0.619760 0.499307 0.499889 0.851959
C9    C     C_R   0.000107 0.500133 0.764812 -0.020995
C10   C     C_R   0.500708 0.999210 0.764828 -0.020671
C11   C     C_R   0.000789 0.499292 0.235172 -0.020671
C12   C     C_R   0.499867 0.999893 0.235188 -0.020995
C13   C     C_R   0.500106 0.000132 0.264813 -0.020995
C14   C     C_R   0.000708 0.499210 0.264828 -0.020671
C15   C     C_R   0.500790 0.999292 0.735172 -0.020671
C16   C     C_R   0.999868 0.499894 0.735187 -0.020995
C17   C     C_R   0.925187 0.581433 0.764613 -0.162493
C18   C     C_R   0.418262 0.923108 0.764996 -0.162163
C19   C     C_R   0.075015 0.418807 0.764655 -0.162575
C20   C     C_R   0.582889 0.075564 0.764282 -0.162116
C21   C     C_R   0.924436 0.417111 0.235718 -0.162116
C22   C     C_R   0.418567 0.074813 0.235387 -0.162493
C23   C     C_R   0.076892 0.581738 0.235004 -0.162163
C24   C     C_R   0.581193 0.924985 0.235345 -0.162575
C25   C     C_R   0.425253 0.081494 0.264613 -0.162495
C26   C     C_R   0.918270 0.423099 0.264996 -0.162162
C27   C     C_R   0.574947 0.918744 0.264656 -0.162576
C28   C     C_R   0.082881 0.575573 0.264282 -0.162119
C29   C     C_R   0.424426 0.917119 0.735718 -0.162119
C30   C     C_R   0.918506 0.574747 0.735387 -0.162495
C31   C     C_R   0.576901 0.081729 0.735004 -0.162162
C32   C     C_R   0.081256 0.425053 0.735344 -0.162576
C33   C     C_R   0.515284 0.946443 0.130666 -0.100285
C34   C     C_R   0.053505 0.516944 0.130278 -0.102380
C35   C     C_R   0.484434 0.052819 0.130474 -0.101760
C36   C     C_R   0.947207 0.482588 0.130781 -0.101550
C37   C     C_R   0.517412 0.052793 0.869219 -0.101550
C38   C     C_R   0.053557 0.484716 0.869334 -0.100284
C39   C     C_R   0.483056 0.946495 0.869722 -0.102380
C40   C     C_R   0.947181 0.515566 0.869525 -0.101760
C41   C     C_R   0.015325 0.446455 0.630665 -0.100283
C42   C     C_R   0.553507 0.016938 0.630278 -0.102382
C43   C     C_R   0.984393 0.552806 0.630474 -0.101797
C44   C     C_R   0.447205 0.982594 0.630781 -0.101552
C45   C     C_R   0.017406 0.552795 0.369219 -0.101552
C46   C     C_R   0.553544 0.984675 0.369335 -0.100283
C47   C     C_R   0.983061 0.446493 0.369722 -0.102382
C48   C     C_R   0.447194 0.015607 0.369526 -0.101797
C49   C     C_R   0.516963 0.947035 0.101343 -0.234978
C50   C     C_R   0.052769 0.518639 0.100942 -0.230688
C51   C     C_R   0.483474 0.052538 0.101164 -0.225530
C52   C     C_R   0.947574 0.481094 0.101433 -0.230753
C53   C     C_R   0.518905 0.052426 0.898567 -0.230753
C54   C     C_R   0.052964 0.483037 0.898657 -0.234978
C55   C     C_R   0.481361 0.947231 0.899058 -0.230688
C56   C     C_R   0.947461 0.516526 0.898836 -0.225530
C57   C     C_R   0.017003 0.447049 0.601342 -0.234976
C58   C     C_R   0.552771 0.018634 0.600942 -0.230689
C59   C     C_R   0.983434 0.552525 0.601164 -0.225632
C60   C     C_R   0.447572 0.981100 0.601433 -0.230752
C61   C     C_R   0.018900 0.552428 0.398567 -0.230752
C62   C     C_R   0.552951 0.982997 0.398658 -0.234976
C63   C     C_R   0.981366 0.447229 0.399058 -0.230688
C64   C     C_R   0.447475 0.016566 0.398836 -0.225632
C65   C     C_R   0.500354 0.999846 0.086284 -0.039193
C66   C     C_R   0.999979 0.500032 0.086296 -0.036375
C67   C     C_R   0.499968 0.000021 0.913704 -0.036375
C68   C     C_R   0.000154 0.499646 0.913716 -0.039193
C69   C     C_R   0.000354 0.499846 0.586283 -0.039168
C70   C     C_R   0.499979 0.000032 0.586296 -0.036379
C71   C     C_R   0.999968 0.500021 0.413704 -0.036379
C72   C     C_R   0.500154 0.999645 0.413717 -0.039168
C73   C     C_R   0.499643 0.999526 0.145862 0.282098
C74   C     C_R   0.000443 0.499801 0.145823 0.281940
C75   C     C_R   0.500198 0.999556 0.854177 0.281940
C76   C     C_R   0.000474 0.500357 0.854138 0.282097
C77   C     C_R   0.999643 0.499526 0.645861 0.282102
C78   C     C_R   0.500443 0.999802 0.645823 0.281941
C79   C     C_R   0.000198 0.499557 0.354177 0.281941
C80   C     C_R   0.500474 0.000357 0.354139 0.282102
C81   C     C_R   0.217112 0.042359 0.982538 0.112833
C82   C     C_R   0.955765 0.216878 0.982857 0.114269
C83   C     C_R   0.781728 0.955790 0.983614 0.111255
C84   C     C_R   0.049752 0.785141 0.984823 0.074102
C85   C     C_R   0.214859 0.950247 0.015177 0.074105
C86   C     C_R   0.957641 0.782888 0.017462 0.112834
C87   C     C_R   0.783122 0.044235 0.017143 0.114269
C88   C     C_R   0.044209 0.218272 0.016386 0.111256
C89   C     C_R   0.717112 0.542359 0.482537 0.112837
C90   C     C_R   0.455766 0.716876 0.482853 0.114426
C91   C     C_R   0.281727 0.455791 0.483616 0.111234
C92   C     C_R   0.549752 0.285141 0.484823 0.074100
C93   C     C_R   0.714859 0.450248 0.515177 0.074105
C94   C     C_R   0.457641 0.282888 0.517463 0.112837
C95   C     C_R   0.283124 0.544234 0.517147 0.114425
C96   C     C_R   0.544209 0.718273 0.516384 0.111233
C97   C     C_R   0.281410 0.037074 0.979797 0.126199
C98   C     C_R   0.961188 0.281488 0.979980 0.143163
C99   C     C_R   0.717856 0.963261 0.980358 0.143835
C100  C     C_R   0.048526 0.720101 0.984328 0.141070
C101  C     C_R   0.279899 0.951474 0.015672 0.141069
C102  C     C_R   0.962926 0.718590 0.020203 0.126199
C103  C     C_R   0.718512 0.038812 0.020020 0.143163
C104  C     C_R   0.036739 0.282144 0.019642 0.143835
C105  C     C_R   0.781410 0.537074 0.479797 0.126200
C106  C     C_R   0.461183 0.781488 0.479978 0.143060
C107  C     C_R   0.217856 0.463265 0.480360 0.143838
C108  C     C_R   0.548524 0.220101 0.484327 0.141070
C109  C     C_R   0.779899 0.451476 0.515673 0.141069
C110  C     C_R   0.462926 0.218590 0.520204 0.126200
C111  C     C_R   0.218512 0.538817 0.520022 0.143060
C112  C     C_R   0.536735 0.782144 0.519640 0.143838
C113  C     C_R   0.312300 0.995857 0.998300 -0.194096
C114  C     C_R   0.998871 0.313287 0.999854 -0.212825
C115  C     C_R   0.686713 0.001128 0.000146 -0.212825
C116  C     C_R   0.004143 0.687700 0.001700 -0.194096
C117  C     C_R   0.812300 0.495858 0.498300 -0.194095
C118  C     C_R   0.498868 0.813286 0.499851 -0.212855
C119  C     C_R   0.186714 0.501132 0.500148 -0.212855
C120  C     C_R   0.504142 0.187700 0.501700 -0.194095
C121  C     C_R   0.185464 0.997496 0.999439 -0.200582
C122  C     C_R   0.000328 0.186595 0.999563 -0.221518
C123  C     C_R   0.813405 0.999672 0.000437 -0.221518
C124  C     C_R   0.002503 0.814536 0.000561 -0.200583
C125  C     C_R   0.685464 0.497497 0.499439 -0.200583
C126  C     C_R   0.500329 0.686595 0.499561 -0.221554
C127  C     C_R   0.313405 0.499671 0.500439 -0.221554
C128  C     C_R   0.502503 0.314536 0.500561 -0.200584
C129  C     C_R   0.500554 0.999908 0.055392 0.858192
C130  C     C_R   0.999908 0.500050 0.055375 0.859348
C131  C     C_R   0.499949 0.000092 0.944625 0.859348
C132  C     C_R   0.000092 0.499446 0.944608 0.858192
C133  C     C_R   0.000554 0.499908 0.555392 0.858179
C134  C     C_R   0.499907 0.000050 0.555375 0.859355
C135  C     C_R   0.999949 0.500092 0.444625 0.859356
C136  C     C_R   0.500092 0.999446 0.444608 0.858180
C137  C     C_R   0.379468 0.999073 0.999393 0.895839
C138  C     C_R   0.999593 0.379843 0.999742 0.873811
C139  C     C_R   0.620157 0.000406 0.000258 0.873811
C140  C     C_R   0.000927 0.620532 0.000607 0.895839
C141  C     C_R   0.879468 0.499073 0.499393 0.895843
C142  C     C_R   0.499593 0.879843 0.499741 0.873819
C143  C     C_R   0.120157 0.500407 0.500259 0.873819
C144  C     C_R   0.500927 0.120532 0.500607 0.895843
C145  C     C_R   0.029534 0.454326 0.809141 0.499477
C146  C     C_R   0.547243 0.028613 0.808872 0.499335
C147  C     C_R   0.971249 0.546453 0.809027 0.500077
C148  C     C_R   0.453733 0.969874 0.809219 0.499242
C149  C     C_R   0.030126 0.546267 0.190781 0.499242
C150  C     C_R   0.545674 0.970466 0.190859 0.499477
C151  C     C_R   0.971387 0.452757 0.191128 0.499335
C152  C     C_R   0.453547 0.028751 0.190973 0.500077
C153  C     C_R   0.529496 0.954301 0.309142 0.499464
C154  C     C_R   0.047240 0.528618 0.308872 0.499333
C155  C     C_R   0.471286 0.046476 0.309027 0.500079
C156  C     C_R   0.953736 0.469869 0.309219 0.499242
C157  C     C_R   0.530131 0.046264 0.690781 0.499242
C158  C     C_R   0.045699 0.470504 0.690858 0.499464
C159  C     C_R   0.471382 0.952760 0.691128 0.499333
C160  C     C_R   0.953524 0.528714 0.690973 0.500079
C161  C     C_R   0.965138 0.543122 0.779600 -0.008374
C162  C     C_R   0.457172 0.963556 0.779800 -0.008410
C163  C     C_R   0.035309 0.457347 0.779637 -0.007649
C164  C     C_R   0.544072 0.034880 0.779442 -0.008204
C165  C     C_R   0.965120 0.455928 0.220558 -0.008203
C166  C     C_R   0.456878 0.034862 0.220400 -0.008374
C167  C     C_R   0.036444 0.542828 0.220200 -0.008410
C168  C     C_R   0.542653 0.964691 0.220363 -0.007649
C169  C     C_R   0.465172 0.043150 0.279600 -0.008378
C170  C     C_R   0.957175 0.463551 0.279800 -0.008411
C171  C     C_R   0.535273 0.957317 0.279637 -0.007643
C172  C     C_R   0.044068 0.534885 0.279441 -0.008203
C173  C     C_R   0.465115 0.955932 0.720559 -0.008203
C174  C     C_R   0.956850 0.534828 0.720400 -0.008378
C175  C     C_R   0.536449 0.042825 0.720200 -0.008411
C176  C     C_R   0.042683 0.464727 0.720362 -0.007643
H1    H     H_    0.897408 0.614773 0.775497 0.188564
H2    H     H_    0.384831 0.894483 0.776077 0.187856
H3    H     H_    0.102947 0.385615 0.775592 0.188615
H4    H     H_    0.616038 0.104386 0.775128 0.187715
H5    H     H_    0.895613 0.383962 0.224872 0.187715
H6    H     H_    0.385227 0.102592 0.224503 0.188564
H7    H     H_    0.105517 0.615169 0.223923 0.187856
H8    H     H_    0.614385 0.897053 0.224408 0.188615
H9    H     H_    0.397502 0.114858 0.275497 0.188564
H10   H     H_    0.884842 0.394470 0.276077 0.187857
H11   H     H_    0.602851 0.885529 0.275593 0.188614
H12   H     H_    0.116026 0.604399 0.275128 0.187714
H13   H     H_    0.395601 0.883973 0.724872 0.187714
H14   H     H_    0.885142 0.602498 0.724503 0.188564
H15   H     H_    0.605530 0.115157 0.723923 0.187857
H16   H     H_    0.114471 0.397149 0.724407 0.188614
H17   H     H_    0.526293 0.904267 0.141611 0.169249
H18   H     H_    0.095773 0.529052 0.140958 0.169079
H19   H     H_    0.473578 0.094940 0.141343 0.168521
H20   H     H_    0.905101 0.470284 0.141849 0.168900
H21   H     H_    0.529716 0.094899 0.858151 0.168900
H22   H     H_    0.095733 0.473707 0.858389 0.169249
H23   H     H_    0.470948 0.904227 0.859042 0.169079
H24   H     H_    0.905060 0.526422 0.858657 0.168521
H25   H     H_    0.026368 0.404288 0.641611 0.169244
H26   H     H_    0.595776 0.029042 0.640958 0.169079
H27   H     H_    0.973503 0.594919 0.641343 0.168523
H28   H     H_    0.405098 0.970295 0.641849 0.168899
H29   H     H_    0.029705 0.594902 0.358151 0.168899
H30   H     H_    0.595711 0.973632 0.358389 0.169245
H31   H     H_    0.970958 0.404224 0.359042 0.169079
H32   H     H_    0.405081 0.026497 0.358657 0.168523
H33   H     H_    0.530960 0.906115 0.090243 0.163731
H34   H     H_    0.093564 0.534272 0.089621 0.163669
H35   H     H_    0.469603 0.093659 0.090004 0.164345
H36   H     H_    0.906835 0.465211 0.090487 0.163502
H37   H     H_    0.534789 0.093165 0.909513 0.163502
H38   H     H_    0.093885 0.469039 0.909757 0.163731
H39   H     H_    0.465728 0.906435 0.910379 0.163669
H40   H     H_    0.906341 0.530397 0.909996 0.164345
H41   H     H_    0.031033 0.406140 0.590242 0.163699
H42   H     H_    0.593568 0.034263 0.589621 0.163671
H43   H     H_    0.969531 0.593634 0.590004 0.164341
H44   H     H_    0.406831 0.965221 0.590487 0.163503
H45   H     H_    0.034779 0.593169 0.409513 0.163504
H46   H     H_    0.593860 0.968967 0.409758 0.163699
H47   H     H_    0.965737 0.406432 0.410379 0.163671
H48   H     H_    0.406366 0.030469 0.409996 0.164341
N1    N     N_R   0.000496 0.500428 0.823594 -0.349250
N2    N     N_R   0.500335 0.999323 0.823632 -0.348526
N3    N     N_R   0.000676 0.499665 0.176368 -0.348526
N4    N     N_R   0.499572 0.999504 0.176406 -0.349250
N5    N     N_R   0.500496 0.000427 0.323594 -0.349249
N6    N     N_R   0.000334 0.499324 0.323632 -0.348526
N7    N     N_R   0.500676 0.999666 0.676368 -0.348526
N8    N     N_R   0.999573 0.499504 0.676406 -0.349249
O1    O     O_R   0.999960 0.091640 0.023680 -0.628696
O2    O     O_R   0.908360 0.999960 0.023680 -0.629362
O3    O     O_R   0.000040 0.908360 0.023680 -0.635766
O4    O     O_R   0.091640 0.000040 0.023680 -0.634240
O5    O     O_R   0.999960 0.908360 0.976320 -0.634240
O6    O     O_R   0.908360 0.000040 0.976320 -0.628696
O7    O     O_R   0.000040 0.091640 0.976320 -0.629362
O8    O     O_R   0.091640 0.999960 0.976320 -0.635766
O9    O     O_R   0.499960 0.591640 0.523680 -0.628691
O10   O     O_R   0.408360 0.499960 0.523680 -0.629369
O11   O     O_R   0.500040 0.408360 0.523680 -0.635766
O12   O     O_R   0.591640 0.500040 0.523680 -0.634237
O13   O     O_R   0.499960 0.408360 0.476320 -0.634237
O14   O     O_R   0.408360 0.500040 0.476320 -0.628691
O15   O     O_R   0.500040 0.591640 0.476320 -0.629369
O16   O     O_R   0.591640 0.499960 0.476320 -0.635766
O17   O     O_R   0.499950 0.051720 0.041990 -0.629344
O18   O     O_R   0.948280 0.499950 0.041990 -0.627865
O19   O     O_R   0.500050 0.948280 0.041990 -0.617787
O20   O     O_R   0.051720 0.500050 0.041990 -0.630775
O21   O     O_R   0.499950 0.948280 0.958010 -0.630775
O22   O     O_R   0.948280 0.500050 0.958010 -0.629344
O23   O     O_R   0.500050 0.051720 0.958010 -0.627865
O24   O     O_R   0.051720 0.499950 0.958010 -0.617787
O25   O     O_R   0.999950 0.551720 0.541990 -0.629356
O26   O     O_R   0.448280 0.999950 0.541990 -0.627865
O27   O     O_R   0.000050 0.448280 0.541990 -0.617788
O28   O     O_R   0.551720 0.000050 0.541990 -0.630772
O29   O     O_R   0.999950 0.448280 0.458010 -0.630772
O30   O     O_R   0.448280 0.000050 0.458010 -0.629356
O31   O     O_R   0.000050 0.551720 0.458010 -0.627865
O32   O     O_R   0.551720 0.999950 0.458010 -0.617788
O33   O     O_R   0.408360 0.051710 0.000060 -0.635730
O34   O     O_R   0.948290 0.408360 0.000060 -0.628931
O35   O     O_R   0.591640 0.948290 0.000060 -0.628839
O36   O     O_R   0.051710 0.591640 0.000060 -0.617410
O37   O     O_R   0.408360 0.948290 0.999940 -0.617409
O38   O     O_R   0.948290 0.591640 0.999940 -0.635730
O39   O     O_R   0.591640 0.051710 0.999940 -0.628931
O40   O     O_R   0.051710 0.408360 0.999940 -0.628839
O41   O     O_R   0.908360 0.551710 0.500060 -0.635734
O42   O     O_R   0.448290 0.908360 0.500060 -0.628903
O43   O     O_R   0.091640 0.448290 0.500060 -0.628867
O44   O     O_R   0.551710 0.091640 0.500060 -0.617406
O45   O     O_R   0.908360 0.448290 0.499940 -0.617406
O46   O     O_R   0.448290 0.091640 0.499940 -0.635734
O47   O     O_R   0.091640 0.551710 0.499940 -0.628903
O48   O     O_R   0.551710 0.908360 0.499940 -0.628867
O49   O     O_2   0.051843 0.405166 0.822938 -0.574073
O50   O     O_2   0.597194 0.050643 0.822383 -0.573166
O51   O     O_2   0.948966 0.595618 0.822651 -0.573003
O52   O     O_2   0.403660 0.947689 0.823091 -0.572858
O53   O     O_2   0.052311 0.596340 0.176909 -0.572858
O54   O     O_2   0.594834 0.948157 0.177062 -0.574073
O55   O     O_2   0.949357 0.402806 0.177617 -0.573165
O56   O     O_2   0.404382 0.051034 0.177349 -0.573003
O57   O     O_2   0.551765 0.905122 0.322939 -0.574095
O58   O     O_2   0.097188 0.550654 0.322382 -0.573168
O59   O     O_2   0.449043 0.095660 0.322651 -0.572999
O60   O     O_2   0.903665 0.447679 0.323091 -0.572859
O61   O     O_2   0.552321 0.096335 0.676909 -0.572859
O62   O     O_2   0.094878 0.448235 0.677061 -0.574095
O63   O     O_2   0.449346 0.902811 0.677618 -0.573168
O64   O     O_2   0.904340 0.550957 0.677349 -0.572999
Zn1   Zn    Zn3+2 1.000000 1.000000 0.031620 0.924736
Zn2   Zn    Zn3+2 0.000000 1.000000 0.968380 0.924736
Zn3   Zn    Zn3+2 0.500000 0.500000 0.531620 0.924725
Zn4   Zn    Zn3+2 0.500000 0.500000 0.468380 0.924725
Zn5   Zn    Zn3+2 0.500000 0.069070 0.000000 0.934085
Zn6   Zn    Zn3+2 0.930930 0.500000 0.000000 0.934085
Zn7   Zn    Zn3+2 0.500000 0.930930 0.000000 0.934677
Zn8   Zn    Zn3+2 0.069070 0.500000 0.000000 0.934677
Zn9   Zn    Zn3+2 1.000000 0.569070 0.500000 0.934074
Zn10  Zn    Zn3+2 0.430930 1.000000 0.500000 0.934074
Zn11  Zn    Zn3+2 1.000000 0.430930 0.500000 0.934658
Zn12  Zn    Zn3+2 0.569070 1.000000 0.500000 0.934658
C177  C     C_3   0.179962 0.093114 0.967070 -0.304783
C178  C     C_3   0.205946 0.158836 0.967236 -0.908133
H49   H     H_    0.232742 0.167691 0.986621 0.264089
H50   H     H_    0.233591 0.168382 0.947852 0.268385
H51   H     H_    0.167822 0.192246 0.966538 0.252479
H52   H     H_    0.169235 0.078992 0.945074 0.204049
H53   H     H_    0.134249 0.098891 0.976859 0.204271
C179  C     C_3   0.906569 0.177410 0.967496 -0.312999
C180  C     C_3   0.841696 0.202466 0.964881 -0.907931
H54   H     H_    0.829694 0.232438 0.982951 0.262801
H55   H     H_    0.837069 0.226517 0.944351 0.269446
H56   H     H_    0.807958 0.163554 0.964515 0.255231
H57   H     H_    0.924000 0.162429 0.946643 0.208819
H58   H     H_    0.898458 0.134352 0.979419 0.203081
C181  C     C_3   0.819695 0.906525 0.968144 -0.314701
C182  C     C_3   0.791571 0.842534 0.964263 -0.907432
H59   H     H_    0.764655 0.828042 0.983096 0.263751
H60   H     H_    0.763728 0.840316 0.944719 0.271956
H61   H     H_    0.829318 0.809327 0.961080 0.253067
H62   H     H_    0.836973 0.924869 0.947617 0.211060
H63   H     H_    0.861288 0.896746 0.980528 0.202865
C183  C     C_3   0.093397 0.824809 0.965594 -0.327179
C184  C     C_3   0.162348 0.811938 0.965225 -0.944676
H64   H     H_    0.175011 0.778973 0.981933 0.267262
H65   H     H_    0.175609 0.794869 0.943956 0.255594
H66   H     H_    0.189917 0.854675 0.968292 0.267467
H67   H     H_    0.074487 0.824702 0.943753 0.211432
H68   H     H_    0.094871 0.873210 0.972153 0.237060
C185  C     C_3   0.175192 0.906603 0.034406 -0.327183
C186  C     C_3   0.188062 0.837652 0.034774 -0.944677
H69   H     H_    0.221027 0.824990 0.018066 0.267263
H70   H     H_    0.205131 0.824389 0.056043 0.255593
H71   H     H_    0.145325 0.810083 0.031707 0.267468
H72   H     H_    0.175300 0.925512 0.056247 0.211431
H73   H     H_    0.126790 0.905130 0.027848 0.237061
C187  C     C_3   0.906886 0.820038 0.032930 -0.304783
C188  C     C_3   0.841164 0.794053 0.032764 -0.908132
H74   H     H_    0.832309 0.767258 0.013379 0.264090
H75   H     H_    0.831618 0.766409 0.052148 0.268385
H76   H     H_    0.807754 0.832178 0.033462 0.252479
H77   H     H_    0.921007 0.830765 0.054926 0.204049
H78   H     H_    0.901109 0.865751 0.023141 0.204270
C189  C     C_3   0.822590 0.093431 0.032504 -0.313000
C190  C     C_3   0.797534 0.158304 0.035119 -0.907930
H79   H     H_    0.767562 0.170306 0.017049 0.262801
H80   H     H_    0.773483 0.162931 0.055649 0.269446
H81   H     H_    0.836446 0.192042 0.035485 0.255231
H82   H     H_    0.837571 0.076000 0.053357 0.208819
H83   H     H_    0.865648 0.101542 0.020582 0.203081
C191  C     C_3   0.093475 0.180305 0.031856 -0.314702
C192  C     C_3   0.157466 0.208429 0.035737 -0.907432
H84   H     H_    0.171958 0.235345 0.016903 0.263751
H85   H     H_    0.159684 0.236272 0.055281 0.271956
H86   H     H_    0.190673 0.170682 0.038920 0.253067
H87   H     H_    0.075131 0.163027 0.052383 0.211060
H88   H     H_    0.103254 0.138712 0.019472 0.202866
C193  C     C_3   0.679962 0.593114 0.467069 -0.304776
C194  C     C_3   0.705946 0.658836 0.467235 -0.908166
H89   H     H_    0.732741 0.667690 0.486620 0.264095
H90   H     H_    0.733591 0.668383 0.447851 0.268381
H91   H     H_    0.667821 0.692245 0.466537 0.252464
H92   H     H_    0.669237 0.578992 0.445073 0.204045
H93   H     H_    0.634248 0.598890 0.476857 0.204270
C195  C     C_3   0.406573 0.677398 0.467495 -0.313150
C196  C     C_3   0.341703 0.702450 0.464864 -0.908097
H94   H     H_    0.329679 0.732420 0.482932 0.262855
H95   H     H_    0.337096 0.726498 0.444332 0.269354
H96   H     H_    0.307968 0.663536 0.464492 0.255273
H97   H     H_    0.424019 0.662381 0.446650 0.208784
H98   H     H_    0.398452 0.634356 0.479428 0.203092
C197  C     C_3   0.319692 0.406524 0.468146 -0.314695
C198  C     C_3   0.291565 0.342534 0.464265 -0.907442
H99   H     H_    0.264648 0.328044 0.483098 0.263747
H100  H     H_    0.263723 0.340318 0.444720 0.271956
H101  H     H_    0.329311 0.309326 0.461082 0.253065
H102  H     H_    0.336972 0.424868 0.447620 0.211060
H103  H     H_    0.361284 0.396744 0.480531 0.202859
C199  C     C_3   0.593398 0.324809 0.465595 -0.327177
C200  C     C_3   0.662348 0.311936 0.465226 -0.944676
H104  H     H_    0.675009 0.278969 0.481933 0.267264
H105  H     H_    0.675609 0.294868 0.443956 0.255593
H106  H     H_    0.689919 0.354672 0.468293 0.267468
H107  H     H_    0.574487 0.324706 0.443754 0.211434
H108  H     H_    0.594873 0.373210 0.472155 0.237056
C201  C     C_3   0.675191 0.406602 0.534405 -0.327183
C202  C     C_3   0.688064 0.337652 0.534773 -0.944674
H109  H     H_    0.721031 0.324991 0.518066 0.267265
H110  H     H_    0.705132 0.324389 0.556043 0.255593
H111  H     H_    0.645328 0.310081 0.531705 0.267469
H112  H     H_    0.675297 0.425512 0.556246 0.211433
H113  H     H_    0.626790 0.405128 0.527846 0.237057
C203  C     C_3   0.406886 0.320038 0.532931 -0.304777
C204  C     C_3   0.341164 0.294054 0.532765 -0.908166
H114  H     H_    0.332309 0.267259 0.513380 0.264095
H115  H     H_    0.331617 0.266409 0.552149 0.268382
H116  H     H_    0.307754 0.332179 0.533463 0.252464
H117  H     H_    0.421008 0.330763 0.554927 0.204045
H118  H     H_    0.401110 0.365751 0.523143 0.204269
C205  C     C_3   0.322602 0.593426 0.532505 -0.313149
C206  C     C_3   0.297549 0.658297 0.535136 -0.908097
H119  H     H_    0.267580 0.670321 0.517068 0.262855
H120  H     H_    0.273502 0.662904 0.555668 0.269355
H121  H     H_    0.336464 0.692032 0.535508 0.255273
H122  H     H_    0.337619 0.575981 0.553350 0.208784
H123  H     H_    0.365644 0.601548 0.520572 0.203092
C207  C     C_3   0.593476 0.680308 0.531854 -0.314693
C208  C     C_3   0.657466 0.708435 0.535735 -0.907440
H124  H     H_    0.671956 0.735352 0.516902 0.263747
H125  H     H_    0.659682 0.736277 0.555280 0.271955
H126  H     H_    0.690674 0.670689 0.538918 0.253065
H127  H     H_    0.575132 0.663028 0.552380 0.211060
H128  H     H_    0.603256 0.638716 0.519469 0.202858
C209  C     C_3   0.317727 0.075670 0.957748 -0.354807
C210  C     C_3   0.301061 0.062146 0.927055 -0.857766
H129  H     H_    0.324397 0.019695 0.920215 0.257578
H130  H     H_    0.251595 0.055229 0.923651 0.266068
H131  H     H_    0.317556 0.100903 0.913486 0.251999
H132  H     H_    0.316061 0.125008 0.962807 0.210398
H133  H     H_    0.367267 0.067354 0.957548 0.220726
C211  C     C_3   0.926889 0.316655 0.956591 -0.361409
C212  C     C_3   0.945509 0.299157 0.926578 -0.850007
H134  H     H_    0.992432 0.318114 0.921797 0.259707
H135  H     H_    0.945192 0.248782 0.923283 0.266637
H136  H     H_    0.912513 0.319963 0.911352 0.250948
H137  H     H_    0.876685 0.313326 0.959740 0.210902
H138  H     H_    0.935462 0.366596 0.956672 0.219580
C213  C     C_3   0.682408 0.930986 0.956470 -0.347459
C214  C     C_3   0.705027 0.947587 0.926683 -0.858762
H139  H     H_    0.686506 0.992811 0.920333 0.259248
H140  H     H_    0.755393 0.950309 0.924723 0.266891
H141  H     H_    0.687790 0.912351 0.911664 0.252170
H142  H     H_    0.680565 0.880893 0.960265 0.209146
H143  H     H_    0.633530 0.943167 0.955633 0.216258
C215  C     C_3   0.093492 0.684235 0.965433 -0.377597
C216  C     C_3   0.062344 0.652524 0.940643 -0.812326
H144  H     H_    0.022410 0.624101 0.947319 0.253630
H145  H     H_    0.046524 0.687820 0.925476 0.252773
H146  H     H_    0.096204 0.622798 0.929875 0.248122
H147  H     H_    0.129455 0.710803 0.955049 0.224694
H148  H     H_    0.121822 0.652751 0.978216 0.219059
C217  C     C_3   0.315765 0.906508 0.034567 -0.377599
C218  C     C_3   0.347476 0.937656 0.059357 -0.812326
H149  H     H_    0.375899 0.977590 0.052681 0.253631
H150  H     H_    0.312180 0.953476 0.074524 0.252772
H151  H     H_    0.377202 0.903795 0.070125 0.248122
H152  H     H_    0.289196 0.870545 0.044951 0.224694
H153  H     H_    0.347249 0.878178 0.021784 0.219060
C219  C     C_3   0.924330 0.682273 0.042252 -0.354807
C220  C     C_3   0.937854 0.698939 0.072945 -0.857767
H154  H     H_    0.980305 0.675603 0.079785 0.257578
H155  H     H_    0.944771 0.748405 0.076349 0.266068
H156  H     H_    0.899097 0.682444 0.086514 0.251999
H157  H     H_    0.874992 0.683939 0.037193 0.210398
H158  H     H_    0.932646 0.632733 0.042452 0.220726
C221  C     C_3   0.683345 0.073111 0.043409 -0.361409
C222  C     C_3   0.700843 0.054491 0.073422 -0.850007
H159  H     H_    0.681886 0.007568 0.078203 0.259707
H160  H     H_    0.751218 0.054808 0.076717 0.266637
H161  H     H_    0.680037 0.087487 0.088648 0.250948
H162  H     H_    0.686674 0.123315 0.040260 0.210902
H163  H     H_    0.633404 0.064538 0.043328 0.219581
C223  C     C_3   0.069014 0.317592 0.043530 -0.347459
C224  C     C_3   0.052413 0.294973 0.073316 -0.858763
H164  H     H_    0.007189 0.313493 0.079667 0.259248
H165  H     H_    0.049691 0.244607 0.075277 0.266891
H166  H     H_    0.087649 0.312210 0.088336 0.252170
H167  H     H_    0.119107 0.319435 0.039735 0.209146
H168  H     H_    0.056832 0.366470 0.044367 0.216258
C225  C     C_3   0.817727 0.575670 0.457747 -0.354808
C226  C     C_3   0.801063 0.562144 0.427055 -0.857775
H169  H     H_    0.824398 0.519693 0.420216 0.257580
H170  H     H_    0.751596 0.555228 0.423650 0.266067
H171  H     H_    0.817559 0.600900 0.413486 0.251996
H172  H     H_    0.816061 0.625008 0.462806 0.210397
H173  H     H_    0.867267 0.567355 0.457548 0.220726
C227  C     C_3   0.426880 0.816659 0.456591 -0.361905
C228  C     C_3   0.445538 0.799208 0.426579 -0.847951
H174  H     H_    0.492703 0.817901 0.421885 0.259457
H175  H     H_    0.444833 0.748756 0.423232 0.266342
H176  H     H_    0.412710 0.820400 0.411321 0.250619
H177  H     H_    0.376674 0.813308 0.459728 0.210924
H178  H     H_    0.435436 0.866601 0.456678 0.219573
C229  C     C_3   0.182407 0.430993 0.456470 -0.347438
C230  C     C_3   0.205029 0.447594 0.426685 -0.858768
H179  H     H_    0.186514 0.492820 0.420335 0.259248
H180  H     H_    0.255396 0.450311 0.424725 0.266889
H181  H     H_    0.187790 0.412361 0.411664 0.252166
H182  H     H_    0.180561 0.380900 0.460265 0.209140
H183  H     H_    0.133530 0.443178 0.455633 0.216259
C231  C     C_3   0.593488 0.184236 0.465432 -0.377609
C232  C     C_3   0.562337 0.152525 0.440642 -0.812312
H184  H     H_    0.522405 0.124101 0.447319 0.253627
H185  H     H_    0.546514 0.187821 0.425476 0.252774
H186  H     H_    0.596196 0.122800 0.429872 0.248131
H187  H     H_    0.629449 0.210804 0.455046 0.224698
H188  H     H_    0.621820 0.152751 0.478213 0.219062
C233  C     C_3   0.815764 0.406512 0.534569 -0.377610
C234  C     C_3   0.847475 0.437663 0.559358 -0.812313
H189  H     H_    0.875899 0.477595 0.552681 0.253627
H190  H     H_    0.812179 0.453486 0.574524 0.252774
H191  H     H_    0.877200 0.403804 0.570128 0.248131
H192  H     H_    0.789195 0.370551 0.544954 0.224698
H193  H     H_    0.847249 0.378180 0.521787 0.219063
C235  C     C_3   0.424330 0.182273 0.542253 -0.354808
C236  C     C_3   0.437856 0.198937 0.572945 -0.857775
H194  H     H_    0.480307 0.175602 0.579784 0.257580
H195  H     H_    0.444772 0.248403 0.576350 0.266068
H196  H     H_    0.399100 0.182441 0.586514 0.251996
H197  H     H_    0.374992 0.183939 0.537194 0.210397
H198  H     H_    0.432645 0.132733 0.542452 0.220726
C237  C     C_3   0.183341 0.573120 0.543409 -0.361905
C238  C     C_3   0.200792 0.554461 0.573421 -0.847950
H199  H     H_    0.182099 0.507297 0.578115 0.259457
H200  H     H_    0.251244 0.555167 0.576768 0.266342
H201  H     H_    0.179600 0.587290 0.588679 0.250619
H202  H     H_    0.186692 0.623326 0.540272 0.210924
H203  H     H_    0.133399 0.564564 0.543322 0.219573
C239  C     C_3   0.569007 0.817592 0.543530 -0.347438
C240  C     C_3   0.552406 0.794971 0.573315 -0.858768
H204  H     H_    0.507179 0.813486 0.579665 0.259248
H205  H     H_    0.549688 0.744604 0.575275 0.266889
H206  H     H_    0.587639 0.812210 0.588336 0.252166
H207  H     H_    0.619100 0.819439 0.539735 0.209140
H208  H     H_    0.556822 0.866470 0.544367 0.216259

loop_
_geom_bond_atom_site_label_1
_geom_bond_atom_site_label_2
_ccdc_geom_bond_type
O48   Zn12  S    
C151  N3    A    
C21   C26   A    
O33   Zn5   S    
C219  H157  S    
C102  C219  S    
C24   H8    S    
C119  C143  S    
C220  H154  S    
C108  C120  A    
O35   Zn7   S    
C199  H107  S    
C120  C144  S    
C24   C27   A    
O41   Zn9   S    
C14   C170  A    
C200  H106  S    
C42   C58   A    
C185  C186  S    
C69   C133  S    
C89   C125  A    
C2    C123  S    
O5    Zn2   S    
O1    Zn1   S    
O28   Zn12  S    
C32   C176  A    
C159  O63   S    
C6    C127  S    
C160  O64   S    
C131  O23   A    
C98   C114  A    
C95   C205  S    
C232  H184  S    
C8    O12   A    
C101  C113  A    
C195  C196  S    
O3    Zn1   S    
C1    C122  S    
C3    O3    A    
C101  C217  S    
O17   Zn5   S    
C1    O1    A    
C182  H59   S    
C232  H185  S    
C149  C167  A    
C5    C126  S    
C45   H29   S    
C85   C121  A    
C181  H63   S    
C7    C128  S    
C227  H178  S    
C132  O22   A    
C61   C71   A    
C130  O18   A    
C201  H113  S    
C179  H58   S    
C233  H192  S    
C10   C162  A    
C197  H103  S    
C11   C167  A    
C17   C30   A    
C82   C98   A    
C105  C225  S    
C19   C32   A    
C116  C140  S    
C129  O17   A    
O38   Zn6   S    
C183  C184  S    
C15   C173  A    
C221  C222  S    
C84   C100  A    
C239  H208  S    
C148  N2    A    
O31   Zn9   S    
C88   C122  A    
C196  H96   S    
O27   Zn11  S    
C189  H82   S    
C58   C70   A    
C138  O40   A    
C78   N7    S    
C145  N1    A    
C155  N5    A    
C40   C76   A    
C81   C121  A    
C179  C180  S    
C159  N7    A    
C180  H56   S    
C203  H117  S    
C155  C169  A    
C134  O26   A    
C150  C168  A    
C235  C236  S    
C48   H32   S    
C152  O56   S    
C231  C232  S    
C90   C126  A    
C27   H11   S    
C188  H76   S    
C25   H9    S    
C59   C69   A    
C23   C167  A    
C33   C73   A    
C46   C62   A    
C94   C128  A    
C35   C51   A    
C220  H156  S    
C29   H13   S    
O39   Zn5   S    
C108  C231  S    
C200  H104  S    
O21   Zn7   S    
C19   H3    S    
C214  H139  S    
O42   Zn10  S    
C17   H1    S    
C209  H132  S    
C54   H38   S    
C139  O35   A    
C187  H77   S    
C29   C173  A    
C160  N8    A    
C6    O14   A    
C151  O55   S    
C131  O21   A    
C201  C202  S    
C144  O44   A    
C148  C162  A    
C28   H12   S    
O44   Zn12  S    
C151  C165  A    
C193  C194  S    
C47   C63   A    
C197  H102  S    
C182  H61   S    
C30   H14   S    
C156  C170  A    
C215  H148  S    
O24   Zn8   S    
C202  H109  S    
C132  O24   A    
C22   C166  A    
C156  N6    A    
C26   C170  A    
C238  H200  S    
C192  H84   S    
C52   H36   S    
C115  C139  S    
C33   C49   A    
C30   C174  A    
C85   C185  S    
C198  H99   S    
C240  H206  S    
C218  H150  S    
C129  O19   A    
C99   C213  S    
C209  C210  S    
C235  H198  S    
C189  C190  S    
C141  O41   A    
C145  O49   S    
O40   Zn8   S    
C204  H114  S    
C177  H53   S    
C38   C76   A    
C212  H134  S    
C111  C237  S    
C223  H167  S    
C224  H165  S    
C55   H39   S    
C106  C227  S    
O47   Zn9   S    
C218  H151  S    
C54   C68   A    
C190  H81   S    
C221  H163  S    
C111  C119  A    
C28   C172  A    
C219  C220  S    
C22   C25   A    
O34   Zn6   S    
O19   Zn7   S    
C208  H125  S    
C191  H88   S    
O20   Zn8   S    
C39   C75   A    
C185  H72   S    
C36   C52   A    
C214  H141  S    
C43   C59   A    
C37   C53   A    
C13   C169  A    
C4    O4    A    
C153  N5    A    
O29   Zn11  S    
C97   C209  S    
C143  O47   A    
C227  C228  S    
C88   C104  A    
C93   C125  A    
O10   Zn3   S    
C39   C55   A    
C93   C201  S    
C195  H97   S    
C154  C172  A    
C63   H47   S    
C211  H138  S    
C142  O48   A    
C223  C224  S    
C222  H159  S    
C145  C163  A    
C56   C68   A    
C146  C164  A    
C236  H195  S    
C68   C132  S    
O23   Zn5   S    
C96   C207  S    
C36   H20   S    
C23   H7    S    
C228  H174  S    
C184  H65   S    
C237  H203  S    
C96   C126  A    
C18   C29   A    
C19   C163  A    
C23   C28   A    
C9    C161  A    
C194  H91   S    
C109  C233  S    
C17   C161  A    
C198  H101  S    
C207  H127  S    
C3    O5    A    
C186  H70   S    
C183  H67   S    
C86   C124  A    
C221  H162  S    
C86   C187  S    
C42   H26   S    
C112  C239  S    
C86   C102  A    
C89   C193  S    
C204  H116  S    
C211  C212  S    
C157  N7    A    
C11   C165  A    
C212  H136  S    
C16   C174  A    
C46   H30   S    
C39   H23   S    
C219  H158  S    
C76   N1    S    
C199  H108  S    
C110  C235  S    
C203  C204  S    
C200  H105  S    
C152  C166  A    
C135  O29   A    
C35   H19   S    
C186  H71   S    
C7    O13   A    
C231  H187  S    
C91   C197  S    
O15   Zn4   S    
C44   C78   A    
C22   H6    S    
C46   C80   A    
C58   H42   S    
O13   Zn4   S    
C34   H18   S    
C210  H129  S    
C82   C122  A    
C192  H86   S    
C62   H46   S    
C37   C75   A    
C226  H169  S    
C53   C67   A    
C184  H66   S    
C56   H40   S    
C193  H93   S    
C104  C223  S    
O43   Zn11  S    
C13   C171  A    
C187  C188  S    
C18   H2    S    
C210  H131  S    
O11   Zn3   S    
C217  C218  S    
C84   C183  S    
C44   H28   S    
C6    O10   A    
C150  O54   S    
C215  C216  S    
O25   Zn9   S    
C106  C118  A    
C93   C109  A    
C211  H137  S    
C92   C199  S    
C201  H112  S    
C229  H182  S    
C100  C215  S    
C100  C116  A    
C147  N1    A    
C109  C117  A    
C197  C198  S    
C1    O7    A    
C5    O9    A    
C228  H176  S    
C60   H44   S    
C99   C115  A    
C41   C77   A    
C48   C64   A    
C234  H190  S    
C20   C164  A    
C31   H15   S    
C21   C165  A    
C230  H179  S    
C32   H16   S    
C51   C65   A    
C157  O61   S    
C9    C163  A    
C107  C229  S    
C194  H89   S    
C229  H183  S    
C203  H118  S    
C49   C65   A    
C2    O2    A    
O8    Zn2   S    
C153  O57   S    
C40   C56   A    
C190  H80   S    
C53   H37   S    
C140  O36   A    
C188  H75   S    
C146  O50   S    
C81   C177  S    
C94   C203  S    
C16   C176  A    
C234  H191  S    
C133  O25   A    
C33   H17   S    
C83   C99   A    
C143  O43   A    
C220  H155  S    
C105  C117  A    
C107  C119  A    
C180  H55   S    
C178  H50   S    
C187  H78   S    
C136  O30   A    
C90   C106  A    
C20   H4    S    
C147  C161  A    
C158  N8    A    
O37   Zn7   S    
C40   H24   S    
C94   C110  A    
C181  C182  S    
C103  C115  A    
C224  H164  S    
C225  C226  S    
C91   C107  A    
C214  H140  S    
C147  O51   S    
C38   C54   A    
C232  H186  S    
O18   Zn6   S    
C4    O8    A    
C45   C79   A    
O30   Zn10  S    
C70   C134  S    
C227  H177  S    
C63   C71   A    
C202  H110  S    
C34   C74   A    
C103  C221  S    
C179  H57   S    
C233  H193  S    
C83   C181  S    
C207  C208  S    
C156  O60   S    
C84   C124  A    
C41   H25   S    
O45   Zn11  S    
C52   C66   A    
C3    C124  S    
C198  H100  S    
C213  H142  S    
C240  H205  S    
C225  H173  S    
C178  H49   S    
C137  O37   A    
C160  C174  A    
C239  H207  S    
C202  H111  S    
C73   N4    S    
C65   C129  S    
C177  H52   S    
C182  H60   S    
C130  O20   A    
C146  N2    A    
C230  H181  S    
C199  C200  S    
C234  H189  S    
C41   C57   A    
C223  H168  S    
O4    Zn1   S    
C12   C166  A    
C18   C162  A    
C57   H41   S    
C44   C60   A    
C45   C61   A    
C140  O38   A    
C4    C121  S    
C61   H45   S    
C95   C127  A    
C8    C125  S    
C133  O27   A    
C206  H119  S    
C8    O16   A    
C49   H33   S    
O36   Zn8   S    
C59   H43   S    
C83   C123  A    
C240  H204  S    
C178  H51   S    
C209  H133  S    
C87   C123  A    
C135  O31   A    
C136  O32   A    
C217  H153  S    
C26   H10   S    
C15   C175  A    
C117  C141  S    
C47   C79   A    
C80   N5    S    
C184  H64   S    
C216  H145  S    
C237  C238  S    
O9    Zn3   S    
C31   C175  A    
C177  C178  S    
C21   H5    S    
C96   C112  A    
C233  C234  S    
C195  H98   S    
C205  H123  S    
C24   C168  A    
C9    C16   A    
C236  H194  S    
C10   C15   A    
C71   C135  S    
C11   C14   A    
C72   C136  S    
C64   H48   S    
C217  H152  S    
C181  H62   S    
C215  H147  S    
C158  C176  A    
C216  H146  S    
O26   Zn10  S    
C152  N4    A    
C137  O33   A    
C144  O46   A    
C97   C113  A    
C82   C179  S    
C238  H199  S    
C91   C127  A    
C88   C191  S    
C229  C230  S    
C37   H21   S    
O22   Zn6   S    
O32   Zn12  S    
O46   Zn10  S    
O7    Zn2   S    
C150  N4    A    
C114  C138  S    
C218  H149  S    
C183  H68   S    
C235  H197  S    
C190  H79   S    
C210  H130  S    
C60   C70   A    
C191  C192  S    
C5    O15   A    
C92   C128  A    
C204  H115  S    
C92   C108  A    
C212  H135  S    
C237  H202  S    
C34   C50   A    
C158  O62   S    
C14   C172  A    
C224  H166  S    
C110  C120  A    
C222  H161  S    
C2    O6    A    
C138  O34   A    
C226  H171  S    
C139  O39   A    
C225  H172  S    
C154  O58   S    
C231  H188  S    
C79   N6    S    
C74   N3    S    
C208  H124  S    
C206  H121  S    
O14   Zn4   S    
C205  C206  S    
C153  C171  A    
C38   H22   S    
C208  H126  S    
C62   C72   A    
C191  H87   S    
C192  H85   S    
C205  H122  S    
C12   C13   A    
C226  H170  S    
C50   C66   A    
C50   H34   S    
C185  H73   S    
C36   C74   A    
C193  H92   S    
C157  C175  A    
C104  C114  A    
O6    Zn2   S    
C222  H160  S    
C42   C78   A    
C43   H27   S    
C149  N3    A    
O2    Zn1   S    
C87   C103  A    
C89   C105  A    
C27   C171  A    
C85   C101  A    
C25   C169  A    
C142  O42   A    
C35   C73   A    
C77   N8    S    
C10   C164  A    
C148  O52   S    
C155  O59   S    
C149  O53   S    
C75   N2    S    
O16   Zn4   S    
C206  H120  S    
C118  C142  S    
C87   C189  S    
C12   C168  A    
C55   C67   A    
C213  H143  S    
C207  H128  S    
C43   C77   A    
C47   H31   S    
C236  H196  S    
C98   C211  S    
C48   C80   A    
C141  O45   A    
C216  H144  S    
C228  H175  S    
C95   C111  A    
C196  H94   S    
C112  C118  A    
C81   C97   A    
C238  H201  S    
C196  H95   S    
C230  H180  S    
C113  C137  S    
C64   C72   A    
C180  H54   S    
C67   C131  S    
C194  H90   S    
C102  C116  A    
C213  C214  S    
C51   H35   S    
C134  O28   A    
C186  H69   S    
C159  C173  A    
C7    O11   A    
C239  C240  S    
C57   C69   A    
C188  H74   S    
C154  N6    A    
C189  H83   S    
O12   Zn3   S    
C90   C195  S    
C66   C130  S    
C20   C31   A    
