data_mof_unit_25466.cif
_audit_creation_date              2012-12-10T16:53:13-0500
_audit_creation_method            fapswitch 2.2
_symmetry_space_group_name_H-M    P1
_symmetry_Int_Tables_number       1
_space_group_crystal_system       triclinic
_cell_length_a                    19.068346
_cell_length_b                    19.431766
_cell_length_c                    18.335781
_cell_angle_alpha                 108.866889
_cell_angle_beta                  108.325869
_cell_angle_gamma                 110.90345
_cell_volume                      5248.17306654

loop_
_atom_site_label
_atom_site_type_symbol
_atom_type_description
_atom_site_fract_x
_atom_site_fract_y
_atom_site_fract_z
_atom_type_partial_charge
C1    C     C_R   0.998117 0.116206 0.620169 0.788886
C2    C     C_R   0.239773 0.270796 0.652243 -0.074237
C3    C     C_R   0.878895 0.070667 0.698654 -0.180303
C4    C     C_R   0.117969 0.115777 0.496616 0.795226
C5    C     C_R   0.819518 0.050522 0.729442 0.270602
C6    C     C_R   0.809890 0.113974 0.776910 0.215965
C7    C     C_R   0.884118 0.194024 0.830473 0.241450
C8    C     C_R   0.945029 0.220976 0.798460 -0.037916
C9    C     C_R   0.940071 0.156055 0.727996 -0.079769
C10   C     C_R   0.994999 0.179103 0.689840 -0.024827
C11   C     C_R   0.047327 0.265433 0.717632 0.023602
C12   C     C_R   0.184384 0.166167 0.410297 0.083028
C13   C     C_R   0.055206 0.327638 0.788731 -0.260918
C14   C     C_R   0.003743 0.308592 0.826696 -0.038900
C15   C     C_R   0.804270 0.702025 0.369500 -0.080440
C16   C     C_R   0.005198 0.886960 0.380437 0.731324
C17   C     C_R   0.747466 0.641738 0.281815 -0.193405
C18   C     C_R   0.660871 0.593265 0.254858 -0.043525
C19   C     C_R   0.637460 0.592199 0.321546 -0.007256
C20   C     C_R   0.694335 0.664049 0.411543 0.018997
C21   C     C_R   0.769170 0.727335 0.422566 0.009053
C22   C     C_R   0.821235 0.805465 0.498317 -0.097466
C23   C     C_R   0.310361 0.311963 0.494021 -0.133307
C24   C     C_R   0.830191 0.805533 0.577282 -0.044655
C25   C     C_R   0.760071 0.746078 0.575800 -0.051397
C26   C     C_R   0.687424 0.677797 0.491993 -0.149455
C27   C     C_R   0.158056 0.918704 0.339900 -0.165150
C28   C     C_R   0.882801 0.876843 0.496587 0.754455
C29   C     C_R   0.206670 0.946406 0.299552 -0.131883
C30   C     C_R   0.179949 0.893859 0.210840 0.291671
C31   C     C_R   0.105662 0.811922 0.163927 -0.127237
C32   C     C_R   0.058944 0.781154 0.206013 0.056635
C33   C     C_R   0.077127 0.841604 0.288731 -0.028453
C34   C     C_R   0.308533 0.322555 0.574911 -0.041980
C35   C     C_R   0.008766 0.824618 0.310770 -0.061116
C36   C     C_R   0.933036 0.747092 0.255658 -0.113141
C37   C     C_R   0.928859 0.679231 0.194242 -0.020802
C38   C     C_R   0.993200 0.693447 0.170147 -0.122839
C39   C     C_R   0.616976 0.498370 0.618666 0.794159
C40   C     C_R   0.118360 0.090521 0.326928 -0.020627
C41   C     C_R   0.378998 0.381522 0.497843 0.703933
C42   C     C_R   0.370206 0.488033 0.383273 0.800588
C43   C     C_R   0.615793 0.616884 0.494497 0.736361
C44   C     C_R   0.882451 0.502878 0.882416 0.789616
C45   C     C_R   0.243547 0.257337 0.572523 0.040645
C46   C     C_R   0.003565 0.380936 0.886096 0.811915
C47   C     C_R   0.118002 0.502087 0.122029 0.761306
C48   C     C_R   0.995511 0.619525 0.113293 0.758811
C49   C     C_R   0.792404 0.604109 0.667821 -0.211511
C50   C     C_R   0.876527 0.656049 0.690264 -0.104544
C51   C     C_R   0.944257 0.670603 0.762960 0.442220
C52   C     C_R   0.105334 0.086912 0.245200 -0.168907
C53   C     C_R   0.927370 0.628039 0.809468 -0.175427
C54   C     C_R   0.841838 0.565969 0.781475 0.057567
C55   C     C_R   0.773766 0.559242 0.712846 0.053089
C56   C     C_R   0.184222 0.179737 0.492617 -0.011491
C57   C     C_R   0.688179 0.499324 0.682086 -0.024394
C58   C     C_R   0.674766 0.428354 0.694351 0.010699
C59   C     C_R   0.735745 0.439294 0.768906 -0.236694
C60   C     C_R   0.819937 0.507030 0.814185 -0.081629
C61   C     C_R   0.171021 0.406576 0.342685 -0.133302
C62   C     C_R   0.078856 0.355875 0.304567 0.198432
C63   C     C_R   0.025195 0.374913 0.252016 0.348243
C64   C     C_R   0.168843 0.145815 0.241417 0.369338
C65   C     C_R   0.067202 0.441732 0.237442 -0.161342
C66   C     C_R   0.150863 0.464716 0.244002 -0.050917
C67   C     C_R   0.372050 0.395195 0.660391 0.424270
C68   C     C_R   0.207270 0.451655 0.302919 0.110743
C69   C     C_R   0.296036 0.484707 0.318017 0.008842
C70   C     C_R   0.322277 0.527150 0.275042 -0.140041
C71   C     C_R   0.267021 0.536770 0.214913 -0.043118
C72   C     C_R   0.180237 0.503494 0.196036 -0.143149
C73   C     C_R   0.237643 0.219478 0.321926 -0.122569
C74   C     C_R   0.247118 0.233577 0.409530 0.001269
C75   C     C_2   0.284718 0.356444 0.810250 0.379323
C76   C     C_2   0.866223 0.000212 0.627560 0.459964
C77   C     C_2   0.916674 0.855102 0.655957 0.488208
C78   C     C_R   0.349894 0.416523 0.727662 -0.132358
C79   C     C_2   0.892587 0.717332 0.413940 0.384955
C80   C     C_2   0.603468 0.531237 0.159285 0.443327
C81   C     C_2   0.583014 0.504064 0.300876 0.476139
C82   C     C_2   0.064543 0.012446 0.323847 0.077760
C83   C     C_2   0.763830 0.758543 0.662684 0.465512
C84   C     C_2   0.196339 0.965289 0.437141 0.359980
C85   C     C_2   0.282542 0.032546 0.349369 0.609713
C86   C     C_2   0.071191 0.766933 0.067539 0.552243
C87   C     C_2   0.855588 0.594084 0.154595 0.410367
C88   C     C_2   0.616730 0.339134 0.622445 0.431789
C89   C     C_R   0.291196 0.349204 0.729286 -0.119668
C90   C     C_2   0.022982 0.023088 0.162898 0.567051
C91   C     C_2   0.225857 0.430001 0.433972 0.394280
C92   C     C_2   0.034551 0.500947 0.236123 0.535154
C93   C     C_2   0.303821 0.580292 0.171520 0.455949
C94   C     C_2   0.281045 0.283615 0.302164 0.480361
C95   C     C_2   0.402768 0.504573 0.803555 0.480690
C96   C     C_2   0.090574 0.296208 0.670632 0.356677
Cu1   Cu    Cu3+1 0.061810 0.999990 0.561790 1.080959
Cu2   Cu    Cu3+1 0.938190 0.000010 0.438210 1.130359
Cu3   Cu    Cu3+1 0.499980 0.561850 0.561820 1.144141
Cu4   Cu    Cu3+1 0.500030 0.438250 0.438240 1.057733
Cu5   Cu    Cu3+1 0.061790 0.561800 0.999990 1.014972
Cu6   Cu    Cu3+1 0.938200 0.438200 0.000000 1.199180
H1    H     H_    0.097328 0.393352 0.809796 0.153164
H2    H     H_    0.312354 0.416961 0.867657 0.070688
H3    H     H_    0.917130 0.986629 0.638826 0.019780
H4    H     H_    0.669476 0.888135 0.597782 0.387183
H5    H     H_    0.610148 0.014786 0.633233 0.343136
H6    H     H_    0.046178 0.263089 0.029365 0.391279
H7    H     H_    0.935307 0.911597 0.712800 0.142375
H8    H     H_    0.928693 0.750009 0.485110 0.136005
H9    H     H_    0.631397 0.518634 0.116649 0.073587
H10   H     H_    0.616439 0.474354 0.327817 0.071364
H11   H     H_    0.014162 0.954546 0.262772 -0.035389
H12   H     H_    0.770252 0.626025 0.235789 0.167786
H13   H     H_    0.710320 0.753909 0.673823 0.175173
H14   H     H_    0.187518 0.929825 0.471730 0.138017
H15   H     H_    0.339111 0.050717 0.407540 0.097992
H16   H     H_    0.335237 0.034548 0.165421 0.404216
H17   H     H_    0.113540 0.758227 0.041803 0.137389
H18   H     H_    0.807607 0.561979 0.085904 0.064787
H19   H     H_    0.597305 0.289013 0.638670 0.126591
H20   H     H_    0.015718 0.964492 0.119351 0.106127
H21   H     H_    0.178397 0.773561 0.880893 0.403313
H22   H     H_    0.220950 0.383886 0.455051 0.120042
H23   H     H_    0.878519 0.738650 0.265474 0.138597
H24   H     H_    0.117138 0.236965 0.338838 0.332684
H25   H     H_    0.795844 0.219158 0.187241 0.385986
H26   H     H_    0.080071 0.567563 0.265777 0.014582
H27   H     H_    0.270028 0.554554 0.100825 0.097989
H28   H     H_    0.103439 0.009813 0.015689 0.408517
H29   H     H_    0.336048 0.288728 0.293213 0.165132
H30   H     H_    0.486225 0.356016 0.591377 0.339744
H31   H     H_    0.402128 0.519788 0.865991 0.049109
H32   H     H_    0.143576 0.360938 0.705045 0.068799
H33   H     H_    0.741979 0.595618 0.611449 0.128949
H34   H     H_    0.888589 0.686758 0.652227 0.202889
H35   H     H_    0.984148 0.645715 0.865783 0.224520
H36   H     H_    0.720857 0.386942 0.782998 0.179566
H37   H     H_    0.388412 0.552874 0.288185 0.186568
H38   H     H_    0.193214 0.222572 0.655798 0.199816
O1    O     O_R   0.052180 0.090150 0.642360 -0.581377
O2    O     O_R   0.857610 0.447810 0.909840 -0.572420
O3    O     O_R   0.052190 0.462030 0.909810 -0.595660
O4    O     O_R   0.947790 0.090180 0.538000 -0.514029
O5    O     O_R   0.947820 0.357640 0.909820 -0.530242
O6    O     O_R   0.142370 0.552190 0.090140 -0.613178
O7    O     O_R   0.038000 0.447800 0.090150 -0.502783
O8    O     O_R   0.052170 0.642360 0.090160 -0.617326
O9    O     O_R   0.947800 0.537970 0.090170 -0.535349
O10   O     O_R   0.142370 0.090170 0.552180 -0.564881
O11   O     O_R   0.037980 0.090190 0.447820 -0.531884
O12   O     O_R   0.590200 0.447870 0.538030 -0.554577
O13   O     O_R   0.052210 0.909820 0.462000 -0.587325
O14   O     O_R   0.947820 0.909850 0.357640 -0.589141
O15   O     O_R   0.962020 0.909810 0.552180 -0.607151
O16   O     O_R   0.857630 0.909830 0.447820 -0.520378
O17   O     O_R   0.590160 0.552240 0.642380 -0.525694
O18   O     O_2   0.247961 0.292861 0.814851 -0.490824
O19   O     O_2   0.799112 0.958193 0.557724 -0.506639
O20   O     O_2   0.850381 0.943268 0.773737 -0.264904
O21   O     O_2   0.726469 0.947221 0.778677 -0.135745
O22   O     O_3   0.711484 0.873077 0.624573 -0.537493
O23   O     O_R   0.409810 0.462060 0.552200 -0.544106
O24   O     O_2   0.708825 0.082668 0.852948 -0.102220
O25   O     O_2   0.690488 0.159633 0.773041 -0.284940
O26   O     O_3   0.629006 0.998023 0.682299 -0.467207
O27   O     O_2   0.867164 0.268092 0.969002 -0.164251
O28   O     O_2   0.892469 0.152228 0.959635 -0.192711
O29   O     O_3   0.022656 0.295483 0.009017 -0.535307
O30   O     O_2   0.968411 0.831492 0.657199 -0.494434
O31   O     O_2   0.923802 0.687159 0.373422 -0.481314
O32   O     O_2   0.525178 0.496537 0.126278 -0.456285
O33   O     O_2   0.503020 0.463895 0.254135 -0.455453
O34   O     O_R   0.409850 0.357690 0.447850 -0.612968
O35   O     O_2   0.007926 0.947378 0.255209 0.008395
O36   O     O_2   0.829621 0.780737 0.726304 -0.509869
O37   O     O_2   0.239244 0.042348 0.479638 -0.544398
O38   O     O_2   0.280341 0.085589 0.328218 -0.509084
O39   O     O_2   0.284040 0.871457 0.146481 -0.277021
O40   O     O_2   0.182656 0.905873 0.067739 -0.278052
O41   O     O_3   0.321216 0.026762 0.211010 -0.450726
O42   O     O_2   0.996288 0.739452 0.016981 -0.555091
O43   O     O_2   0.850743 0.558205 0.198181 -0.427480
O44   O     O_2   0.595206 0.319810 0.545247 -0.495739
O45   O     O_R   0.409800 0.552230 0.462030 -0.534917
O46   O     O_2   0.962427 0.035098 0.144714 -0.419632
O47   O     O_2   0.061229 0.732479 0.715356 -0.230091
O48   O     O_2   0.068906 0.831463 0.845470 -0.198660
O49   O     O_3   0.120651 0.727306 0.861256 -0.538630
O50   O     O_2   0.273843 0.504449 0.489810 -0.492714
O51   O     O_2   0.988693 0.300225 0.381864 -0.159985
O52   O     O_2   0.963583 0.193372 0.242980 -0.152126
O53   O     O_3   0.098752 0.254292 0.382797 -0.543963
O54   O     O_2   0.897890 0.395311 0.272320 -0.214344
O55   O     O_2   0.863518 0.306129 0.121428 -0.182682
O56   O     O_R   0.409840 0.447860 0.357670 -0.553772
O57   O     O_3   0.858495 0.241148 0.222520 -0.396480
O58   O     O_2   0.957918 0.476230 0.197137 -0.396134
O59   O     O_2   0.374717 0.644424 0.214782 -0.498152
O60   O     O_2   0.147593 0.196982 0.117167 -0.198269
O61   O     O_2   0.242141 0.138880 0.136138 -0.269884
O62   O     O_3   0.077418 0.035929 0.046948 -0.486074
O63   O     O_2   0.246573 0.320450 0.280359 -0.587939
O64   O     O_2   0.542941 0.494926 0.736450 -0.261678
O65   O     O_2   0.492338 0.394496 0.785270 -0.231062
O66   O     O_3   0.477131 0.333509 0.630706 -0.540454
O67   O     O_R   0.590160 0.642410 0.552210 -0.584791
O68   O     O_2   0.447389 0.562701 0.796758 -0.457598
O69   O     O_2   0.065126 0.252636 0.592559 -0.500706
O70   O     O_R   0.590200 0.538040 0.447850 -0.613625
O71   O     O_R   0.961980 0.552200 0.909830 -0.606206
S1    S     S_3+6 0.776090 0.952571 0.729127 0.075528
S2    S     S_3+6 0.708796 0.090641 0.773777 0.127794
S3    S     S_3+6 0.915978 0.227368 0.944554 0.120313
S4    S     S_3+6 0.242258 0.924702 0.157596 0.025017
S5    S     S_3+6 0.050804 0.743071 0.795787 0.071623
S6    S     S_3+6 0.029852 0.275010 0.327997 0.098916
S7    S     S_3+6 0.910279 0.328709 0.216608 0.159970
S8    S     S_3+6 0.159703 0.130075 0.134100 0.080313
S9    S     S_3+6 0.474959 0.407515 0.706210 0.034651

loop_
_geom_bond_atom_site_label_1
_geom_bond_atom_site_label_2
_ccdc_geom_bond_type
C11   C96   S    
C51   S5    S    
C65   C92   S    
C66   C68   A    
C41   O34   A    
C63   C65   A    
Cu5   O8    S    
H30   O66   S    
Cu5   Cu6   S    
C12   C74   A    
C27   C29   A    
Cu5   O3    S    
C73   C74   A    
C52   C90   S    
C35   C36   A    
C61   C68   A    
O51   S6    D    
Cu2   O14   S    
Cu1   Cu2   S    
O48   S5    D    
C4    C56   S    
C7    C8    A    
O65   S9    D    
C18   C80   S    
C54   C60   A    
C53   C54   A    
C27   C33   A    
O53   S6    S    
O29   S3    S    
C37   C38   A    
C20   C26   A    
O64   S9    D    
C53   H35   S    
C73   C94   S    
C63   S7    S    
C21   C22   A    
C67   S9    S    
C93   O59   D    
Cu6   O5    S    
C87   O43   D    
C30   C31   A    
C92   O58   D    
C88   O44   D    
C46   O5    A    
C79   O31   D    
C39   C57   S    
C92   H26   S    
C95   H31   S    
C18   C19   A    
O28   S3    D    
C5    S1    S    
C43   O70   A    
C13   C14   A    
C30   S4    S    
O47   S5    D    
C15   C79   S    
C36   H23   S    
C45   C56   A    
C8    C9    A    
C26   C43   S    
C28   O15   A    
Cu1   O10   S    
C70   C71   A    
C40   C52   A    
C32   C38   A    
C13   H1    S    
C29   C30   A    
C9    C10   A    
C77   O30   D    
C29   C85   S    
H28   O62   S    
Cu2   O16   S    
Cu1   O15   S    
C49   H33   S    
H5    O26   S    
C59   C60   A    
C84   H14   S    
C31   C86   S    
C22   C28   S    
C48   O9    A    
C39   O17   A    
H6    O29   S    
C90   H20   S    
C69   C70   A    
C67   C78   A    
O52   S6    D    
C93   H27   S    
H25   O57   S    
C47   C72   S    
O21   S1    D    
C17   H12   S    
C50   C51   A    
C6    C7    A    
C47   O7    A    
Cu2   O11   S    
Cu4   O56   S    
C78   C89   A    
O20   S1    D    
C91   O50   D    
C66   C72   A    
Cu5   O6    S    
C76   H3    S    
C43   O67   A    
C62   S6    S    
C83   H13   S    
C24   C25   A    
O61   S8    D    
C14   C46   S    
C52   C64   A    
C41   O23   A    
C68   C69   A    
C96   H32   S    
C90   O46   D    
C59   H36   S    
O66   S9    S    
C25   C26   A    
C49   C55   A    
C39   O12   A    
C42   C69   S    
Cu5   O71   S    
Cu3   O67   S    
C51   C53   A    
C81   O33   D    
O62   S8    S    
C12   C40   A    
C2    C89   A    
C85   H15   S    
C62   C63   A    
C3    C9    A    
O49   S5    S    
C40   C82   S    
Cu6   O7    S    
C31   C32   A    
C81   H10   S    
C78   C95   S    
C64   C73   A    
C23   C34   A    
C17   C18   A    
C70   H37   S    
Cu4   O12   S    
C34   C45   A    
C12   C56   A    
C82   O35   D    
C77   H7    S    
C3    C76   S    
C25   C83   S    
Cu1   O1    S    
C86   H17   S    
Cu3   O23   S    
C42   O56   A    
C42   O45   A    
O25   S2    D    
C49   C50   A    
Cu1   O13   S    
C91   H22   S    
Cu3   O17   S    
C16   O14   A    
C75   H2    S    
C22   C24   A    
C2    C45   A    
H21   O49   S    
C80   O32   D    
C23   C74   A    
O57   S7    S    
Cu3   O45   S    
C76   O19   D    
C75   O18   D    
C86   O42   D    
H16   O41   S    
C95   O68   D    
C15   C17   A    
C4    O11   A    
C54   C55   A    
C27   C84   S    
C8    C14   A    
C96   O69   D    
C64   S8    S    
Cu2   O4    S    
C38   C48   S    
C37   C87   S    
O40   S4    D    
C1    C10   S    
C82   H11   S    
C88   H19   S    
C3    C5    A    
C58   C88   S    
C34   C67   A    
O41   S4    S    
C46   O3    A    
C71   C93   S    
O24   S2    D    
C4    O10   A    
C94   H29   S    
C23   C41   S    
Cu3   Cu4   S    
C44   O71   A    
C2    H38   S    
C32   C33   A    
C19   C20   A    
C55   C57   A    
C58   C59   A    
C71   C72   A    
C16   C35   S    
C1    O4    A    
C19   C81   S    
Cu4   O34   S    
C11   C13   A    
H24   O53   S    
C57   C58   A    
C5    C6    A    
C6    S2    S    
O22   S1    S    
C36   C37   A    
C44   C60   S    
C48   O8    A    
C80   H9    S    
Cu4   O70   S    
C33   C35   A    
C85   O38   D    
O54   S7    D    
H4    O22   S    
C61   C62   A    
C79   H8    S    
C47   O6    A    
C7    S3    S    
C1    O1    A    
C10   C11   A    
C75   C89   S    
O26   S2    S    
C84   O37   D    
C24   C77   S    
C15   C21   A    
C20   C21   A    
C44   O2    A    
C65   C66   A    
O39   S4    D    
C16   O13   A    
C28   O16   A    
O60   S8    D    
Cu6   O9    S    
C50   H34   S    
C94   O63   D    
Cu6   O2    S    
O27   S3    D    
C83   O36   D    
O55   S7    D    
C87   H18   S    
C61   C91   S    
