data_mof_unit_23962.cif
_audit_creation_date              2012-12-11T14:50:42-0500
_audit_creation_method            fapswitch 2.2
_symmetry_space_group_name_H-M    P1
_symmetry_Int_Tables_number       1
_space_group_crystal_system       triclinic
_cell_length_a                    10.885441
_cell_length_b                    10.906446
_cell_length_c                    18.81533
_cell_angle_alpha                 90.397847
_cell_angle_beta                  89.811524
_cell_angle_gamma                 60.280287
_cell_volume                      1939.84898442

loop_
_atom_site_label
_atom_site_type_symbol
_atom_type_description
_atom_site_fract_x
_atom_site_fract_y
_atom_site_fract_z
_atom_type_partial_charge
C1    C     C_R   0.237741 0.646110 0.610113 0.538458
C2    C     C_R   0.552035 0.233507 0.797272 -0.143322
C3    C     C_R   0.535378 0.247339 0.724790 -0.138361
C4    C     C_R   0.653649 0.622254 0.601089 0.540284
C5    C     C_R   0.653160 0.198472 0.679508 0.021380
C6    C     C_R   0.187513 0.555966 0.721329 -0.158445
C7    C     C_R   0.177783 0.560519 0.795233 -0.155746
C8    C     C_R   0.174962 0.673299 0.833143 0.026454
C9    C     C_R   0.191295 0.775859 0.796738 -0.149010
C10   C     C_R   0.198639 0.772557 0.723647 -0.147140
C11   C     C_R   0.197889 0.662265 0.685091 0.027991
C12   C     C_3   0.666594 0.554161 0.800186 -0.249895
C13   C     C_R   0.729657 0.525939 0.271571 -0.122707
C14   C     C_R   0.727896 0.538556 0.198776 -0.129660
C15   C     C_R   0.650393 0.671376 0.167716 0.029630
C16   C     C_R   0.625605 0.233079 0.604480 0.538771
C17   C     C_R   0.561817 0.789393 0.210327 -0.128490
C18   C     C_R   0.559303 0.775403 0.283959 -0.132704
C19   C     C_R   0.647639 0.644139 0.315033 0.035040
C20   C     C_R   0.542603 0.159609 0.287444 -0.136330
C21   C     C_R   0.542204 0.155429 0.214625 -0.137887
C22   C     C_R   0.650928 0.158383 0.176294 0.038919
C23   C     C_3   0.699682 0.674506 0.811938 0.050519
C24   C     C_R   0.756777 0.172117 0.211599 -0.145081
C25   C     C_R   0.756110 0.178200 0.284943 -0.146687
C26   C     C_R   0.646836 0.175701 0.322990 0.037625
C27   C     C_R   0.088028 0.803408 0.305168 -0.136141
C28   C     C_R   0.218965 0.649574 0.402461 0.551022
C29   C     C_R   0.069295 0.815595 0.233041 -0.121374
C30   C     C_R   0.107358 0.695190 0.190610 0.039150
C31   C     C_R   0.152156 0.564175 0.221655 -0.138290
C32   C     C_R   0.173203 0.551371 0.294375 -0.127847
C33   C     C_R   0.148962 0.670071 0.335303 0.031509
C34   C     C_3   0.669677 0.647866 0.676417 0.056276
C35   C     C_R   0.701905 0.103608 0.896650 0.540825
C36   C     C_R   0.723970 0.688341 0.887911 0.543223
C37   C     C_R   0.117916 0.706526 0.905299 0.542950
C38   C     C_R   0.674289 0.108163 0.103897 0.546515
C39   C     C_R   0.693840 0.689899 0.097080 0.547090
C40   C     C_R   0.640300 0.619957 0.390654 0.549066
C41   C     C_R   0.082748 0.715297 0.115454 0.552947
C42   C     C_R   0.618032 0.227581 0.395172 0.549064
C43   C     C_3   0.575441 0.813929 0.781948 -0.229752
C44   C     C_3   0.557141 0.797706 0.702065 -0.241291
C45   C     C_3   0.817994 0.628569 0.690067 -0.247503
C46   C     C_3   0.836597 0.641207 0.770068 -0.221001
C47   C     C_3   0.650881 0.536964 0.720235 -0.211326
C48   C     C_R   0.789229 0.138982 0.708357 -0.156436
C49   C     C_R   0.806689 0.119581 0.781788 -0.146925
C50   C     C_R   0.687627 0.163157 0.826161 0.020325
Cr1   Cr    Cr6+3 0.392930 0.397900 0.502230 1.007889
Cr2   Cr    Cr6+3 0.398240 0.708600 0.501260 1.010484
Cr3   Cr    Cr6+3 0.708800 0.393470 0.496460 1.007658
Cr4   Cr    Cr6+3 0.937620 0.938540 0.007640 1.009068
Cr5   Cr    Cr6+3 0.625150 0.937450 0.994520 1.008269
Cr6   Cr    Cr6+3 0.937990 0.625080 0.001190 1.011070
H1    H     H_    0.596824 0.902886 0.790010 0.150289
H2    H     H_    0.165328 0.480030 0.822312 0.119580
H3    H     H_    0.189635 0.864280 0.824240 0.126255
H4    H     H_    0.475214 0.841357 0.810560 0.121314
H5    H     H_    0.207874 0.855871 0.697609 0.125646
H6    H     H_    0.795441 0.422390 0.293699 0.131732
H7    H     H_    0.795987 0.445562 0.167181 0.125566
H8    H     H_    0.501346 0.893223 0.187387 0.126833
H9    H     H_    0.491606 0.866894 0.316508 0.118477
H10   H     H_    0.456645 0.157487 0.315563 0.125581
H11   H     H_    0.460217 0.143022 0.188752 0.124101
H12   H     H_    0.731570 0.428091 0.703693 0.147856
H13   H     H_    0.842843 0.172555 0.182737 0.114785
H14   H     H_    0.837809 0.189767 0.311626 0.114697
H15   H     H_    0.065844 0.896241 0.336314 0.125432
H16   H     H_    0.448739 0.815443 0.692894 0.138014
H17   H     H_    0.027464 0.919613 0.210457 0.138395
H18   H     H_    0.176138 0.471864 0.189670 0.120418
H19   H     H_    0.219173 0.447091 0.317283 0.134885
H20   H     H_    0.568038 0.879240 0.671843 0.121472
H21   H     H_    0.863987 0.725636 0.779829 0.132148
H22   H     H_    0.831013 0.710013 0.660997 0.116729
H23   H     H_    0.926583 0.539740 0.788450 0.134974
H24   H     H_    0.752915 0.453374 0.821709 0.132285
H25   H     H_    0.567038 0.578342 0.828546 0.119961
H26   H     H_    0.544976 0.548316 0.710058 0.130196
H27   H     H_    0.902123 0.523300 0.670691 0.134009
H28   H     H_    0.881041 0.104867 0.674244 0.120327
H29   H     H_    0.912592 0.063522 0.803181 0.131185
H30   H     H_    0.458664 0.268731 0.830429 0.128585
H31   H     H_    0.429169 0.297394 0.704171 0.138233
H32   H     H_    0.187643 0.469456 0.692691 0.114685
O1    O     O_R   0.507430 0.255570 0.581420 -0.527389
O2    O     O_R   0.837200 0.593290 0.915250 -0.528611
O3    O     O_R   0.065330 0.635370 0.931590 -0.508100
O4    O     O_R   0.280190 0.527390 0.578910 -0.509846
O5    O     O_R   0.068300 0.828790 0.091860 -0.528780
O6    O     O_R   0.798730 0.057480 0.079370 -0.511193
O7    O     O_R   0.584680 0.080480 0.076790 -0.527768
O8    O     O_R   0.626790 0.809640 0.067050 -0.504061
O9    O     O_R   0.816010 0.596460 0.076500 -0.521416
O10   O     O_R   0.045680 0.638310 0.081070 -0.502384
O11   O     O_3   0.833590 0.833690 0.001120 -0.246186
O12   O     O_R   0.524460 0.695920 0.424060 -0.499760
O13   O     O_R   0.260310 0.739740 0.584580 -0.531725
O14   O     O_R   0.532250 0.695150 0.573830 -0.509164
O15   O     O_R   0.744930 0.503430 0.576380 -0.527669
O16   O     O_R   0.699250 0.276390 0.571950 -0.506665
O17   O     O_R   0.499020 0.256400 0.419850 -0.527851
O18   O     O_R   0.272400 0.528160 0.429140 -0.507755
O19   O     O_R   0.251910 0.740570 0.423020 -0.519767
O20   O     O_R   0.736530 0.504260 0.414810 -0.526554
O21   O     O_R   0.691460 0.277160 0.422180 -0.508459
O22   O     O_3   0.499990 0.499990 0.499980 -0.245650
O23   O     O_R   0.089490 0.825610 0.930610 -0.525525
O24   O     O_R   0.818370 0.054540 0.929880 -0.505667
O25   O     O_R   0.605870 0.077310 0.915530 -0.527671
O26   O     O_R   0.646440 0.806700 0.917570 -0.509148

loop_
_geom_bond_atom_site_label_1
_geom_bond_atom_site_label_2
_ccdc_geom_bond_type
Cr3   O22   S    
C27   C29   A    
C1    C11   S    
Cr6   O10   S    
C36   O26   A    
C32   H19   S    
C6    H32   S    
C7    C8    A    
C45   C46   S    
C27   C33   A    
C18   H9    S    
C12   C23   S    
Cr2   O14   S    
C20   H10   S    
C42   O21   A    
C17   H8    S    
C30   C31   A    
C39   O9    A    
C29   H17   S    
Cr3   O16   S    
C36   O2    A    
C22   C38   S    
C4    O15   A    
C23   C43   S    
C18   C19   A    
C47   H26   S    
C44   H20   S    
Cr4   O5    S    
C2    C50   A    
C44   H16   S    
C16   O16   A    
Cr6   O3    S    
C41   O5    A    
C13   H6    S    
Cr2   O19   S    
C28   O18   A    
C8    C9    A    
C5    C16   S    
C4    O14   A    
C38   O7    A    
Cr4   O23   S    
C30   C41   S    
C2    H30   S    
C45   H22   S    
C9    C10   A    
C7    H2    S    
C40   O20   A    
Cr6   O2    S    
C16   O1    A    
C23   C46   S    
C21   C22   A    
C21   H11   S    
C45   H27   S    
Cr6   O9    S    
C12   C47   S    
C24   H13   S    
C5    C48   A    
C4    C34   S    
Cr2   O13   S    
Cr4   O6    S    
C13   C19   A    
C3    H31   S    
C49   H29   S    
C34   C44   S    
C24   C25   A    
Cr5   O7    S    
C10   C11   A    
C6    C11   A    
C37   O3    A    
C31   H18   S    
Cr5   O25   S    
C25   C26   A    
Cr2   O12   S    
C48   H28   S    
C9    H3    S    
C43   C44   S    
C29   C30   A    
Cr1   O4    S    
C31   C32   A    
Cr2   O22   S    
Cr1   O17   S    
C38   O6    A    
C35   C50   S    
C17   C18   A    
Cr4   O24   S    
C34   C45   S    
C15   C39   S    
C43   H4    S    
C48   C49   A    
C28   C33   S    
C23   C36   S    
C1    O4    A    
C22   C24   A    
Cr4   O11   S    
C10   H5    S    
C8    C37   S    
C1    O13   A    
C47   H12   S    
C27   H15   S    
C26   C42   S    
Cr3   O21   S    
C15   C17   A    
C14   C15   A    
Cr5   O8    S    
C3    C5    A    
C40   O12   A    
C46   H21   S    
C6    C7    A    
C34   C47   S    
Cr5   O26   S    
Cr1   O22   S    
C32   C33   A    
C2    C3    A    
Cr1   O1    S    
Cr3   O20   S    
C46   H23   S    
C20   C26   A    
Cr3   O15   S    
Cr1   O18   S    
C14   H7    S    
C12   H24   S    
C12   H25   S    
C35   O25   A    
C42   O17   A    
C39   O8    A    
C37   O23   A    
C19   C40   S    
C43   H1    S    
C20   C21   A    
C49   C50   A    
Cr5   O11   S    
C41   O10   A    
C25   H14   S    
C28   O19   A    
Cr6   O11   S    
C13   C14   A    
C35   O24   A    
