data_mof_unit_34835.cif
_audit_creation_date              2012-12-10T20:53:05-0500
_audit_creation_method            fapswitch 2.2
_symmetry_space_group_name_H-M    P1
_symmetry_Int_Tables_number       1
_space_group_crystal_system       triclinic
_cell_length_a                    18.343425
_cell_length_b                    18.342122
_cell_length_c                    18.342267
_cell_angle_alpha                 59.96869
_cell_angle_beta                  59.959813
_cell_angle_gamma                 59.971828
_cell_volume                      4360.5441274

loop_
_atom_site_label
_atom_site_type_symbol
_atom_type_description
_atom_site_fract_x
_atom_site_fract_y
_atom_site_fract_z
_atom_type_partial_charge
C1    C     C_R   0.389835 0.110558 0.109742 0.481947
C2    C     C_R   0.383285 0.806156 0.779115 -0.095018
C3    C     C_R   0.035386 0.551866 0.910398 -0.000764
C4    C     C_R   0.447750 0.089451 0.964656 -0.001776
C5    C     C_R   0.552415 0.910565 0.035349 0.000674
C6    C     C_R   0.945910 0.946107 0.554097 0.023097
C7    C     C_R   0.054220 0.053838 0.446063 0.025747
C8    C     C_R   0.946081 0.553954 0.945912 0.023907
C9    C     C_R   0.053807 0.445996 0.054233 0.024898
C10   C     C_R   0.554156 0.945801 0.946194 0.024817
C11   C     C_R   0.445859 0.054156 0.053861 0.024351
C12   C     C_3   0.854540 0.332572 0.544501 -0.116432
C13   C     C_R   0.193540 0.220443 0.616760 -0.094206
C14   C     C_3   0.276557 0.646066 0.487980 -0.117890
C15   C     C_3   0.330783 0.547636 0.857079 -0.116939
C16   C     C_3   0.638207 0.537855 0.208158 -0.121179
C17   C     C_3   0.547597 0.858537 0.330669 -0.118608
C18   C     C_3   0.452280 0.141872 0.669376 -0.115807
C19   C     C_R   0.804261 0.776506 0.384727 -0.097132
C20   C     C_R   0.176410 0.579189 0.284612 -0.057145
C21   C     C_R   0.819063 0.425879 0.714524 -0.073741
C22   C     C_R   0.580178 0.283964 0.175355 -0.054981
C23   C     C_R   0.424739 0.716168 0.821235 -0.071969
C24   C     C_R   0.283652 0.178428 0.575487 -0.070829
C25   C     C_R   0.714759 0.819404 0.426744 -0.071528
C26   C     C_R   0.087169 0.585421 0.314617 0.057870
C27   C     C_R   0.610166 0.889402 0.890304 0.481876
C28   C     C_R   0.909637 0.415202 0.684826 0.054113
C29   C     C_R   0.585670 0.314383 0.086293 0.057049
C30   C     C_R   0.414652 0.685388 0.911794 0.054109
C31   C     C_R   0.314632 0.087899 0.585377 0.053796
C32   C     C_R   0.684910 0.910303 0.415010 0.053889
C33   C     C_R   0.040629 0.632979 0.253775 -0.081084
C34   C     C_R   0.956721 0.362472 0.745501 -0.079910
C35   C     C_R   0.632423 0.253812 0.039528 -0.080636
C36   C     C_R   0.362923 0.745411 0.959598 -0.080243
C37   C     C_R   0.254681 0.040029 0.636702 -0.081260
C38   C     C_R   0.110484 0.109831 0.389864 0.481335
C39   C     C_R   0.745429 0.957598 0.361193 -0.081901
C40   C     C_R   0.083028 0.673848 0.163727 -0.103710
C41   C     C_R   0.913705 0.320622 0.834931 -0.103982
C42   C     C_R   0.673187 0.163610 0.081552 -0.103214
C43   C     C_R   0.321552 0.835279 0.917287 -0.105866
C44   C     C_R   0.164698 0.082230 0.677899 -0.105646
C45   C     C_R   0.834802 0.914506 0.319307 -0.103833
C46   C     C_R   0.171962 0.667309 0.134047 -0.101556
C47   C     C_R   0.823585 0.331302 0.864196 -0.100674
C48   C     C_R   0.667338 0.133508 0.170332 -0.101829
C49   C     C_R   0.889608 0.890109 0.610143 0.479988
C50   C     C_R   0.331738 0.865639 0.827148 -0.102883
C51   C     C_R   0.134139 0.172337 0.667912 -0.102378
C52   C     C_R   0.864189 0.824082 0.331034 -0.100934
C53   C     C_R   0.987733 0.591046 0.464730 -0.151665
C54   C     C_R   0.010838 0.409146 0.535142 -0.174700
C55   C     C_R   0.591134 0.464648 0.987459 -0.153664
C56   C     C_R   0.408906 0.535381 0.011905 -0.174554
C57   C     C_R   0.464685 0.987901 0.591070 -0.175207
C58   C     C_R   0.535325 0.011945 0.408957 -0.174399
C59   C     C_R   0.943828 0.552555 0.555025 0.021479
C60   C     C_R   0.109803 0.389859 0.110501 0.481580
C61   C     C_R   0.054886 0.447608 0.444886 0.016257
C62   C     C_R   0.552482 0.555091 0.944162 0.019540
C63   C     C_R   0.447588 0.444907 0.055103 0.016251
C64   C     C_R   0.555020 0.944117 0.552532 0.018883
C65   C     C_R   0.444969 0.055647 0.447514 0.018793
C66   C     C_R   0.955070 0.460449 0.590646 -0.037698
C67   C     C_R   0.043003 0.539877 0.409138 -0.033896
C68   C     C_R   0.460161 0.590916 0.956219 -0.038223
C69   C     C_R   0.539992 0.409034 0.042668 -0.034357
C70   C     C_R   0.590759 0.955845 0.460298 -0.035830
C71   C     C_R   0.890039 0.610127 0.889673 0.480643
C72   C     C_R   0.409160 0.043611 0.539827 -0.036563
C73   C     C_R   0.110664 0.390423 0.389759 0.496091
C74   C     C_R   0.888955 0.609604 0.610245 0.504706
C75   C     C_R   0.390423 0.389756 0.110703 0.496228
C76   C     C_R   0.609591 0.610256 0.889070 0.501322
C77   C     C_R   0.389767 0.110886 0.390411 0.496299
C78   C     C_R   0.610235 0.889024 0.609599 0.495189
C79   C     C_R   0.180968 0.926036 0.402393 -0.141074
C80   C     C_R   0.819403 0.073814 0.598276 -0.148120
C81   C     C_R   0.927516 0.397985 0.179566 -0.147281
C82   C     C_R   0.218667 0.619989 0.194405 -0.095039
C83   C     C_R   0.072665 0.601224 0.820477 -0.146297
C84   C     C_R   0.397996 0.179176 0.927455 -0.148224
C85   C     C_R   0.602543 0.820984 0.072431 -0.153402
C86   C     C_R   0.216516 0.836726 0.408597 -0.109457
C87   C     C_R   0.784650 0.162447 0.594035 -0.077961
C88   C     C_R   0.839287 0.401159 0.213982 -0.086622
C89   C     C_R   0.160859 0.598128 0.786089 -0.082134
C90   C     C_R   0.400959 0.213351 0.839333 -0.077766
C91   C     C_R   0.599821 0.786963 0.160448 -0.091103
C92   C     C_R   0.163475 0.781534 0.464617 0.285743
C93   C     C_R   0.776235 0.383922 0.804090 -0.097579
C94   C     C_R   0.838266 0.216211 0.542675 0.288196
C95   C     C_R   0.784816 0.455869 0.161117 0.285833
C96   C     C_R   0.214695 0.546566 0.839606 0.287776
C97   C     C_R   0.452803 0.159827 0.785480 0.288726
C98   C     C_R   0.547574 0.840341 0.214440 0.288087
C99   C     C_R   0.073692 0.818592 0.510711 -0.067811
C100  C     C_R   0.927251 0.180690 0.491515 -0.097300
C101  C     C_R   0.820400 0.505344 0.071923 -0.088800
C102  C     C_R   0.179648 0.494216 0.928145 -0.096530
C103  C     C_R   0.505485 0.071488 0.820467 -0.096612
C104  C     C_R   0.620856 0.193609 0.217238 -0.092660
C105  C     C_R   0.494532 0.928509 0.179586 -0.096047
C106  C     C_R   0.036101 0.909365 0.505047 -0.038847
C107  C     C_R   0.964366 0.090283 0.496031 -0.030775
C108  C     C_R   0.910181 0.502604 0.035265 -0.034390
C109  C     C_R   0.089656 0.497512 0.964923 -0.031586
C110  C     C_R   0.502297 0.034907 0.910405 -0.031571
C111  C     C_R   0.497736 0.965068 0.089645 -0.031113
C112  C     C_R   0.090583 0.963700 0.450480 -0.000835
C113  C     C_R   0.909792 0.036044 0.550331 0.000008
C114  C     C_R   0.964462 0.448228 0.089848 -0.001158
H1    H     H_    0.980280 0.661301 0.437224 0.148385
H2    H     H_    0.034539 0.642194 0.775337 0.129934
H3    H     H_    0.356830 0.224341 0.965570 0.128731
H4    H     H_    0.643940 0.775858 0.034273 0.122053
H5    H     H_    0.285353 0.811174 0.369128 0.120090
H6    H     H_    0.715193 0.189558 0.631411 0.148761
H7    H     H_    0.812819 0.361461 0.282526 0.145920
H8    H     H_    0.187618 0.636440 0.716943 0.130199
H9    H     H_    0.362367 0.282366 0.812618 0.146416
H10   H     H_    0.638983 0.718222 0.186971 0.119468
H11   H     H_    0.034371 0.774526 0.552290 0.136799
H12   H     H_    0.018386 0.338874 0.562597 0.131984
H13   H     H_    0.966465 0.224590 0.447224 0.111929
H14   H     H_    0.776796 0.545547 0.032226 0.126193
H15   H     H_    0.223688 0.449748 0.967166 0.112915
H16   H     H_    0.550184 0.032508 0.776393 0.113032
H17   H     H_    0.449629 0.967407 0.223721 0.112343
H18   H     H_    0.204576 0.698697 0.064227 0.104663
H19   H     H_    0.790557 0.299022 0.933525 0.110875
H20   H     H_    0.698600 0.063565 0.202675 0.104086
H21   H     H_    0.299970 0.935335 0.794636 0.105257
H22   H     H_    0.064354 0.204774 0.699520 0.104523
H23   H     H_    0.661506 0.437029 0.979555 0.148830
H24   H     H_    0.933483 0.790992 0.298757 0.110191
H25   H     H_    0.287690 0.614498 0.171304 0.102661
H26   H     H_    0.706311 0.392519 0.826941 0.103478
H27   H     H_    0.615882 0.170199 0.286143 0.104964
H28   H     H_    0.391605 0.829796 0.709166 0.103729
H29   H     H_    0.169722 0.290375 0.608592 0.106738
H30   H     H_    0.827208 0.706350 0.394131 0.102589
H31   H     H_    0.213209 0.542152 0.330823 0.106520
H32   H     H_    0.781745 0.467093 0.668570 0.088177
H33   H     H_    0.543752 0.329966 0.212329 0.108566
H34   H     H_    0.338489 0.563002 0.020027 0.131909
H35   H     H_    0.465363 0.670780 0.783296 0.088037
H36   H     H_    0.328962 0.216444 0.535097 0.089605
H37   H     H_    0.668985 0.781872 0.468881 0.088518
H38   H     H_    0.971980 0.637605 0.275988 0.097756
H39   H     H_    0.026357 0.354454 0.723656 0.101439
H40   H     H_    0.636452 0.276344 0.971028 0.098739
H41   H     H_    0.355519 0.722777 0.029172 0.098962
H42   H     H_    0.277474 0.970475 0.643934 0.098371
H43   H     H_    0.723555 0.027430 0.352449 0.101107
H44   H     H_    0.047074 0.710250 0.116886 0.109196
H45   H     H_    0.437126 0.980094 0.661414 0.131726
H46   H     H_    0.950159 0.280130 0.881605 0.112530
H47   H     H_    0.708938 0.116970 0.045443 0.109928
H48   H     H_    0.281932 0.881469 0.954263 0.110324
H49   H     H_    0.118573 0.045197 0.717213 0.109142
H50   H     H_    0.881349 0.951133 0.278004 0.113365
H51   H     H_    0.904938 0.352352 0.478207 0.115825
H52   H     H_    0.887408 0.280875 0.595510 0.113604
H53   H     H_    0.812711 0.392706 0.565165 0.141757
H54   H     H_    0.333057 0.657774 0.424853 0.125311
H55   H     H_    0.287145 0.573506 0.515613 0.152105
H56   H     H_    0.562864 0.019790 0.338607 0.130897
H57   H     H_    0.276816 0.663147 0.538232 0.119863
H58   H     H_    0.351240 0.480598 0.906265 0.118025
H59   H     H_    0.278834 0.597407 0.891434 0.113208
H60   H     H_    0.390523 0.568951 0.815816 0.141136
H61   H     H_    0.651464 0.552150 0.251886 0.125848
H62   H     H_    0.569615 0.534426 0.242032 0.148110
H63   H     H_    0.639660 0.593446 0.143305 0.097392
H64   H     H_    0.480134 0.907113 0.351288 0.116668
H65   H     H_    0.596796 0.893608 0.278763 0.115638
H66   H     H_    0.568970 0.817640 0.390364 0.141178
H67   H     H_    0.225402 0.964937 0.359573 0.128944
H68   H     H_    0.402750 0.107214 0.721319 0.113263
H69   H     H_    0.519520 0.092948 0.648895 0.118100
H70   H     H_    0.430994 0.182900 0.609627 0.141467
H71   H     H_    0.774303 0.035620 0.639207 0.127445
H72   H     H_    0.966064 0.355873 0.224312 0.129773
O1    O     O_3   0.250000 0.250000 0.250000 -0.440024
O2    O     O_R   0.865800 0.694910 0.573470 -0.546582
O3    O     O_R   0.305090 0.426530 0.134200 -0.551141
O4    O     O_R   0.694910 0.573470 0.865800 -0.547478
O5    O     O_R   0.426530 0.134200 0.305090 -0.552140
O6    O     O_R   0.573470 0.865800 0.694910 -0.552382
O7    O     O_R   0.134190 0.426530 0.134200 -0.547498
O8    O     O_R   0.865810 0.573470 0.865800 -0.541131
O9    O     O_R   0.426530 0.134200 0.134190 -0.546723
O10   O     O_R   0.573470 0.865800 0.865810 -0.546896
O11   O     O_R   0.134200 0.134190 0.426530 -0.546906
O12   O     O_3   0.750000 0.750000 0.750000 -0.442621
O13   O     O_R   0.865800 0.865810 0.573470 -0.541104
O14   O     O_R   0.426530 0.305080 0.134210 -0.529449
O15   O     O_R   0.573470 0.694920 0.865790 -0.528839
O16   O     O_R   0.305080 0.134210 0.426530 -0.527437
O17   O     O_R   0.694920 0.865790 0.573470 -0.528424
O18   O     O_R   0.134210 0.426530 0.305080 -0.529536
O19   O     O_R   0.865790 0.573470 0.694920 -0.527975
O20   O     O_3   0.798849 0.304943 0.538583 -0.562635
O21   O     O_3   0.194649 0.692837 0.471342 -0.573994
O22   O     O_3   0.303135 0.543426 0.800310 -0.567438
O23   O     O_R   0.305080 0.134200 0.134200 -0.542750
O24   O     O_3   0.698587 0.455272 0.195601 -0.564224
O25   O     O_3   0.544567 0.801177 0.302831 -0.572702
O26   O     O_3   0.455902 0.198986 0.697060 -0.563454
O27   O     O_R   0.694920 0.865800 0.865800 -0.543162
O28   O     O_R   0.134200 0.134200 0.305080 -0.541933
O29   O     O_R   0.865800 0.865800 0.694920 -0.544145
O30   O     O_R   0.134200 0.305080 0.134200 -0.542214
O31   O     O_R   0.865800 0.694920 0.865800 -0.545465
O32   O     O_R   0.134200 0.305090 0.426530 -0.550528
Zn1   Zn    Zn3+2 0.206620 0.206630 0.380140 0.925033
Zn2   Zn    Zn3+2 0.793380 0.793370 0.619860 0.934764
Zn3   Zn    Zn3+2 0.206630 0.380140 0.206620 0.923624
Zn4   Zn    Zn3+2 0.793370 0.619860 0.793380 0.935189
Zn5   Zn    Zn3+2 0.380140 0.206620 0.206630 0.923627
Zn6   Zn    Zn3+2 0.619860 0.793380 0.793370 0.923551
Zn7   Zn    Zn3+2 0.206620 0.206620 0.206620 0.921616
Zn8   Zn    Zn3+2 0.793380 0.793380 0.793380 0.919562

loop_
_geom_bond_atom_site_label_1
_geom_bond_atom_site_label_2
_ccdc_geom_bond_type
C17   H64   S    
C10   C27   S    
O9    Zn5   S    
C55   C62   A    
C19   H30   S    
C22   C29   A    
C20   C82   A    
O18   Zn3   S    
C100  H13   S    
C90   H9    S    
C18   O26   S    
C1    C11   S    
C35   H40   S    
C92   O21   S    
C77   O16   A    
C12   H53   S    
C92   C99   A    
C53   C59   A    
C42   H47   S    
C99   H11   S    
O1    Zn1   S    
C75   O14   A    
C40   C46   A    
C54   H12   S    
C42   C48   A    
C98   C105  A    
O23   Zn7   S    
O17   Zn2   S    
C103  C110  A    
C26   C67   S    
C40   H44   S    
C97   O26   S    
C45   H50   S    
C3    C109  A    
C102  C109  A    
C80   C87   A    
C96   C102  A    
C50   H21   S    
O4    Zn4   S    
C59   C66   A    
C12   H52   S    
O1    Zn7   S    
O3    Zn3   S    
C96   O22   S    
C89   H8    S    
C18   H68   S    
C48   C104  A    
C87   C94   A    
O19   Zn4   S    
C101  H14   S    
C22   C104  A    
C7    C112  A    
C32   C39   A    
C108  C114  A    
C35   C42   A    
O28   Zn7   S    
C107  C113  A    
O27   Zn8   S    
C2    C50   A    
C13   C51   A    
C19   C52   A    
C63   C69   A    
C84   H3    S    
C8    C71   S    
C94   O20   S    
C81   C114  A    
C73   O32   A    
C52   H24   S    
C80   H71   S    
C102  H15   S    
C86   H5    S    
C44   H49   S    
C64   C70   A    
C58   H56   S    
C90   C97   A    
C74   O2    A    
C15   O22   S    
C89   C96   A    
O31   Zn8   S    
C39   C45   A    
C5    C85   A    
C17   H65   S    
C101  C108  A    
O7    Zn3   S    
C23   H35   S    
C88   C95   A    
C28   C34   A    
C91   C98   A    
C46   C82   A    
C14   O21   S    
C39   H43   S    
C95   O24   S    
C37   H42   S    
C62   C76   S    
C34   C41   A    
C84   C90   A    
C38   O28   A    
C14   H55   S    
C19   C25   A    
C8    C108  A    
C41   C47   A    
C60   O7    A    
C29   C69   S    
O2    Zn2   S    
C9    C109  A    
C83   C89   A    
C73   O18   A    
C38   O11   A    
C33   C40   A    
C65   C77   S    
C15   H59   S    
C11   C111  A    
C77   O5    A    
C23   C30   A    
C78   O6    A    
C78   O17   A    
O6    Zn6   S    
C105  H17   S    
C3    C8    A    
C12   H51   S    
C76   O15   A    
C14   H57   S    
C71   O8    A    
C106  C112  A    
O1    Zn3   S    
C45   C52   A    
C61   C73   S    
C56   C68   A    
C1    O23   A    
C79   H67   S    
C13   C24   A    
C31   C37   A    
C1    O9    A    
C94   C100  A    
C12   O20   S    
O16   Zn1   S    
C56   H34   S    
C28   C66   S    
C30   C36   A    
C6    C113  A    
C82   H25   S    
C97   C103  A    
C41   H46   S    
C51   H22   S    
C61   C67   A    
C58   C65   A    
C4    C84   A    
C18   H70   S    
O1    Zn5   S    
C6    C106  A    
C56   C63   A    
C55   C69   A    
C22   H33   S    
C4    C11   A    
C59   C74   S    
O10   Zn6   S    
C24   H36   S    
C79   C112  A    
C16   H61   S    
C31   C72   S    
C21   C28   A    
C49   O29   A    
C91   H10   S    
C3    C83   A    
O12   Zn6   S    
C2    H28   S    
C7    C107  A    
C21   C93   A    
C9    C114  A    
C14   H54   S    
C85   C91   A    
O5    Zn5   S    
C81   H72   S    
C16   H63   S    
C44   C51   A    
C57   C64   A    
C49   O13   A    
C34   H39   S    
C48   H20   S    
C99   C106  A    
C4    C110  A    
C100  C107  A    
C47   C93   A    
C15   H60   S    
O12   Zn4   S    
C104  H27   S    
O14   Zn5   S    
C64   C78   S    
C83   H2    S    
O12   Zn2   S    
O13   Zn2   S    
C88   H7    S    
C17   O25   S    
C33   H38   S    
C71   O31   A    
C32   C70   S    
C43   C50   A    
C54   C66   A    
C54   C61   A    
C17   H66   S    
C65   C72   A    
C5    C111  A    
C98   O25   S    
C29   C35   A    
O12   Zn8   S    
O30   Zn7   S    
C55   H23   S    
O8    Zn4   S    
C25   H37   S    
O29   Zn8   S    
C21   H32   S    
C9    C60   S    
C37   C44   A    
C16   O24   S    
C60   O30   A    
C24   C31   A    
C87   H6    S    
C20   C26   A    
C93   H26   S    
C86   C92   A    
C58   C70   A    
C46   H18   S    
C16   H62   S    
O32   Zn1   S    
C63   C75   S    
C18   H69   S    
C25   C32   A    
C7    C38   S    
C15   H58   S    
C10   C110  A    
C62   C68   A    
C13   H29   S    
C57   C72   A    
C105  C111  A    
C85   H4    S    
C53   C67   A    
C103  H16   S    
C30   C68   S    
C75   O3    A    
C81   C88   A    
C76   O4    A    
C43   H48   S    
C53   H1    S    
C5    C10   A    
C80   C113  A    
C36   H41   S    
C2    C23   A    
C27   O27   A    
C20   H31   S    
C36   C43   A    
C27   O10   A    
C57   H45   S    
O15   Zn6   S    
O11   Zn1   S    
C79   C86   A    
C47   H19   S    
C6    C49   S    
C95   C101  A    
C26   C33   A    
C74   O19   A    
