data_mof_unit_38637.cif
_audit_creation_date              2013-03-05T16:10:27-0500
_audit_creation_method            fapswitch 2.2
_symmetry_space_group_name_H-M    P1
_symmetry_Int_Tables_number       1
_space_group_crystal_system       triclinic
_cell_length_a                    10.782605
_cell_length_b                    10.013237
_cell_length_c                    14.867291
_cell_angle_alpha                 90.000213
_cell_angle_beta                  92.954621
_cell_angle_gamma                 90.000108
_cell_volume                      1603.06942021

loop_
_atom_site_label
_atom_site_type_symbol
_atom_site_description
_atom_site_fract_x
_atom_site_fract_y
_atom_site_fract_z
_atom_type_partial_charge
O1    O     O_R   0.316770 0.614620 0.499990 -0.631931
O2    O     O_R   0.683230 0.385380 0.500010 -0.634816
O3    O     O_R   0.683230 0.614620 0.500010 -0.631930
O4    O     O_R   0.316770 0.385380 0.499990 -0.634817
C1    C     C_R   0.260281 0.500004 0.499737 0.839703
C2    C     C_R   0.739719 0.500004 0.500263 0.839700
O5    O     O_R   0.499980 0.614680 0.367850 -0.617048
O6    O     O_R   0.500020 0.385320 0.632150 -0.622479
O7    O     O_R   0.500020 0.614680 0.632150 -0.617047
O8    O     O_R   0.499980 0.385320 0.367850 -0.622478
C3    C     C_R   0.499417 0.500239 0.327478 0.889303
C4    C     C_R   0.500583 0.500240 0.672522 0.889302
Zn1   Zn    Zn3+2 0.500000 0.653120 0.500000 0.937235
Zn2   Zn    Zn3+2 0.500000 0.346880 0.500000 0.933475
C5    C     C_R   0.618941 0.516863 0.817499 0.147593
C6    C     C_R   0.381059 0.516854 0.182500 0.147592
C7    C     C_R   0.505150 0.502944 0.768356 -0.057490
C8    C     C_R   0.494851 0.502943 0.231644 -0.057490
C9    C     C_R   0.392306 0.509575 0.808332 -0.282773
C10   C     C_R   0.607694 0.509584 0.191669 -0.282771
C11   C     C_R   0.388198 0.524036 0.900949 0.086860
C12   C     C_R   0.611803 0.524044 0.099051 0.086862
C13   C     C_R   0.501258 0.533749 0.952962 -0.071075
C14   C     C_R   0.498742 0.533749 0.047038 -0.071076
C15   C     C_R   0.616757 0.539793 0.911222 0.065653
C16   C     C_R   0.383244 0.539786 0.088778 0.065655
C17   C     C_R   0.273832 0.535081 0.942271 0.193061
C18   C     C_R   0.726168 0.535093 0.057729 0.193057
C19   C     C_R   0.274270 0.564910 0.034469 0.188676
C20   C     C_R   0.725729 0.564922 0.965531 0.188670
H1    H     H_    0.308053 0.506116 0.765390 0.157603
H2    H     H_    0.691948 0.506135 0.234611 0.157602
C21   C     C_R   0.063709 0.378379 0.499798 -0.195687
C22   C     C_R   0.936290 0.621647 0.500201 -0.197253
C23   C     C_R   0.936290 0.378379 0.500202 -0.195686
C24   C     C_R   0.063711 0.621647 0.499799 -0.197253
H3    H     H_    0.111772 0.283383 0.499701 0.160702
H4    H     H_    0.888225 0.716643 0.500299 0.160804
H5    H     H_    0.888227 0.283383 0.500300 0.160703
H6    H     H_    0.111775 0.716643 0.499701 0.160805
C25   C     C_R   0.872509 0.500011 0.500336 -0.005671
C26   C     C_R   0.127491 0.500011 0.499664 -0.005671
C27   C     C_R   0.579477 0.071500 0.557692 0.203587
C28   C     C_R   0.420566 0.928276 0.442237 0.206518
C29   C     C_R   0.420523 0.071499 0.442307 0.203586
C30   C     C_R   0.579434 0.928277 0.557763 0.206518
N1    N     N_R   0.500000 0.857200 0.500000 -0.118805
N2    N     N_R   0.500000 0.142800 0.500000 -0.117821
C31   C     C_3   0.739415 0.493289 0.771034 -0.923491
H7    H     H_    0.802517 0.428723 0.813294 0.252787
H8    H     H_    0.725505 0.439376 0.706370 0.223241
H9    H     H_    0.784276 0.589696 0.755722 0.245952
C32   C     C_3   0.260586 0.493266 0.228963 -0.923506
H10   H     H_    0.197491 0.428699 0.186699 0.252791
H11   H     H_    0.274497 0.439353 0.293625 0.223246
H12   H     H_    0.215717 0.589668 0.244276 0.245955
C33   C     C_3   0.151664 0.512176 0.890184 -0.951669
H13   H     H_    0.155892 0.419670 0.849287 0.243956
H14   H     H_    0.076485 0.494776 0.936760 0.252141
H15   H     H_    0.128620 0.598944 0.845926 0.248666
C34   C     C_3   0.848337 0.512192 0.109815 -0.951660
H16   H     H_    0.844108 0.419695 0.150723 0.243954
H17   H     H_    0.923510 0.494775 0.063236 0.252140
H18   H     H_    0.871389 0.598970 0.154064 0.248667
C35   C     C_3   0.171570 0.651676 0.068262 -0.924487
H19   H     H_    0.123832 0.708528 0.012450 0.254349
H20   H     H_    0.101860 0.590969 0.101126 0.249660
H21   H     H_    0.210659 0.727565 0.116266 0.246248
C36   C     C_3   0.828429 0.651690 0.931739 -0.924467
H22   H     H_    0.876167 0.708544 0.987552 0.254346
H23   H     H_    0.898142 0.590983 0.898876 0.249655
H24   H     H_    0.789340 0.727579 0.883735 0.246246
C37   C     C_3   0.669507 0.141904 0.622981 -0.825630
H25   H     H_    0.665643 0.249629 0.619597 0.287847
H26   H     H_    0.649999 0.115102 0.693274 0.223278
H27   H     H_    0.766387 0.114367 0.609259 0.206736
C38   C     C_3   0.330711 0.857631 0.376687 -0.828425
H28   H     H_    0.333979 0.749620 0.379621 0.291928
H29   H     H_    0.233795 0.885329 0.390175 0.205819
H30   H     H_    0.350470 0.884680 0.306477 0.220212
C39   C     C_3   0.330493 0.141902 0.377020 -0.825635
H31   H     H_    0.334358 0.249627 0.380403 0.287847
H32   H     H_    0.349999 0.115099 0.306726 0.223279
H33   H     H_    0.233612 0.114366 0.390742 0.206737
C40   C     C_3   0.669289 0.857633 0.623313 -0.828429
H34   H     H_    0.666020 0.749622 0.620379 0.291928
H35   H     H_    0.766205 0.885330 0.609824 0.205819
H36   H     H_    0.649532 0.884683 0.693523 0.220212

loop_
_geom_bond_atom_site_label_1
_geom_bond_atom_site_label_2
_geom_bond_distance
_ccdc_geom_bond_type
C27   C37   1.511418 S    
C1    C26   1.431773 S    
C3    C8    1.423367 S    
C17   C19   1.402669 A    
C37   H25   1.080552 S    
C24   C26   1.398764 A    
O3    C2    1.299207 A    
C9    H1    1.083657 S    
C39   H33   1.109438 S    
C39   H31   1.080549 S    
C32   H10   1.109778 S    
O5    C3    1.293466 A    
C27   C30   1.434127 A    
O1    C1    1.299205 A    
C21   C26   1.398739 A    
C28   C38   1.513772 S    
C9    C11   1.387543 A    
C14   C16   1.421046 A    
C5    C15   1.413586 A    
C36   H23   1.100502 S    
C34   H17   1.106729 S    
O7    Zn1   2.002050 S    
C6    C32   1.520823 S    
C7    C9    1.382988 A    
C35   H20   1.100488 S    
C2    C25   1.431772 S    
C4    C7    1.423369 S    
C13   C14   1.400307 A    
C27   N2    1.379869 A    
C8    C10   1.382990 A    
C34   H16   1.110249 S    
O3    Zn1   2.012949 S    
C28   N1    1.379058 A    
C38   H28   1.082922 S    
C30   C40   1.513772 S    
C18   C34   1.510757 S    
C32   H12   1.108623 S    
C38   H29   1.109409 S    
C11   C17   1.410119 A    
C12   C18   1.410116 A    
C37   H26   1.109557 S    
O2    C2    1.299279 A    
C22   C25   1.398764 A    
C23   C25   1.398740 A    
C39   H32   1.109557 S    
C32   H11   1.106022 S    
C6    C16   1.413583 A    
C40   H35   1.109410 S    
C24   H6    1.083280 S    
C17   C33   1.510760 S    
Zn1   N1    2.043501 S    
C33   H15   1.110279 S    
Zn2   N2    2.043501 S    
C29   N2    1.379870 A    
C31   H8    1.106029 S    
C40   H34   1.082922 S    
C21   H3    1.083274 S    
C36   H24   1.110612 S    
C23   H5    1.083274 S    
O6    C4    1.297717 A    
C35   H21   1.110603 S    
C19   C35   1.513562 S    
C10   C12   1.387545 A    
C31   H7    1.109787 S    
C11   C13   1.412949 A    
O8    Zn2   2.002052 S    
C37   H27   1.109439 S    
C12   C14   1.412948 A    
O1    Zn1   2.012950 S    
C20   C36   1.513568 S    
C28   C29   1.434126 A    
C40   H36   1.109620 S    
C10   H2    1.083659 S    
C38   H30   1.109620 S    
C15   C20   1.413539 A    
C5    C7    1.402238 A    
C30   N1    1.379055 A    
O6    Zn2   2.002048 S    
C22   H4    1.083281 S    
C29   C39   1.511417 S    
C31   H9    1.108636 S    
O4    C1    1.299280 A    
C18   C20   1.402669 A    
C34   H18   1.110288 S    
C33   H13   1.110243 S    
C21   C23   1.374226 A    
C22   C24   1.374248 A    
C5    C31   1.520827 S    
O4    Zn2   2.012951 S    
C36   H22   1.110650 S    
O2    Zn2   2.012948 S    
O7    C4    1.293466 A    
C33   H14   1.106718 S    
O8    C3    1.297719 A    
O5    Zn1   2.002049 S    
C13   C15   1.421048 A    
C16   C19   1.413536 A    
C6    C8    1.402238 A    
C35   H19   1.110639 S    
