data_mof_unit_58739.cif
_audit_creation_date              2012-10-26T19:52:50-0400
_audit_creation_method            fapswitch 2.2
_symmetry_space_group_name_H-M    P1
_symmetry_Int_Tables_number       1
_space_group_crystal_system       triclinic
_cell_length_a                    15.028085
_cell_length_b                    10.827473
_cell_length_c                    9.608738
_cell_angle_alpha                 90.556063
_cell_angle_beta                  88.988886
_cell_angle_gamma                 90.365808
_cell_volume                      1563.14992945

loop_
_atom_site_label
_atom_site_type_symbol
_atom_type_description
_atom_site_fract_x
_atom_site_fract_y
_atom_site_fract_z
_atom_type_partial_charge
C1    C     C_R   0.497167 0.262525 0.499552 0.542500
C2    C     C_R   0.186021 0.424328 0.593482 -0.103150
C3    C     C_R   0.232659 0.502722 0.503789 0.005619
C4    C     C_R   0.329077 0.500827 0.501081 0.529752
C5    C     C_R   0.187604 0.581999 0.415811 -0.128890
C6    C     C_R   0.480472 0.065017 0.623589 -0.012808
C7    C     C_R   0.484052 0.129756 0.499091 -0.039910
C8    C     C_R   0.466487 0.064920 0.375141 -0.088466
C9    C     C_R   0.459224 0.935870 0.374772 0.213109
C10   C     C_R   0.476496 0.870284 0.499444 -0.004369
C11   C     C_R   0.477556 0.938067 0.623741 -0.068845
C12   C     C_R   0.907421 0.577921 0.417545 -0.041686
C13   C     C_3   0.534122 0.929736 0.749286 -0.210129
C14   C     C_3   0.537337 0.070269 0.750043 0.127159
C15   C     C_R   0.577994 0.495309 0.071376 0.167213
C16   C     C_R   0.493551 0.737386 0.500141 0.539866
C17   C     C_R   0.423438 0.485723 0.076910 0.027130
C18   C     C_R   0.423658 0.479033 0.929598 0.310649
C19   C     C_R   0.577936 0.497374 0.924719 0.215269
C20   C     C_3   0.654980 0.585667 0.921266 0.442422
C21   C     C_3   0.656650 0.579592 0.080518 0.115952
C22   C     C_R   0.670967 0.498101 0.499077 0.547343
C23   C     C_R   0.955320 0.323347 0.666426 0.270044
C24   C     C_R   0.815051 0.576089 0.417475 -0.135291
C25   C     C_R   0.767646 0.490931 0.497587 0.020012
C26   C     C_R   0.812376 0.404150 0.580132 0.252810
C27   C     C_R   0.906356 0.406400 0.583686 0.059872
C28   C     C_R   0.953509 0.495199 0.502321 -0.031065
C29   C     C_R   0.047421 0.334610 0.673290 -0.080726
C30   C     C_R   0.093508 0.420528 0.591825 -0.028103
C31   C     C_R   0.047030 0.500957 0.504633 0.017184
C32   C     C_R   0.094278 0.586234 0.419077 0.025375
C33   C     C_R   0.046487 0.670250 0.336627 0.253233
C34   C     C_R   0.953905 0.663538 0.335495 -0.046671
Cu1   Cu    Cu3+1 0.500000 0.499980 0.640670 1.048303
Cu2   Cu    Cu3+1 0.500000 0.500020 0.359330 0.971820
H1    H     H_    0.599314 0.886007 0.725204 0.204536
H2    H     H_    0.648397 0.079443 0.639125 0.327761
H3    H     H_    0.364513 0.367175 0.810165 0.335915
H4    H     H_    0.777901 0.598147 0.859957 0.339917
H5    H     H_    0.582628 0.734460 0.924767 0.291802
H6    H     H_    0.781702 0.574154 0.119482 0.320746
H7    H     H_    0.708732 0.299932 0.614281 0.347112
H8    H     H_    0.883663 0.177343 0.672121 0.356540
H9    H     H_    0.222050 0.362343 0.659949 0.133051
H10   H     H_    0.140686 0.790224 0.304204 0.321999
H11   H     H_    0.917967 0.727553 0.271384 0.142497
H12   H     H_    0.361243 0.472579 0.132847 0.166074
H13   H     H_    0.459571 0.113577 0.277958 0.168518
H14   H     H_    0.642767 0.667409 0.137959 0.113931
H15   H     H_    0.083478 0.271620 0.738499 0.149584
H16   H     H_    0.226570 0.639343 0.345803 0.120422
H17   H     H_    0.779391 0.643824 0.357898 0.126531
H18   H     H_    0.397344 0.809176 0.272828 0.337485
H19   H     H_    0.496183 0.892029 0.839751 0.139739
H20   H     H_    0.503374 0.113718 0.841644 0.166296
N1    N     N_R   0.500570 0.500930 0.147930 -0.303978
N2    N     N_R   0.500570 0.500890 0.852020 -0.262493
O1    O     O_R   0.500000 0.319640 0.618810 -0.496823
O2    O     O_3   0.623265 0.118540 0.725042 -0.646034
O3    O     O_3   0.346874 0.438796 0.869297 -0.684985
O4    O     O_3   0.730220 0.534517 0.854987 -0.569014
O5    O     O_3   0.633784 0.702261 0.869000 -0.705997
O6    O     O_3   0.730743 0.515938 0.128646 -0.647269
O7    O     O_3   0.765626 0.319544 0.659936 -0.603013
O8    O     O_3   0.916060 0.229029 0.740545 -0.612452
O9    O     O_3   0.086760 0.760434 0.256480 -0.683042
O10   O     O_R   0.500010 0.319680 0.381230 -0.505148
O11   O     O_R   0.370250 0.499950 0.618800 -0.474829
O12   O     O_R   0.370260 0.499990 0.381220 -0.534580
O13   O     O_R   0.499990 0.680320 0.618770 -0.475556
O14   O     O_R   0.500000 0.680360 0.381190 -0.496769
O15   O     O_R   0.629740 0.500010 0.618780 -0.430891
O16   O     O_R   0.629750 0.500050 0.381200 -0.469377
O17   O     O_3   0.438431 0.878516 0.250891 -0.690736

loop_
_geom_bond_atom_site_label_1
_geom_bond_atom_site_label_2
_ccdc_geom_bond_type
C14   H20   S    
H8    O8    S    
Cu1   Cu2   S    
C16   O14   A    
C17   H12   S    
C4    O12   A    
C7    C8    A    
C15   C19   A    
C26   C27   A    
C12   C28   A    
Cu1   N2    S    
C23   C29   A    
C23   O8    S    
C1    O1    A    
C30   C31   A    
C1    O10   A    
H4    O4    S    
Cu1   O1    S    
C21   H14   S    
C21   O6    S    
C18   N2    A    
C19   C20   S    
C8    C9    A    
C22   C25   S    
C5    H16   S    
C23   C27   A    
C9    C10   A    
C13   H1    S    
C5    C32   A    
Cu1   O13   S    
C2    H9    S    
C13   C14   S    
C15   N1    A    
C16   O13   A    
C4    O11   A    
Cu2   O12   S    
C17   C18   A    
C19   N2    A    
H3    O3    S    
C24   C25   A    
Cu2   N1    S    
C6    C11   A    
C24   H17   S    
C29   C30   A    
C6    C14   S    
C31   C32   A    
H7    O7    S    
C33   C34   A    
Cu2   O16   S    
H2    O2    S    
H5    O5    S    
C12   C34   A    
C3    C4    S    
H6    O6    S    
C33   O9    S    
C29   H15   S    
Cu1   O15   S    
C1    C7    S    
C26   O7    S    
C28   C31   A    
C3    C5    A    
Cu2   O10   S    
C18   O3    S    
C6    C7    A    
C14   O2    S    
C12   C24   A    
C2    C30   A    
C32   C33   A    
C20   O5    S    
C2    C3    A    
C25   C26   A    
H10   O9    S    
C10   C16   S    
C11   C13   S    
C20   O4    S    
C10   C11   A    
H18   O17   S    
C15   C21   S    
C20   C21   S    
Cu1   O11   S    
C27   C28   A    
C22   O16   A    
C34   H11   S    
C9    O17   S    
C22   O15   A    
C8    H13   S    
Cu2   O14   S    
C17   N1    A    
C13   H19   S    
