data_mof_unit_32179.cif
_audit_creation_date              2013-03-05T16:11:50-0500
_audit_creation_method            fapswitch 2.2
_symmetry_space_group_name_H-M    P1
_symmetry_Int_Tables_number       1
_space_group_crystal_system       triclinic
_cell_length_a                    10.736071
_cell_length_b                    9.574832
_cell_length_c                    23.475669
_cell_angle_alpha                 90.002846
_cell_angle_beta                  92.044877
_cell_angle_gamma                 90.136528
_cell_volume                      2411.66302461

loop_
_atom_site_label
_atom_site_type_symbol
_atom_site_description
_atom_site_fract_x
_atom_site_fract_y
_atom_site_fract_z
_atom_type_partial_charge
O1    O     O_R   0.317570 0.620260 0.500030 -0.585074
O2    O     O_R   0.317570 0.379740 0.500030 -0.599735
C1    C     C_R   0.260141 0.499901 0.498214 0.825069
O3    O     O_R   0.499840 0.620290 0.417900 -0.532119
O4    O     O_R   0.499840 0.379710 0.417900 -0.540237
C2    C     C_R   0.499547 0.499851 0.391520 0.808525
Cu1   Cu    Cu3+1 0.499860 0.642410 0.500030 0.974172
Cu2   Cu    Cu3+1 0.499860 0.357590 0.500030 0.970009
O5    O     O_R   0.682190 0.620260 0.500010 -0.585486
O6    O     O_R   0.682190 0.379740 0.500010 -0.587831
O7    O     O_R   0.499920 0.620230 0.582140 -0.532492
O8    O     O_R   0.499920 0.379770 0.582140 -0.538510
C3    C     C_R   0.739397 0.500063 0.498956 0.769598
C4    C     C_R   0.500107 0.499888 0.608673 0.840057
C5    C     C_R   0.562931 0.596576 0.881239 0.533146
N1    N     N_R   0.498976 0.494889 0.851441 -0.462068
C6    C     C_R   0.431704 0.394971 0.878589 0.546040
C7    C     C_R   0.430884 0.391501 0.938378 -0.058801
C8    C     C_R   0.495989 0.494862 0.969798 -0.013943
C9    C     C_R   0.561812 0.599487 0.940959 -0.005542
C10   C     C_R   0.366590 0.287010 0.966976 -0.149201
C11   C     C_R   0.366093 0.282445 0.026707 0.139074
C12   C     C_R   0.431085 0.387603 0.059201 -0.038723
C13   C     C_R   0.495230 0.494175 0.029995 -0.052278
C14   C     C_R   0.559167 0.600788 0.060741 -0.017649
C15   C     C_R   0.623253 0.705113 0.031497 -0.150119
C16   C     C_R   0.625060 0.704092 0.972274 -0.161882
C17   C     C_R   0.435320 0.391853 0.119641 0.560623
N2    N     N_R   0.497181 0.497296 0.148171 -0.468217
C18   C     C_R   0.557788 0.600756 0.120247 0.550002
O9    O     O_2   0.627676 0.694144 0.853115 -0.536485
O10   O     O_2   0.365605 0.299602 0.847745 -0.532618
H1    H     H_    0.316775 0.207246 0.942537 0.189488
O11   O     O_2   0.378812 0.292601 0.150235 -0.514380
O12   O     O_2   0.616823 0.703069 0.150237 -0.504513
H2    H     H_    0.672856 0.787713 0.054303 0.194211
H3    H     H_    0.675930 0.785774 0.951145 0.190046
C19   C     C_R   0.603320 0.447506 0.241016 0.439192
C20   C     C_R   0.605154 0.450763 0.300568 0.359303
C21   C     C_R   0.499276 0.498846 0.329135 -0.409039
C22   C     C_R   0.392487 0.544895 0.297374 0.336016
C23   C     C_R   0.393951 0.550079 0.237940 0.447803
C24   C     C_R   0.498521 0.499179 0.209401 -0.045330
C25   C     C_R   0.432428 0.595856 0.759711 -0.144710
H4    H     H_    0.378442 0.672456 0.782058 0.161949
C26   C     C_R   0.433105 0.598684 0.700439 -0.175479
H5    H     H_    0.378495 0.676819 0.677580 0.223949
C27   C     C_R   0.500946 0.498876 0.671021 -0.077832
C28   C     C_R   0.569468 0.397082 0.701415 -0.191640
H6    H     H_    0.623095 0.320983 0.678521 0.138413
C29   C     C_R   0.571551 0.395145 0.761134 0.208046
C30   C     C_R   0.500851 0.494587 0.790344 0.348112
C31   C     C_3   0.076319 0.504756 0.560016 0.210911
C32   C     C_3   0.068027 0.363520 0.469104 0.182558
H7    H     H_    0.103048 0.404536 0.581143 0.138580
H8    H     H_    0.104904 0.271475 0.493216 0.133283
C33   C     C_3   0.932078 0.515995 0.559781 -0.444628
C34   C     C_3   0.924727 0.360323 0.472877 -0.418247
H9    H     H_    0.894288 0.432999 0.587604 0.144562
H10   H     H_    0.898387 0.271531 0.500685 0.146917
H11   H     H_    0.902596 0.617936 0.577629 0.184063
H12   H     H_    0.879401 0.340583 0.430299 0.215757
H13   H     H_    0.099277 0.727349 0.483992 0.177139
H14   H     H_    0.103511 0.630559 0.419857 0.195217
H15   H     H_    0.888946 0.724055 0.476722 0.182729
H16   H     H_    0.890344 0.609375 0.416295 0.194950
C35   C     C_3   0.068236 0.627759 0.463756 -0.420052
C36   C     C_3   0.121766 0.499947 0.497505 0.016771
C37   C     C_3   0.877369 0.499817 0.498144 0.041669
C38   C     C_3   0.924837 0.622447 0.461263 -0.371485
C39   C     C_3   0.625173 0.082886 0.517194 -0.274281
C40   C     C_3   0.625388 0.917622 0.516771 -0.277413
H17   H     H_    0.660296 0.122666 0.559112 0.128431
H18   H     H_    0.661799 0.876708 0.558261 0.136429
H19   H     H_    0.696177 0.119850 0.487369 0.222629
H20   H     H_    0.695592 0.882072 0.486353 0.217915
C41   C     C_3   0.408939 0.082592 0.541873 0.253539
C42   C     C_3   0.409790 0.916900 0.542254 0.264960
C43   C     C_3   0.465367 0.085356 0.442312 0.508572
C44   C     C_3   0.464613 0.914655 0.442403 0.537898
N3    N     N_3   0.500250 0.143650 0.501250 -0.180928
N4    N     N_3   0.500250 0.856350 0.501250 -0.181196
H21   H     H_    0.313679 0.114889 0.528489 0.108901
H22   H     H_    0.314480 0.882281 0.529761 0.121616
C45   C     C_3   0.651221 0.290061 0.793130 -0.805189
H23   H     H_    0.717194 0.344998 0.823006 0.235080
H24   H     H_    0.591924 0.218417 0.817588 0.262293
H25   H     H_    0.706445 0.225866 0.763810 0.223547
O13   O     O_3   0.134206 0.611960 0.592582 -0.705866
H26   H     H_    0.102108 0.703024 0.578450 0.336288
O14   O     O_3   0.105144 0.348591 0.412424 -0.730905
H27   H     H_    0.055636 0.413422 0.387739 0.366985
C46   C     C_3   0.294919 0.164260 0.053280 -0.705617
H28   H     H_    0.250491 0.094183 0.020725 0.200850
H29   H     H_    0.359209 0.098905 0.079994 0.262138
H30   H     H_    0.219048 0.206631 0.079103 0.265778
O15   O     O_3   0.422506 0.137735 0.597342 -0.658477
H31   H     H_    0.506347 0.116000 0.613552 0.323128
O16   O     O_3   0.426285 0.863704 0.597872 -0.672373
H32   H     H_    0.509815 0.889085 0.613593 0.322809
C47   C     C_3   0.336214 0.144608 0.418165 -0.782807
H33   H     H_    0.254618 0.111480 0.442034 0.187975
H34   H     H_    0.327911 0.257321 0.415507 0.305968
H35   H     H_    0.319219 0.112634 0.373165 0.213229
C48   C     C_3   0.334589 0.855544 0.419049 -0.839384
H36   H     H_    0.253897 0.889278 0.443319 0.162410
H37   H     H_    0.316562 0.886456 0.374007 0.231422
H38   H     H_    0.326184 0.742881 0.416921 0.284628
O17   O     O_3   0.558070 0.130449 0.404851 -0.656896
H39   H     H_    0.527926 0.117714 0.364709 0.336984
O18   O     O_3   0.555982 0.869145 0.404473 -0.664899
H40   H     H_    0.525025 0.882475 0.364488 0.334140
O19   O     O_3   0.707099 0.394152 0.215407 -0.624739
H41   H     H_    0.691926 0.387791 0.173703 0.335669
O20   O     O_3   0.712853 0.405274 0.328873 -0.642022
H42   H     H_    0.711466 0.430308 0.369654 0.312114
O21   O     O_3   0.283664 0.584570 0.322590 -0.662254
H43   H     H_    0.280771 0.542892 0.361068 0.305280
O22   O     O_3   0.289330 0.602356 0.209273 -0.628756
H44   H     H_    0.304814 0.611444 0.168169 0.332795

loop_
_geom_bond_atom_site_label_1
_geom_bond_atom_site_label_2
_geom_bond_distance
_ccdc_geom_bond_type
C34   H12   1.111955 S    
C46   H28   1.110948 S    
C7    C10   1.399294 A    
C22   C23   1.396781 A    
C1    C36   1.485106 S    
C40   H20   1.110613 S    
C29   C45   1.505497 S    
O15   H31   0.987323 S    
Cu1   Cu2   2.727103 S    
C41   C42   1.586551 S    
Cu1   O7    1.939236 S    
C48   H37   1.108514 S    
C15   C16   1.391161 A    
C47   H33   1.102597 S    
C18   O12   1.349875 S    
O4    C2    1.306423 A    
C17   N2    1.368934 A    
C19   C20   1.397783 A    
O7    C4    1.309836 A    
C23   O22   1.383416 S    
C33   H9    1.113626 S    
C10   H1    1.083779 S    
C41   H21   1.104039 S    
C34   H10   1.114012 S    
C5    N1    1.367937 A    
C7    C8    1.404237 A    
Cu2   N3    2.048653 S    
C31   C36   1.563630 S    
O5    C3    1.306430 A    
C8    C9    1.411425 A    
N1    C6    1.368458 A    
C28   C29   1.401439 A    
C12   C13   1.419859 A    
C41   O15   1.407698 S    
C25   C30   1.400982 A    
C31   H7    1.113712 S    
C17   O11   1.347366 S    
C46   H29   1.110175 S    
C10   C11   1.403101 A    
N2    C24   1.437100 S    
O3    Cu1   1.939639 S    
C25   C26   1.392002 A    
C32   H8    1.113370 S    
C45   H24   1.108844 S    
C5    C9    1.402730 A    
C48   H38   1.083276 S    
H13   C35   1.110476 S    
C43   O17   1.418026 S    
C35   C36   1.557745 S    
H14   C35   1.110870 S    
C13   C14   1.412614 A    
C40   H18   1.108408 S    
C20   C21   1.417984 A    
C39   H17   1.108344 S    
C19   O19   1.383578 S    
C31   C33   1.552381 S    
C4    C27   1.463403 S    
C14   C15   1.404630 A    
C45   H23   1.110402 S    
C44   C48   1.584677 S    
C29   C30   1.411905 A    
O1    C1    1.305666 A    
N2    C18   1.364503 A    
C42   N4    1.508387 S    
O16   H32   0.987331 S    
C41   N3    1.508749 S    
Cu2   O8    1.939215 S    
C32   C36   1.566068 S    
C6    C7    1.404334 A    
C12   C17   1.418558 A    
C5    O9    1.349634 S    
C44   N4    1.526392 S    
C21   C22   1.416412 A    
O8    C4    1.307891 A    
C46   H30   1.110119 S    
C20   O20   1.384128 S    
C31   O13   1.409715 S    
C11   C46   1.511136 S    
C2    C21   1.464458 S    
O3    C2    1.308874 A    
C23   C24   1.415272 A    
O14   H27   0.991613 S    
C25   H4    1.082931 S    
C43   N3    1.525825 S    
O19   H41   0.988596 S    
C32   C34   1.544413 S    
C45   H25   1.110815 S    
C15   H2    1.083211 S    
C14   C18   1.397529 A    
Cu1   O5    1.969483 S    
C26   H5    1.082175 S    
C27   C28   1.402238 A    
O18   H40   0.992876 S    
O1    Cu1   1.968033 S    
Cu2   O6    1.968478 S    
O2    Cu2   1.969037 S    
N1    C30   1.435143 S    
O6    C3    1.304922 A    
O4    Cu2   1.939660 S    
O22   H44   0.988781 S    
C34   C37   1.555287 S    
C33   H11   1.113261 S    
C9    C16   1.402044 A    
C47   H35   1.108579 S    
C48   H36   1.102723 S    
C35   C38   1.539280 S    
C33   C37   1.549724 S    
O2    C1    1.306590 A    
C32   O14   1.409884 S    
O17   H39   0.992804 S    
C39   H19   1.110598 S    
O20   H42   0.987539 S    
H16   C38   1.113139 S    
C3    C37   1.482091 S    
C16   H3    1.083185 S    
C44   O18   1.417519 S    
C8    C13   1.413483 A    
C37   C38   1.554578 S    
C43   C44   1.634430 S    
C26   C27   1.399925 A    
C42   H22   1.104493 S    
C19   C24   1.415856 A    
Cu1   N4    2.048631 S    
C39   C40   1.582409 S    
C47   H34   1.084716 S    
C28   H6    1.084105 S    
C42   O16   1.406969 S    
C6    O10   1.349774 S    
C11   C12   1.428678 A    
C43   C47   1.585406 S    
C22   O21   1.382463 S    
O13   H26   0.991147 S    
O21   H43   0.989005 S    
C40   N4    1.497727 S    
H15   C38   1.112835 S    
C39   N3    1.498428 S    
