data_mof_unit_42270.cif
_audit_creation_date              2012-10-26T19:41:55-0400
_audit_creation_method            fapswitch 2.2
_symmetry_space_group_name_H-M    P1
_symmetry_Int_Tables_number       1
_space_group_crystal_system       triclinic
_cell_length_a                    10.617625
_cell_length_b                    10.758439
_cell_length_c                    9.622025
_cell_angle_alpha                 90.072896
_cell_angle_beta                  89.62784
_cell_angle_gamma                 92.82009
_cell_volume                      1097.76023245

loop_
_atom_site_label
_atom_site_type_symbol
_atom_type_description
_atom_site_fract_x
_atom_site_fract_y
_atom_site_fract_z
_atom_type_partial_charge
C1    C     C_R   0.498754 0.262805 0.499894 0.584551
C2    C     C_R   0.385822 0.060553 0.551038 -0.015325
C3    C     C_R   0.493641 0.128578 0.499484 0.010590
C4    C     C_R   0.259479 0.498375 0.500554 0.526540
C5    C     C_R   0.597334 0.067651 0.445959 0.217049
C6    C     C_R   0.595477 0.939129 0.446167 -0.111496
C7    C     C_R   0.491891 0.870385 0.500209 -0.034790
C8    C     C_R   0.665211 0.668706 0.142435 -0.080678
C9    C     C_R   0.742965 0.755469 0.069604 0.249851
C10   C     C_R   0.741041 0.754977 0.926157 -0.133020
C11   C     C_R   0.664725 0.668470 0.855130 -0.136797
C12   C     C_3   0.960870 0.499331 0.368084 -0.101668
C13   C     C_R   0.581448 0.582446 0.924758 0.147584
C14   C     C_R   0.581625 0.582402 0.074069 0.116588
C15   C     C_R   0.422429 0.421567 0.074261 0.017755
C16   C     C_R   0.497936 0.736994 0.500069 0.517187
C17   C     C_R   0.422456 0.421599 0.926516 0.008414
C18   C     C_R   0.740556 0.500070 0.499596 0.562651
C19   C     C_3   0.039423 0.497361 0.633065 -0.123964
C20   C     C_3   0.951666 0.396001 0.565129 -0.091983
C21   C     C_3   0.877658 0.499161 0.498976 0.057210
C22   C     C_3   0.963147 0.600465 0.566918 -0.146595
C23   C     C_3   0.037099 0.396197 0.434295 -0.098392
C24   C     C_3   0.048588 0.600643 0.436200 -0.146309
C25   C     C_3   0.904555 0.799159 0.221017 -0.112212
C26   C     C_3   0.122474 0.497603 0.502038 0.033026
C27   C     C_R   0.277599 0.120033 0.598513 -0.108956
C28   C     C_R   0.171849 0.050474 0.646470 -0.108855
C29   C     C_R   0.171573 0.921101 0.647772 -0.117014
C30   C     C_R   0.276923 0.860529 0.600774 -0.093662
C31   C     C_R   0.385198 0.929219 0.551885 0.020730
Cl1   Cl    Cl    0.733495 0.149722 0.381810 -0.600826
Cu1   Cu    Cu3+1 0.499990 0.499990 0.640660 0.928209
Cu2   Cu    Cu3+1 0.500010 0.500010 0.359340 0.958514
H1    H     H_    0.908961 0.312202 0.617752 0.148616
H2    H     H_    0.074271 0.496504 0.741580 0.123717
H3    H     H_    0.929396 0.683980 0.620798 0.093797
H4    H     H_    0.093205 0.684142 0.384864 0.105681
H5    H     H_    0.925965 0.500042 0.259588 0.128834
H6    H     H_    0.070597 0.312513 0.380516 0.132278
H7    H     H_    0.272907 0.220246 0.597492 0.114717
H8    H     H_    0.089535 0.097181 0.682022 0.121767
H9    H     H_    0.957862 0.727598 0.164965 0.103316
H10   H     H_    0.861870 0.760535 0.318367 0.098077
H11   H     H_    0.973486 0.875019 0.251375 0.165170
H12   H     H_    0.089128 0.867436 0.684547 0.109620
H13   H     H_    0.272044 0.759938 0.601661 0.136766
H14   H     H_    0.676346 0.892358 0.406297 0.156048
H15   H     H_    0.358703 0.357238 0.129578 0.117306
H16   H     H_    0.672376 0.674045 0.251857 0.175972
H17   H     H_    0.800221 0.822070 0.868613 0.137156
H18   H     H_    0.674336 0.674439 0.745541 0.183509
H19   H     H_    0.358757 0.357285 0.871837 0.113246
N1    N     N_R   0.501210 0.501210 0.147910 -0.237456
N2    N     N_R   0.501250 0.501290 0.852040 -0.234717
O1    O     O_R   0.499990 0.319640 0.618810 -0.500627
O2    O     O_R   0.500000 0.319660 0.381240 -0.462092
O3    O     O_R   0.316850 0.499960 0.618770 -0.520100
O4    O     O_R   0.316860 0.499980 0.381190 -0.506318
O5    O     O_R   0.500000 0.680340 0.618760 -0.520952
O6    O     O_R   0.500010 0.680360 0.381190 -0.518731
O7    O     O_R   0.683140 0.500020 0.618810 -0.517260
O8    O     O_R   0.683150 0.500040 0.381230 -0.507567
O9    O     O_3   0.812332 0.849929 0.136355 -0.533680

loop_
_geom_bond_atom_site_label_1
_geom_bond_atom_site_label_2
_ccdc_geom_bond_type
Cu1   N2    S    
Cu2   O2    S    
C24   H4    S    
Cu2   N1    S    
C6    C7    A    
C1    O2    A    
C9    O9    S    
C9    C10   A    
C17   N2    A    
C4    C26   S    
C19   C20   S    
C20   C23   S    
C29   H12   S    
C3    C5    A    
C5    Cl1   S    
C25   H9    S    
Cu1   O1    S    
Cu1   Cu2   S    
C8    C9    A    
C17   H19   S    
C21   C22   S    
C11   C13   A    
C12   C23   S    
Cu1   O3    S    
C6    H14   S    
C12   H5    S    
C10   H17   S    
C25   H10   S    
C28   H8    S    
C28   C29   A    
C14   N1    A    
C1    O1    A    
C24   C26   S    
C2    C3    A    
Cu1   O5    S    
C19   H2    S    
C15   H15   S    
C2    C27   A    
C16   O5    A    
C5    C6    A    
C22   C24   S    
C18   O8    A    
Cu2   O8    S    
C7    C31   A    
C16   O6    A    
C25   H11   S    
C29   C30   A    
C23   H6    S    
C18   C21   S    
C15   N1    A    
C8    H16   S    
C30   H13   S    
C19   C22   S    
Cu2   O4    S    
C20   C21   S    
C4    O4    A    
C10   C11   A    
C23   C26   S    
C4    O3    A    
C27   C28   A    
C15   C17   A    
C19   C26   S    
C12   C24   S    
C30   C31   A    
C7    C16   S    
C8    C14   A    
C11   H18   S    
C25   O9    S    
C13   N2    A    
C13   C14   A    
C22   H3    S    
Cu1   O7    S    
C12   C21   S    
C20   H1    S    
C27   H7    S    
C18   O7    A    
C2    C31   A    
C1    C3    S    
Cu2   O6    S    
