data_mof_unit_65697.cif
_audit_creation_date              2012-12-10T22:08:35-0500
_audit_creation_method            fapswitch 2.2
_symmetry_space_group_name_H-M    P1
_symmetry_Int_Tables_number       1
_space_group_crystal_system       triclinic
_cell_length_a                    15.976781
_cell_length_b                    16.134571
_cell_length_c                    29.920105
_cell_angle_alpha                 90.288219
_cell_angle_beta                  90.780569
_cell_angle_gamma                 90.142273
_cell_volume                      7711.92158959

loop_
_atom_site_label
_atom_site_type_symbol
_atom_type_description
_atom_site_fract_x
_atom_site_fract_y
_atom_site_fract_z
_atom_type_partial_charge
C1    C     C_R   0.618794 0.998694 0.559408 0.903389
C2    C     C_R   0.081147 0.864897 0.788541 -0.026276
C3    C     C_R   0.926400 0.157443 0.155794 -0.210824
C4    C     C_R   0.074248 0.799118 0.818758 -0.208126
C5    C     C_R   0.133242 0.939274 0.280684 -0.176658
C6    C     C_R   0.906672 0.070198 0.696962 -0.188726
C7    C     C_R   0.197834 0.940317 0.312421 -0.167165
C8    C     C_R   0.842293 0.070373 0.665239 -0.172281
C9    C     C_R   0.872822 0.070809 0.289926 -0.125681
C10   C     C_R   0.086358 0.934733 0.687932 -0.163735
C11   C     C_R   0.810474 0.071216 0.321805 -0.148807
C12   C     C_R   0.381381 0.001296 0.440549 0.903204
C13   C     C_R   0.147914 0.933225 0.655716 -0.137065
C14   C     C_3   0.994650 0.001919 0.248486 -0.091124
C15   C     C_3   0.006015 0.997407 0.751481 -0.095390
C16   C     C_R   0.617405 0.000934 0.440869 0.903713
C17   C     C_R   0.382331 0.999131 0.558996 0.903755
C18   C     C_R   0.073085 0.003490 0.279395 0.112049
C19   C     C_R   0.926887 0.997649 0.721100 0.105016
C20   C     C_R   0.203322 0.004743 0.343556 0.167155
C21   C     C_R   0.798055 0.997633 0.656043 0.169374
C22   C     C_R   0.921792 0.999167 0.282117 0.089144
C23   C     C_R   0.926591 0.810178 0.178728 -0.158019
C24   C     C_R   0.076583 0.003714 0.716900 0.095456
C25   C     C_R   0.797449 0.001476 0.347873 0.143455
C26   C     C_R   0.199065 0.001954 0.650219 0.129742
C27   C     C_R   0.990712 0.079113 0.217367 0.017042
C28   C     C_R   0.010372 0.918873 0.781481 0.019642
C29   C     C_R   0.994558 0.211024 0.155667 0.145303
C30   C     C_R   0.002083 0.787587 0.843405 0.140975
C31   C     C_R   0.994651 0.927926 0.215678 0.104434
C32   C     C_R   0.005439 0.068296 0.786286 0.130621
C33   C     C_R   0.992304 0.805220 0.148773 0.178241
C34   C     C_R   0.078029 0.142735 0.846624 -0.168556
C35   C     C_R   0.006814 0.190188 0.853734 0.173501
C36   C     C_1   0.733916 0.001855 0.380629 -0.056791
C37   C     C_1   0.263393 0.999994 0.617906 -0.053988
C38   C     C_1   0.680664 0.001444 0.408244 -0.169234
C39   C     C_1   0.317777 0.999137 0.590916 -0.166478
C40   C     C_R   0.080910 0.068336 0.311268 -0.193694
C41   C     C_R   0.881994 0.924235 0.710477 -0.200212
C42   C     C_1   0.266379 0.003413 0.377604 -0.069506
C43   C     C_1   0.734807 0.997263 0.621987 -0.072029
C44   C     C_1   0.318778 0.002453 0.406519 -0.169555
C45   C     C_R   0.059665 0.922344 0.184232 -0.184626
C46   C     C_1   0.681979 0.997594 0.593230 -0.170153
C47   C     C_1   0.998189 0.274675 0.122996 -0.053934
C48   C     C_1   0.999927 0.724668 0.876563 -0.051810
C49   C     C_1   0.999944 0.326993 0.094874 -0.169651
C50   C     C_1   0.999457 0.672792 0.904963 -0.167450
C51   C     C_1   0.991293 0.742539 0.115221 -0.067615
C52   C     C_1   0.008545 0.254587 0.886374 -0.066060
C53   C     C_1   0.991364 0.688892 0.087554 -0.164942
C54   C     C_1   0.008675 0.309669 0.913241 -0.163517
C55   C     C_R   0.993754 0.623863 0.055654 0.901909
C56   C     C_R   0.932377 0.114003 0.796131 -0.203372
C57   C     C_R   0.006257 0.376003 0.944404 0.903458
C58   C     C_R   0.999754 0.388315 0.061135 0.900231
C59   C     C_R   0.000175 0.611741 0.938878 0.901786
C60   C     C_R   0.145481 0.069056 0.342786 -0.175902
C61   C     C_R   0.817573 0.924708 0.678652 -0.169767
C62   C     C_R   0.910624 0.930339 0.311477 -0.000165
C63   C     C_R   0.123888 0.076865 0.707238 0.037402
C64   C     C_R   0.847531 0.931795 0.343165 -0.209758
C65   C     C_R   0.186366 0.073776 0.675087 -0.203347
C66   C     C_R   0.059919 0.134374 0.215127 -0.212256
C67   C     C_R   0.058853 0.861069 0.151401 -0.157050
C68   C     C_R   0.938561 0.904765 0.807857 -0.179609
C69   C     C_R   0.061057 0.199769 0.185211 -0.174452
C70   C     C_R   0.934330 0.840121 0.838014 -0.173856
C71   C     C_R   0.927059 0.871399 0.211558 -0.138851
C72   C     C_R   0.076915 0.081595 0.813736 -0.151340
C73   C     C_1   0.963181 0.857532 0.310922 0.151782
C74   C     C_1   0.106792 0.158059 0.725402 0.132164
C75   C     C_2   0.851846 0.033869 0.179112 0.888154
C76   C     C_2   0.164537 0.872312 0.767662 0.889507
C77   C     C_R   0.933734 0.175288 0.829011 -0.160841
C78   C     C_R   0.923200 0.091470 0.185823 0.001519
H1    H     H_    0.149386 0.119064 0.367050 0.143155
H2    H     H_    0.941634 0.126896 0.702371 0.153446
H3    H     H_    0.882436 0.127696 0.271800 0.144739
H4    H     H_    0.047870 0.879917 0.691558 0.146119
H5    H     H_    0.838108 0.878830 0.364779 0.148020
H6    H     H_    0.223950 0.128394 0.668443 0.147022
H7    H     H_    0.115298 0.240185 0.184233 0.145007
H8    H     H_    0.878464 0.832019 0.857689 0.146632
H9    H     H_    0.874126 0.767621 0.176203 0.139299
H10   H     H_    0.134510 0.153152 0.866345 0.146729
H11   H     H_    0.109710 0.857711 0.127869 0.141249
H12   H     H_    0.784465 0.867637 0.670835 0.143193
H13   H     H_    0.877521 0.210656 0.835379 0.141681
H14   H     H_    0.876052 0.166072 0.131539 0.158300
H15   H     H_    0.127044 0.758097 0.824502 0.162998
H16   H     H_    0.242279 0.889703 0.313393 0.143907
H17   H     H_    0.828176 0.126872 0.647242 0.143638
H18   H     H_    0.772998 0.126417 0.326449 0.140921
H19   H     H_    0.155933 0.878158 0.635348 0.152316
H20   H     H_    0.036092 0.118513 0.311868 0.147016
H21   H     H_    0.898302 0.865258 0.725111 0.153397
H22   H     H_    0.791137 0.955904 0.136822 0.344652
H23   H     H_    0.116266 0.126376 0.234835 0.163841
H24   H     H_    0.267816 0.940829 0.756526 0.352647
H25   H     H_    0.884620 0.945028 0.805179 0.155386
H26   H     H_    0.872360 0.875672 0.232189 0.163491
H27   H     H_    0.132729 0.045817 0.809275 0.204917
H28   H     H_    0.111093 0.966209 0.185095 0.150412
H29   H     H_    0.873184 0.102008 0.779473 0.149216
H30   H     H_    0.129328 0.885807 0.258970 0.158844
N1    N     N_1   0.004711 0.798854 0.310686 -0.201979
N2    N     N_1   0.093458 0.223585 0.739511 -0.188194
O1    O     O_R   0.591150 0.068800 0.545430 -0.615464
O2    O     O_R   0.934420 0.403170 0.956590 -0.615617
O3    O     O_R   0.928990 0.412290 0.044840 -0.613478
O4    O     O_R   0.071010 0.587710 0.955160 -0.612211
O5    O     O_R   0.069930 0.417270 0.047240 -0.615532
O6    O     O_R   0.930070 0.582730 0.952760 -0.615029
O7    O     O_R   0.924640 0.591850 0.041010 -0.614563
O8    O     O_R   0.075360 0.408150 0.958990 -0.613604
O9    O     O_2   0.799430 0.024840 0.208002 -0.642767
O10   O     O_R   0.842312 0.993174 0.137992 -0.789857
O11   O     O_2   0.193505 0.812582 0.747884 -0.623004
O12   O     O_R   0.408850 0.931200 0.454570 -0.614411
O13   O     O_R   0.212188 0.944522 0.772309 -0.832866
O14   O     O_R   0.588750 0.931200 0.454570 -0.615882
O15   O     O_R   0.411250 0.068800 0.545430 -0.616662
O16   O     O_R   0.590220 0.070350 0.455860 -0.616534
O17   O     O_R   0.409780 0.929650 0.544140 -0.613399
O18   O     O_R   0.589680 0.929650 0.544140 -0.614826
O19   O     O_R   0.410320 0.070350 0.455860 -0.616240
O20   O     O_R   0.065580 0.596830 0.043410 -0.616157
Zn1   Zn    Zn3+2 0.500990 0.093570 0.500870 0.972819
Zn2   Zn    Zn3+2 0.499010 0.906430 0.499130 0.977209
Zn3   Zn    Zn3+2 0.094790 0.503330 0.001610 0.977073
Zn4   Zn    Zn3+2 0.905210 0.496670 0.998390 0.976105

loop_
_geom_bond_atom_site_label_1
_geom_bond_atom_site_label_2
_ccdc_geom_bond_type
C11   H18   S    
C71   H26   S    
C63   C65   A    
C60   H1    S    
C40   C60   A    
C14   C18   S    
C68   H25   S    
C41   C61   A    
C14   C31   S    
C27   C78   A    
C69   H7    S    
C15   C32   S    
C47   C49   T    
C45   H28   S    
C15   C19   S    
C6    C19   A    
C43   C46   T    
C29   C47   S    
C50   C59   S    
C30   C48   S    
C28   C68   A    
C40   H20   S    
C9    C22   A    
C66   C69   A    
O6    Zn4   S    
C11   C25   A    
C67   H11   S    
O14   Zn2   S    
C34   C35   A    
C17   C39   S    
C3    C29   A    
C18   C40   A    
O17   Zn2   S    
C62   C64   A    
C21   C43   S    
C56   H29   S    
C59   O6    A    
C23   C33   A    
C45   C67   A    
C58   O3    A    
C41   H21   S    
C62   C73   S    
H22   O10   S    
C14   C27   S    
C20   C60   A    
C21   C61   A    
C31   C71   A    
C23   H9    S    
C76   O13   S    
C66   H23   S    
C8    H17   S    
C42   C44   T    
O7    Zn4   S    
O18   Zn2   S    
O12   Zn2   S    
C30   C70   A    
C52   C54   T    
C29   C69   A    
C53   C55   S    
C12   O19   A    
C23   C71   A    
C75   O9    D    
C32   C72   A    
C5    C7    A    
C17   O17   A    
C65   H6    S    
C6    C8    A    
C5    C18   A    
O5    Zn3   S    
C10   C24   A    
C10   H4    S    
C49   C58   S    
C3    H14   S    
C51   C53   T    
C25   C64   A    
C2    C4    A    
C64   H5    S    
C22   C62   A    
O15   Zn1   S    
C6    H2    S    
C55   O20   A    
C8    C21   A    
C34   H10   S    
C9    C11   A    
O8    Zn3   S    
C1    O18   A    
O1    Zn1   S    
C15   C24   S    
C24   C63   A    
O3    Zn4   S    
C58   O5    A    
C13   C26   A    
O20   Zn3   S    
C76   O11   D    
H24   O13   S    
C70   H8    S    
C34   C72   A    
C2    C76   S    
C61   H12   S    
C33   C67   A    
C55   O7    A    
C7    H16   S    
C77   H13   S    
C26   C65   A    
C75   O10   S    
O2    Zn4   S    
C10   C13   A    
C74   N2    T    
C20   C42   S    
C26   C37   S    
C73   N1    T    
C63   C74   S    
C33   C51   S    
C14   C22   S    
C36   C38   T    
C16   O14   A    
C37   C39   T    
C27   C66   A    
C1    O1    A    
C17   O15   A    
C15   C28   S    
O16   Zn1   S    
C59   O4    A    
C5    H30   S    
C48   C50   T    
O4    Zn3   S    
C35   C77   A    
C13   H19   S    
C1    C46   S    
C75   C78   S    
C56   C77   A    
C25   C36   S    
C4    H15   S    
C57   O2    A    
C12   O12   A    
C72   H27   S    
C12   C44   S    
C7    C20   A    
C31   C45   A    
C9    H3    S    
C35   C52   S    
C68   C70   A    
C2    C28   A    
C3    C78   A    
C16   O16   A    
C32   C56   A    
C4    C30   A    
C19   C41   A    
C16   C38   S    
C57   O8    A    
O19   Zn1   S    
C54   C57   S    
