data_mof_unit_20093.cif
_audit_creation_date              2012-10-26T21:10:49-0400
_audit_creation_method            fapswitch 2.2
_symmetry_space_group_name_H-M    P1
_symmetry_Int_Tables_number       1
_space_group_crystal_system       triclinic
_cell_length_a                    10.841308
_cell_length_b                    14.677494
_cell_length_c                    14.752073
_cell_angle_alpha                 65.129129
_cell_angle_beta                  103.276049
_cell_angle_gamma                 102.726763
_cell_volume                      2052.33250475

loop_
_atom_site_label
_atom_site_type_symbol
_atom_type_description
_atom_site_fract_x
_atom_site_fract_y
_atom_site_fract_z
_atom_type_partial_charge
C1    C     C_R   0.479700 0.119761 0.312389 0.540501
C2    C     C_R   0.596075 0.785076 0.972046 -0.135339
C3    C     C_R   0.463736 0.149472 0.130490 -0.144005
C4    C     C_R   0.578273 0.851136 0.870900 -0.143701
C5    C     C_R   0.498914 0.292295 0.179405 -0.129984
C6    C     C_R   0.526929 0.708008 0.821010 -0.133558
C7    C     C_R   0.513085 0.360866 0.080318 0.032571
C8    C     C_R   0.548939 0.640026 0.922216 0.031779
C9    C     C_R   0.497100 0.321077 0.005202 0.053837
C10   C     C_R   0.580262 0.680033 0.998220 0.053296
C11   C     C_R   0.540391 0.467617 0.053669 0.031766
C12   C     C_R   0.522797 0.880266 0.687606 0.540253
C13   C     C_R   0.536706 0.533446 0.949916 0.033567
C14   C     C_R   0.523667 0.490691 0.877663 -0.134163
C15   C     C_R   0.573887 0.510698 0.127264 -0.137352
C16   C     C_R   0.262971 0.999156 0.502614 0.545895
C17   C     C_R   0.737077 0.000733 0.497483 0.545631
C18   C     C_R   0.505855 0.386500 0.905357 -0.131952
C19   C     C_R   0.594991 0.614939 0.099593 -0.129692
C20   C     C_R   0.704408 0.280287 0.674510 -0.143751
C21   C     C_R   0.293091 0.718598 0.327126 -0.144220
C22   C     C_R   0.675381 0.200613 0.642149 0.048497
C23   C     C_R   0.870463 0.000600 0.495611 0.001230
C24   C     C_R   0.324050 0.799163 0.358235 0.048096
C25   C     C_R   0.520142 0.285992 0.508080 0.047275
C26   C     C_R   0.478396 0.713291 0.492890 0.049919
C27   C     C_R   0.546327 0.370494 0.536269 0.008673
C28   C     C_R   0.450165 0.627867 0.466012 0.012124
C29   C     C_R   0.639690 0.365038 0.622422 0.052617
C30   C     C_R   0.356463 0.633188 0.380084 0.052884
C31   C     C_R   0.482525 0.458592 0.483652 0.027265
C32   C     C_R   0.512698 0.539164 0.519416 0.029582
C33   C     C_R   0.604618 0.528465 0.606993 -0.123744
C34   C     C_R   0.129636 0.998927 0.504803 0.000620
C35   C     C_R   0.389952 0.468998 0.396471 -0.122751
C36   C     C_R   0.666959 0.443414 0.656857 -0.102693
C37   C     C_R   0.327732 0.554113 0.346573 -0.100967
C38   C     C_R   0.356271 0.083068 0.763803 -0.108440
C39   C     C_R   0.645613 0.901449 0.243148 -0.110941
C40   C     C_R   0.268621 0.037233 0.704571 -0.053731
C41   C     C_R   0.731015 0.952146 0.299062 -0.054788
C42   C     C_R   0.184683 0.094371 0.622484 0.018251
C43   C     C_R   0.816115 0.899148 0.383088 0.019062
C44   C     C_R   0.186416 0.196920 0.603121 -0.072921
C45   C     C_R   0.907542 0.951506 0.443649 -0.033815
C46   C     C_R   0.817550 0.795797 0.407960 -0.072577
C47   C     C_R   0.272940 0.242789 0.663755 0.027851
C48   C     C_R   0.733222 0.745008 0.350907 0.025660
C49   C     C_R   0.358987 0.185422 0.743237 -0.134474
C50   C     C_R   0.646027 0.798304 0.269220 -0.139162
C51   C     C_R   0.963212 0.047964 0.551320 -0.147460
C52   C     C_R   0.037014 0.951583 0.449172 -0.148352
C53   C     C_2   0.274244 0.350060 0.645330 0.221813
C54   C     C_2   0.735472 0.636738 0.375620 0.219010
C55   C     C_R   0.092672 0.046888 0.557819 -0.033280
C56   C     C_R   0.478071 0.187478 0.205411 -0.004155
C57   C     C_R   0.542273 0.812710 0.794930 -0.004559
C58   C     C_R   0.472634 0.215926 0.030847 -0.134126
Cu1   Cu    Cu3+1 0.466270 0.918260 0.475690 0.939639
Cu2   Cu    Cu3+1 0.533730 0.081740 0.524310 0.939101
H1    H     H_    0.427883 0.219653 0.789708 0.080162
H2    H     H_    0.447252 0.281568 0.446315 0.118137
H3    H     H_    0.276420 0.865730 0.316729 0.121658
H4    H     H_    0.723754 0.134392 0.683184 0.120798
H5    H     H_    0.776115 0.275224 0.740497 0.096949
H6    H     H_    0.220968 0.723482 0.261409 0.096491
H7    H     H_    0.630911 0.584736 0.639421 0.087511
H8    H     H_    0.363122 0.412543 0.364269 0.090578
H9    H     H_    0.422038 0.039136 0.826007 0.099154
H10   H     H_    0.579297 0.942166 0.179088 0.097334
H11   H     H_    0.267257 0.957674 0.721709 0.107626
H12   H     H_    0.578802 0.760352 0.225165 0.085840
H13   H     H_    0.730074 0.032249 0.277622 0.109637
H14   H     H_    0.120765 0.240794 0.540482 0.154445
H15   H     H_    0.884194 0.755132 0.472104 0.155182
H16   H     H_    0.934749 0.083402 0.593236 0.134882
H17   H     H_    0.065514 0.915896 0.407496 0.135595
H18   H     H_    0.497745 0.357037 0.847860 0.090271
H19   H     H_    0.621204 0.644908 0.158025 0.092998
H20   H     H_    0.494204 0.680908 0.760989 0.123459
H21   H     H_    0.501709 0.318679 0.237846 0.117506
H22   H     H_    0.591680 0.931962 0.852291 0.118127
H23   H     H_    0.461063 0.185037 0.973913 0.099099
H24   H     H_    0.446509 0.068636 0.148942 0.118256
H25   H     H_    0.343568 0.384757 0.691519 0.099058
H26   H     H_    0.664879 0.597076 0.334736 0.094797
H27   H     H_    0.621698 0.816075 0.029915 0.103801
H28   H     H_    0.531028 0.535828 0.799167 0.098085
H29   H     H_    0.588772 0.466050 0.207399 0.107869
H30   H     H_    0.737203 0.438838 0.723560 0.114855
H31   H     H_    0.256934 0.558454 0.280215 0.113402
H32   H     H_    0.551772 0.717809 0.554365 0.118047
N1    N     N_R   0.584450 0.204570 0.560790 -0.230239
N2    N     N_R   0.415550 0.795430 0.439210 -0.230285
O1    O     O_R   0.455540 0.022090 0.338120 -0.511954
O2    O     O_2   0.815609 0.590223 0.442217 -0.490888
O3    O     O_R   0.544460 0.977910 0.661880 -0.511815
O4    O     O_R   0.512510 0.160150 0.379180 -0.510961
O5    O     O_R   0.487490 0.839850 0.620820 -0.510910
O6    O     O_R   0.291160 0.930970 0.479480 -0.506025
O7    O     O_R   0.708840 0.069030 0.520520 -0.506268
O8    O     O_R   0.348130 0.069020 0.520540 -0.493987
O9    O     O_R   0.651870 0.930980 0.479460 -0.494778
O10   O     O_2   0.198267 0.401135 0.578394 -0.491110

loop_
_geom_bond_atom_site_label_1
_geom_bond_atom_site_label_2
_ccdc_geom_bond_type
C26   N2    A    
C25   N1    A    
C8    C13   A    
C23   C45   A    
C40   H11   S    
C21   H6    S    
C27   C29   A    
Cu1   O5    S    
C14   C18   A    
C5    C56   A    
C39   C41   A    
C38   C49   A    
C7    C11   A    
C29   C36   A    
C17   C23   S    
Cu1   O1    S    
C35   C37   A    
C1    C56   S    
Cu2   O4    S    
C53   O10   D    
C26   H32   S    
C33   C36   A    
C9    C58   A    
C17   O7    A    
C12   O5    A    
C50   H12   S    
C16   C34   S    
C15   C19   A    
C6    H20   S    
C4    C57   A    
Cu1   N2    S    
C54   O2    D    
C44   C47   A    
C1    O1    A    
C47   C53   S    
Cu2   N1    S    
C40   C42   A    
C38   H9    S    
Cu1   Cu2   S    
C13   C14   A    
Cu1   O6    S    
C41   C43   A    
C6    C57   A    
C42   C44   A    
Cu2   O8    S    
C46   H15   S    
C20   C29   A    
C46   C48   A    
C49   H1    S    
C37   H31   S    
C27   C31   A    
C20   H5    S    
C28   C32   A    
C51   H16   S    
C47   C49   A    
Cu2   O3    S    
C5    C7    A    
C16   O6    A    
C6    C8    A    
C45   C52   A    
C22   H4    S    
C30   C37   A    
C48   C54   S    
C2    C4    A    
C24   N2    A    
C42   C55   S    
C15   H29   S    
C5    H21   S    
C3    C56   A    
C23   C51   A    
C31   C32   A    
C10   C19   A    
C18   H18   S    
C2    H27   S    
C19   H19   S    
C43   C45   S    
C12   O3    A    
C12   C57   S    
C16   O8    A    
C20   C22   A    
C24   H3    S    
C11   C15   A    
C22   N1    A    
C31   C35   A    
Cu2   O7    S    
C2    C10   A    
C33   H7    S    
C54   H26   S    
C36   H30   S    
C7    C9    A    
C34   C52   A    
C44   H14   S    
C1    O4    A    
C25   C27   A    
C21   C30   A    
C26   C28   A    
Cu1   O9    S    
C32   C33   A    
C28   C30   A    
C17   O9    A    
C14   H28   S    
C58   H23   S    
C38   C40   A    
C11   C13   A    
C35   H8    S    
C48   C50   A    
C39   H10   S    
C51   C55   A    
C25   H2    S    
C43   C46   A    
C41   H13   S    
C3    C58   A    
C9    C18   A    
C34   C55   A    
C39   C50   A    
C4    H22   S    
C8    C10   A    
C21   C24   A    
C3    H24   S    
C53   H25   S    
C52   H17   S    
