data_mof_unit_58753.cif
_audit_creation_date              2012-12-11T15:52:30-0500
_audit_creation_method            fapswitch 2.2
_symmetry_space_group_name_H-M    P1
_symmetry_Int_Tables_number       1
_space_group_crystal_system       triclinic
_cell_length_a                    7.000919
_cell_length_b                    14.533401
_cell_length_c                    16.074479
_cell_angle_alpha                 89.830384
_cell_angle_beta                  89.847193
_cell_angle_gamma                 89.981842
_cell_volume                      1635.51957675

loop_
_atom_site_label
_atom_site_type_symbol
_atom_type_description
_atom_site_fract_x
_atom_site_fract_y
_atom_site_fract_z
_atom_type_partial_charge
O1    O     O_R   0.494400 0.415640 0.412830 -0.545206
O2    O     O_R   0.823920 0.405510 0.586560 -0.537584
O3    O     O_R   0.994250 0.584360 0.587170 -0.540025
C1    C     C_R   0.654893 0.383771 0.615496 0.767401
O4    O     O_R   0.824110 0.404610 0.413450 -0.549180
O5    O     O_R   0.994440 0.583460 0.412820 -0.545668
C2    C     C_R   0.655234 0.382345 0.384412 0.657996
O6    O     O_R   0.494210 0.416540 0.587180 -0.524010
O7    O     O_3   0.660810 0.558680 0.500000 -0.379278
V1    V     V_3+5 0.935650 0.489110 0.500000 1.437922
O8    O     O_R   0.324150 0.594490 0.413440 -0.547445
C3    C     C_R   0.155464 0.615950 0.384261 0.662466
O9    O     O_R   0.323970 0.595390 0.586550 -0.507177
C4    C     C_R   0.156110 0.618469 0.614683 0.820881
V2    V     V_3+5 0.435660 0.510890 0.500000 1.460996
O10   O     O_3   0.160630 0.441320 0.500000 -0.377154
C5    C     C_3   0.001141 0.651407 0.754584 0.193649
H1    H     H_    0.859791 0.649921 0.723871 0.199182
C6    C     C_3   0.987371 0.717841 0.830935 0.129751
H2    H     H_    0.009999 0.680481 0.889745 0.174918
H3    H     H_    0.929915 0.772134 0.632551 0.157864
H4    H     H_    0.912347 0.867061 0.739305 0.204691
C7    C     C_3   0.074928 0.780738 0.658902 -0.559258
C8    C     C_3   0.357916 0.703763 0.728532 0.509507
C9    C     C_3   0.151656 0.686103 0.687870 -0.099188
C10   C     C_3   0.124371 0.800534 0.818893 -0.105697
C11   C     C_3   0.066291 0.849337 0.733626 -0.009784
C12   C     C_3   0.326173 0.751751 0.816651 -0.140681
H5    H     H_    0.429005 0.808630 0.822577 0.203775
H6    H     H_    0.159124 0.807773 0.605912 0.171225
C13   C     C_R   0.989296 0.730986 0.183454 0.142610
C14   C     C_R   0.998383 0.673046 0.254020 -0.143403
H7    H     H_    0.894034 0.618560 0.261354 0.121364
C15   C     C_R   0.144866 0.681304 0.313070 -0.071728
C16   C     C_R   0.282127 0.750363 0.302181 -0.170996
H8    H     H_    0.397352 0.758033 0.346467 0.120691
C17   C     C_R   0.268513 0.812433 0.235744 -0.179701
H9    H     H_    0.373198 0.867129 0.231406 0.126007
C18   C     C_R   0.120952 0.805709 0.176518 -0.076048
C19   C     C_R   0.810216 0.284392 0.724276 -0.101056
H10   H     H_    0.949437 0.309692 0.705659 0.141007
C20   C     C_R   0.799139 0.220316 0.789178 -0.144640
H11   H     H_    0.930241 0.198695 0.818937 0.127007
C21   C     C_R   0.621632 0.185008 0.815376 -0.052949
C22   C     C_R   0.455013 0.217520 0.776537 -0.146382
H12   H     H_    0.315798 0.193017 0.795855 0.120928
C23   C     C_R   0.465860 0.281989 0.711940 -0.111900
H13   H     H_    0.334364 0.304977 0.683267 0.130829
C24   C     C_R   0.643771 0.315706 0.684483 -0.044030
C25   C     C_R   0.810352 0.274895 0.280276 -0.157987
H14   H     H_    0.949925 0.293768 0.303523 0.115544
C26   C     C_R   0.799096 0.211153 0.214895 -0.145389
H15   H     H_    0.930684 0.182987 0.190220 0.119942
C27   C     C_R   0.621224 0.184081 0.181964 -0.045433
C28   C     C_R   0.454994 0.222977 0.216629 -0.152202
H16   H     H_    0.315428 0.204123 0.193363 0.117977
C29   C     C_R   0.466251 0.286720 0.282015 -0.149013
H17   H     H_    0.334671 0.314908 0.306679 0.117895
C30   C     C_R   0.644115 0.313693 0.315019 -0.043328
O11   O     O_R   0.771300 0.080930 0.910090 -0.544682
O12   O     O_R   0.441270 0.092800 0.083770 -0.542855
O13   O     O_R   0.271080 0.913920 0.084380 -0.541587
C31   C     C_R   0.610130 0.115217 0.112738 0.680736
O14   O     O_R   0.441580 0.091910 0.910670 -0.540485
O15   O     O_R   0.271390 0.913020 0.910040 -0.549217
C32   C     C_R   0.610707 0.114802 0.882646 0.698848
O16   O     O_R   0.770990 0.081830 0.084440 -0.540454
O17   O     O_3   0.604750 0.938760 0.997250 -0.361240
V3    V     V_3+5 0.329850 0.008280 0.997210 1.403504
O18   O     O_R   0.941680 0.901940 0.910610 -0.502638
C33   C     C_R   0.111755 0.873474 0.887783 0.773981
O19   O     O_R   0.941370 0.902830 0.083720 -0.546836
C34   C     C_R   0.110187 0.877800 0.110142 0.659960
V4    V     V_3+5 0.829860 0.986420 0.997150 1.439046
O20   O     O_3   0.104830 0.056030 0.997180 -0.374693
C35   C     C_3   0.169293 0.942806 0.714882 -0.374150
C36   C     C_3   0.045030 0.026811 0.733048 -0.778342
H18   H     H_    0.906759 0.022348 0.699561 0.221359
H19   H     H_    0.018642 0.032726 0.800652 0.245531
H20   H     H_    0.119859 0.089956 0.711720 0.206209
H21   H     H_    0.302516 0.949470 0.751642 0.182822
H22   H     H_    0.209886 0.948353 0.648225 0.193190
C37   C     C_3   0.842617 0.707365 0.117002 -0.391249
C38   C     C_3   0.875598 0.611424 0.080769 -0.723869
H23   H     H_    0.024097 0.605053 0.056997 0.236611
H24   H     H_    0.849238 0.557179 0.128141 0.219176
H25   H     H_    0.775640 0.599973 0.028237 0.249626
H26   H     H_    0.696986 0.710828 0.144534 0.184792
H27   H     H_    0.845576 0.754648 0.063275 0.222251
Cl1   Cl    Cl    0.038595 0.534328 0.786524 -0.618725
Cl2   Cl    Cl    0.758699 0.754631 0.852173 -0.790566
C39   C     C_3   0.493666 0.770305 0.676361 -0.383701
C40   C     C_3   0.544943 0.749470 0.586326 -0.701185
H28   H     H_    0.418831 0.745845 0.545142 0.206397
H29   H     H_    0.635598 0.805975 0.561442 0.173818
H30   H     H_    0.631940 0.686487 0.584851 0.277203
H31   H     H_    0.442866 0.841295 0.677002 0.157642
H32   H     H_    0.632117 0.774800 0.707526 0.225454
Cl3   Cl    Cl    0.487210 0.595712 0.739654 -0.610152
C41   C     C_3   0.363370 0.682615 0.893190 -0.235008
C42   C     C_3   0.349385 0.723739 0.980172 -0.754475
H33   H     H_    0.448118 0.782638 0.986193 0.285057
H34   H     H_    0.201071 0.744353 0.994714 0.190223
H35   H     H_    0.391749 0.671213 0.026971 0.210476
H36   H     H_    0.274414 0.620205 0.890857 0.222676
H37   H     H_    0.503715 0.649087 0.891010 0.289012

loop_
_geom_bond_atom_site_label_1
_geom_bond_atom_site_label_2
_ccdc_geom_bond_type
C28   H16   S    
C40   H28   S    
C8    Cl3   S    
C21   C32   S    
C16   H8    S    
C38   H25   S    
C1    O6    A    
C39   H32   S    
C23   C24   A    
C36   H18   S    
C21   C22   A    
C10   C11   S    
C42   H33   S    
C25   C30   A    
C12   H5    S    
C16   C17   A    
C38   H24   S    
O5    C3    A    
C29   C30   A    
C27   C31   S    
O17   V4    S    
C19   C24   A    
C13   C37   S    
C15   C16   A    
C22   C23   A    
O12   C31   A    
C6    C10   S    
C39   C40   S    
O8    V2    S    
C37   C38   S    
O17   V3    S    
O18   V4    S    
C25   C26   A    
O13   C34   A    
O18   C33   A    
O1    V2    S    
C7    C11   S    
O7    V1    S    
C12   C41   S    
C19   C20   A    
C37   H26   S    
C8    C9    S    
O11   C32   A    
C42   H34   S    
O9    C4    A    
C10   C33   S    
C20   C21   A    
C8    C39   S    
C2    C30   S    
C26   C27   A    
C39   H31   S    
C25   H14   S    
C36   H19   S    
C37   H27   S    
C31   O16   A    
V4    O20   S    
C7    H6    S    
C38   H23   S    
O19   V4    S    
C35   H22   S    
O4    C2    A    
C22   H12   S    
O13   V3    S    
C14   C15   A    
O2    C1    A    
C17   H9    S    
C23   H13   S    
O9    V2    S    
C5    H1    S    
C41   H36   S    
O16   V4    S    
O14   V3    S    
C35   C36   S    
O3    C4    A    
C19   H10   S    
C40   H30   S    
H4    C11   S    
C28   C29   A    
C20   H11   S    
C3    C15   S    
C11   C35   S    
O2    V1    S    
C26   H15   S    
C36   H20   S    
O12   V3    S    
C27   C28   A    
O1    C2    A    
C10   C12   S    
C13   C14   A    
C5    Cl1   S    
C8    C12   S    
O19   C34   A    
C35   H21   S    
O5    V1    S    
O8    C3    A    
O6    V2    S    
C41   H37   S    
C1    C24   S    
C5    C9    S    
C14   H7    S    
C6    H2    S    
H3    C7    S    
O7    V2    S    
O4    V1    S    
C17   C18   A    
O3    V1    S    
O15   C33   A    
C29   H17   S    
O15   V3    S    
O11   V4    S    
C41   C42   S    
C5    C6    S    
C13   C18   A    
V3    O20   S    
C18   C34   S    
C4    C9    S    
C6    Cl2   S    
C7    C9    S    
C40   H29   S    
V1    O10   S    
C42   H35   S    
V2    O10   S    
O14   C32   A    
