data_mof_unit_26533.cif
_audit_creation_date              2012-12-11T17:43:20-0500
_audit_creation_method            fapswitch 2.2
_symmetry_space_group_name_H-M    P1
_symmetry_Int_Tables_number       1
_space_group_crystal_system       triclinic
_cell_length_a                    15.021298
_cell_length_b                    15.226636
_cell_length_c                    17.188621
_cell_angle_alpha                 108.844553
_cell_angle_beta                  105.524763
_cell_angle_gamma                 109.144281
_cell_volume                      3193.38246666

loop_
_atom_site_label
_atom_site_type_symbol
_atom_type_description
_atom_site_fract_x
_atom_site_fract_y
_atom_site_fract_z
_atom_type_partial_charge
C1    C     C_R   0.085534 0.286536 0.073389 0.422138
C2    C     C_R   0.911361 0.721047 0.948167 0.454258
C3    C     C_R   0.030733 0.579630 0.748416 -0.006662
C4    C     C_R   0.972558 0.520065 0.274764 -0.030318
C5    C     C_R   0.754715 0.197138 0.729863 0.069254
C6    C     C_R   0.302577 0.799641 0.266658 0.043545
C7    C     C_R   0.281302 0.457309 0.960643 0.136799
C8    C     C_R   0.646799 0.447621 0.954885 0.057857
C9    C     C_R   0.981838 0.933061 0.935230 -0.059729
C10   C     C_R   0.016783 0.078994 0.103743 -0.071533
C11   C     C_R   0.997329 0.913076 0.009728 0.081350
C12   C     C_R   0.999481 0.098412 0.028559 0.059220
C13   C     C_R   0.015217 0.984912 0.094686 0.062990
C14   C     C_R   0.981260 0.025768 0.943137 0.057909
C15   C     C_R   0.045324 0.129705 0.865879 -0.197277
C16   C     C_R   0.944475 0.883462 0.170624 -0.184298
C17   C     C_R   0.945941 0.081956 0.709725 -0.185804
C18   C     C_R   0.053070 0.902401 0.313191 -0.201139
C19   C     C_R   0.510336 0.738591 0.240253 -0.152173
C20   C     C_R   0.495932 0.214447 0.680158 -0.167822
C21   C     C_R   0.494246 0.674696 0.153159 0.065525
C22   C     C_R   0.478857 0.252508 0.757799 0.055799
C23   C     C_R   0.938206 0.518287 0.747392 -0.174618
C24   C     C_R   0.063747 0.542599 0.263337 -0.164263
C25   C     C_R   0.467735 0.568428 0.126938 0.130302
C26   C     C_R   0.469872 0.346160 0.783783 0.142608
C27   C     C_R   0.457025 0.528052 0.188628 -0.053399
C28   C     C_R   0.476621 0.398898 0.730291 -0.084678
C29   C     C_R   0.470503 0.592010 0.274544 -0.019108
C30   C     C_R   0.494121 0.360417 0.653255 -0.059313
C31   C     C_R   0.497787 0.697356 0.300543 -0.126134
C32   C     C_R   0.504684 0.268845 0.628701 -0.115067
C33   C     C_R   0.551374 0.496255 0.036984 0.480184
C34   C     C_R   0.373132 0.400165 0.872811 0.445269
C35   C     C_R   0.550847 0.442917 0.953555 -0.139129
C36   C     C_R   0.372709 0.451086 0.956742 -0.137794
C37   C     C_R   0.463687 0.395748 0.870977 -0.147111
C38   C     C_R   0.462200 0.501453 0.038914 -0.167501
C39   C     C_R   0.034277 0.148797 0.790666 -0.065393
C40   C     C_R   0.956490 0.854415 0.240412 -0.080275
C41   C     C_R   0.969682 0.555489 0.363307 0.057812
C42   C     C_R   0.044657 0.608993 0.678607 0.054621
C43   C     C_R   0.147418 0.631127 0.593881 0.460722
C44   C     C_R   0.880396 0.583356 0.460177 0.464560
C45   C     C_R   0.777465 0.204751 0.815509 -0.131572
C46   C     C_R   0.259709 0.794754 0.183125 -0.110014
C47   C     C_R   0.138230 0.626723 0.670010 -0.162406
C48   C     C_R   0.882532 0.560401 0.375369 -0.171563
C49   C     C_R   0.961842 0.604719 0.613607 -0.159689
C50   C     C_R   0.058314 0.584885 0.437666 -0.172410
C51   C     C_R   0.967120 0.602510 0.533169 -0.031614
C52   C     C_R   0.059225 0.610020 0.522282 -0.037750
C53   C     C_R   0.687848 0.099668 0.648558 0.030208
C54   C     C_R   0.391281 0.887426 0.344648 0.057378
C55   C     C_R   0.564592 0.024217 0.404667 -0.190556
C56   C     C_R   0.523092 0.949138 0.582265 -0.175404
C57   C     C_R   0.469122 0.955660 0.332736 -0.171489
C58   C     C_R   0.614714 0.020708 0.655663 -0.179013
C59   C     C_R   0.404774 0.893819 0.430290 -0.047853
C60   C     C_R   0.678848 0.093876 0.563581 -0.044910
C61   C     C_R   0.503288 0.955216 0.500572 0.078527
C62   C     C_R   0.583735 0.023690 0.488949 0.099544
C63   C     C_R   0.866938 0.996263 0.703929 -0.078702
C64   C     C_R   0.138393 0.979928 0.316628 -0.048507
C65   C     C_R   0.875022 0.979322 0.780904 0.425437
C66   C     C_R   0.127109 0.009358 0.246182 0.433019
C67   C     C_R   0.255430 0.531500 0.946817 -0.070977
C68   C     C_R   0.700291 0.408929 0.999195 0.022074
C69   C     C_R   0.965791 0.045917 0.862476 -0.030115
C70   C     C_R   0.029255 0.960761 0.172750 -0.039325
C71   C     C_R   0.777714 0.296627 0.736286 -0.104649
C72   C     C_R   0.259610 0.699934 0.259244 -0.121023
C73   C     C_R   0.243612 0.432521 0.019282 -0.166844
C74   C     C_R   0.707271 0.506181 0.926315 -0.070824
C75   C     C_R   0.109781 0.606939 0.828012 0.414363
C76   C     C_R   0.890911 0.451460 0.189779 0.477730
C77   C     C_R   0.913988 0.201615 0.993642 -0.174481
C78   C     C_R   0.084110 0.805405 0.029523 -0.122198
C79   C     C_R   0.998799 0.194096 0.038746 -0.041228
C80   C     C_R   0.996862 0.816832 0.998056 -0.093109
H1    H     H_    0.116606 0.179922 0.926694 0.149095
H2    H     H_    0.869188 0.844836 0.114175 0.170236
H3    H     H_    0.509918 0.747290 0.367646 0.140677
H4    H     H_    0.519341 0.239726 0.569533 0.146032
H5    H     H_    0.534331 0.820722 0.261783 0.134249
H6    H     H_    0.503111 0.142960 0.659694 0.142156
H7    H     H_    0.438896 0.447162 0.170166 0.168107
H8    H     H_    0.471252 0.471468 0.749826 0.169333
H9    H     H_    0.461473 0.560268 0.321506 0.172426
H10   H     H_    0.500685 0.402297 0.613130 0.166868
H11   H     H_    0.124719 0.579069 0.428721 0.188939
H12   H     H_    0.891084 0.593883 0.622582 0.192077
H13   H     H_    0.815663 0.544377 0.319107 0.228341
H14   H     H_    0.202393 0.628248 0.718486 0.208666
H15   H     H_    0.860554 0.493777 0.700319 0.144298
H16   H     H_    0.141765 0.591379 0.314208 0.137595
H17   H     H_    0.095318 0.214541 0.794739 0.191951
H18   H     H_    0.890852 0.794294 0.237914 0.179374
H19   H     H_    0.621662 0.019849 0.719586 0.162686
H20   H     H_    0.458560 0.952245 0.266833 0.148644
H21   H     H_    0.623424 0.075644 0.393212 0.159586
H22   H     H_    0.465828 0.893183 0.591612 0.186197
H23   H     H_    0.939702 0.096465 0.651254 0.157148
H24   H     H_    0.061309 0.878922 0.366845 0.150709
H25   H     H_    0.766793 0.142561 0.834458 0.115649
H26   H     H_    0.285419 0.854695 0.162313 0.127242
H27   H     H_    0.278425 0.571242 0.908417 0.173793
H28   H     H_    0.666930 0.346826 0.015419 0.172544
H29   H     H_    0.763913 0.318567 0.682057 0.114041
H30   H     H_    0.288829 0.673340 0.307005 0.120970
H31   H     H_    0.256182 0.380970 0.046370 0.162655
H32   H     H_    0.680901 0.533981 0.879178 0.175148
H33   H     H_    0.833714 0.145855 0.967372 0.155886
H34   H     H_    0.163648 0.864803 0.062434 0.167863
H35   H     H_    0.970807 0.876378 0.871194 0.170194
H36   H     H_    0.029625 0.136082 0.168322 0.170561
N1    N     N_R   0.055660 0.348550 0.045620 -0.085936
N2    N     N_R   0.944340 0.651450 0.954380 -0.091135
N3    N     N_R   0.960830 0.507850 0.823700 -0.064777
N4    N     N_R   0.039170 0.492150 0.176300 -0.059584
N5    N     N_R   0.811290 0.303410 0.871650 -0.050603
N6    N     N_R   0.188710 0.696590 0.128350 -0.042970
N7    N     N_R   0.205200 0.552990 0.997670 -0.052149
N8    N     N_R   0.794800 0.447010 0.002330 -0.065174
N9    N     N_R   0.814800 0.361830 0.823700 -0.047685
N10   N     N_R   0.185200 0.638170 0.176300 -0.042722
N11   N     N_R   0.201680 0.494570 0.045620 -0.043971
N12   N     N_R   0.798320 0.505430 0.954380 -0.058710
N13   N     N_R   0.068420 0.560530 0.871650 -0.081799
N14   N     N_R   0.931580 0.439470 0.128350 -0.092283
N15   N     N_R   0.948070 0.295860 0.997670 -0.067683
N16   N     N_R   0.051930 0.704140 0.002330 -0.064916
Ni1   Ni    Ni4+2 0.119340 0.493420 0.109960 0.265816
Ni2   Ni    Ni4+2 0.880660 0.506580 0.890040 0.245286
Ni3   Ni    Ni4+2 0.872590 0.372590 0.000000 0.242918
Ni4   Ni    Ni4+2 0.127410 0.627410 0.000000 0.272818
Cl1   Cl    Cl    0.202501 0.328784 0.164558 -0.650332
Cl2   Cl    Cl    0.792748 0.694506 0.868574 -0.632097
C81   C     C_1   0.508581 0.720057 0.092823 0.092682
N17   N     N_1   0.519953 0.756261 0.044332 -0.021235
C82   C     C_1   0.471648 0.195069 0.810096 0.068611
N18   N     N_1   0.465979 0.149073 0.852086 -0.039807
Cl3   Cl    Cl    0.666883 0.565649 0.139327 -0.661573
Cl4   Cl    Cl    0.261373 0.343129 0.770842 -0.682673
Cl5   Cl    Cl    0.268108 0.652394 0.588348 -0.616561
Cl6   Cl    Cl    0.766325 0.582013 0.470405 -0.597998
C83   C     C_1   0.765360 0.161675 0.554658 0.036349
N19   N     N_1   0.834457 0.215709 0.547647 -0.054235
C84   C     C_1   0.316340 0.842474 0.446847 0.061840
N20   N     N_1   0.246054 0.802233 0.460209 -0.059736
C85   C     C_1   0.779485 0.924819 0.617822 0.228997
N21   N     N_1   0.709539 0.867339 0.548643 -0.045799
C86   C     C_1   0.237013 0.028305 0.392824 0.193386
N22   N     N_1   0.316133 0.067262 0.454087 -0.069242
Cl7   Cl    Cl    0.770456 0.876861 0.775316 -0.570143
Cl8   Cl    Cl    0.235803 0.103493 0.248152 -0.597370
Cl9   Cl    Cl    0.227659 0.722650 0.886521 -0.678241
Cl10  Cl    Cl    0.767450 0.365618 0.171440 -0.643740

loop_
_geom_bond_atom_site_label_1
_geom_bond_atom_site_label_2
_ccdc_geom_bond_type
N9    Ni2   S    
C66   Cl8   S    
C63   C65   A    
C3    C42   S    
C53   C58   A    
C27   C29   A    
C34   C37   A    
C7    C36   S    
C41   C50   A    
C3    C23   A    
N14   Ni3   S    
C30   H10   S    
N1    Ni1   S    
C68   N8    A    
C29   H9    S    
C2    N2    A    
C1    Cl1   S    
C7    C73   A    
C33   Cl3   S    
C6    C72   A    
C34   Cl4   S    
N4    N14   A    
C5    C53   S    
C35   C37   A    
N15   Ni3   S    
C24   H16   S    
C40   H18   S    
C4    C24   A    
C15   C69   A    
C78   C80   A    
C43   C52   A    
C39   H17   S    
C4    C41   S    
C12   C79   S    
C46   H26   S    
C31   H3    S    
C60   C62   A    
N4    Ni1   S    
C77   N15   A    
C18   C40   A    
C78   N16   A    
N3    N13   A    
C76   N14   A    
C41   C48   A    
C74   N12   A    
C83   N19   T    
N10   Ni1   S    
C56   C58   A    
C49   C51   A    
C20   H6    S    
C28   H8    S    
C44   Cl6   S    
C85   N21   T    
C60   C83   S    
C3    C75   A    
C15   C39   A    
N2    Ni2   S    
N8    N12   A    
C75   Cl9   S    
C77   C79   A    
C19   C31   A    
C29   C31   A    
C78   H34   S    
C6    C54   S    
C77   H33   S    
C8    C74   A    
C53   C60   A    
C45   H25   S    
C73   H31   S    
C54   C59   A    
C59   C84   S    
C32   H4    S    
C72   H30   S    
C59   C61   A    
N3    Ni2   S    
C24   N4    A    
C48   H13   S    
C51   C52   A    
C2    Cl2   S    
C74   H32   S    
C16   C70   A    
C15   H1    S    
C1    N1    A    
C45   N5    A    
C73   N11   A    
C57   H20   S    
C5    C45   A    
C64   C86   S    
C72   N10   A    
C8    C35   S    
C9    H35   S    
C76   Cl10  S    
N6    N10   A    
C9    C14   A    
N5    N9    A    
C43   Cl5   S    
N12   Ni2   S    
C25   C38   S    
N13   Ni4   S    
C50   C52   A    
N16   Ni4   S    
N6    Ni4   S    
C16   H2    S    
N2    N16   A    
C18   H24   S    
N5    Ni3   S    
C27   H7    S    
C18   C64   A    
C9    C11   A    
C63   C85   S    
C10   C12   A    
C16   C40   A    
C44   C51   A    
C17   C39   A    
C12   C14   A    
C8    C68   A    
C55   C57   A    
C22   C26   A    
C1    C79   A    
C14   C69   S    
C21   C81   S    
C49   H12   S    
N7    N11   A    
C10   H36   S    
C20   C32   A    
C21   C25   A    
C6    C46   A    
N8    Ni3   S    
C19   C21   A    
C71   N9    A    
C58   H19   S    
N11   Ni1   S    
C20   C22   A    
C19   H5    S    
C10   C13   A    
C67   N7    A    
C81   N17   T    
C26   C37   S    
C25   C27   A    
C55   H21   S    
C26   C28   A    
C33   C38   A    
N7    Ni4   S    
C28   C30   A    
C17   H23   S    
C56   H22   S    
C65   Cl7   S    
C84   N20   T    
C17   C63   A    
C30   C32   A    
C11   C13   A    
C67   H27   S    
C66   C70   A    
C65   C69   A    
C71   H29   S    
C22   C82   S    
C36   C38   A    
C33   C35   A    
C47   H14   S    
C23   H15   S    
C34   C36   A    
C42   C47   A    
C61   C62   A    
N1    N15   A    
C4    C76   A    
C2    C80   A    
C11   C80   S    
C42   C49   A    
C7    C67   A    
C44   C48   A    
C50   H11   S    
C55   C62   A    
C5    C71   A    
C13   C70   S    
C56   C61   A    
C46   N6    A    
C23   N3    A    
C68   H28   S    
C86   N22   T    
C82   N18   T    
C43   C47   A    
C75   N13   A    
C64   C66   A    
C54   C57   A    
