data_mof_unit_9409.cif
_audit_creation_date              2012-12-10T18:53:00-0500
_audit_creation_method            fapswitch 2.2
_symmetry_space_group_name_H-M    P1
_symmetry_Int_Tables_number       1
_space_group_crystal_system       triclinic
_cell_length_a                    9.798638
_cell_length_b                    10.716457
_cell_length_c                    15.550682
_cell_angle_alpha                 90.515943
_cell_angle_beta                  86.035818
_cell_angle_gamma                 88.510145
_cell_volume                      1628.37246293

loop_
_atom_site_label
_atom_site_type_symbol
_atom_type_description
_atom_site_fract_x
_atom_site_fract_y
_atom_site_fract_z
_atom_type_partial_charge
C1    C     C_R   0.498529 0.740154 0.498282 1.012779
C2    C     C_R   0.502338 0.259738 0.501575 1.010469
C3    C     C_R   0.607134 0.931273 0.453390 0.370971
C4    C     C_R   0.401602 0.067761 0.552899 0.358801
C5    C     C_R   0.618157 0.059378 0.463003 0.408739
C6    C     C_R   0.391369 0.939897 0.544671 0.381746
C7    C     C_R   0.508862 0.127187 0.506834 -0.420911
C8    C     C_R   0.496570 0.872697 0.497186 -0.424905
C9    C     C_R   0.935988 0.427235 0.442776 -0.312003
C10   C     C_R   0.064022 0.573625 0.556653 -0.321166
C11   C     C_R   0.081101 0.426478 0.442634 0.546753
C12   C     C_R   0.918956 0.575035 0.556382 0.460732
C13   C     C_R   0.482089 0.501740 0.657219 0.955381
C14   C     C_R   0.518252 0.502880 0.342547 0.957071
C15   C     C_R   0.475355 0.533182 0.750411 -0.246952
C16   C     C_R   0.530956 0.534411 0.249176 -0.256144
C17   C     C_R   0.582305 0.491691 0.800463 0.346403
C18   C     C_R   0.420225 0.592980 0.209361 0.350400
C19   C     C_R   0.602963 0.552935 0.879891 0.417895
C20   C     C_R   0.443118 0.650465 0.127996 0.416944
C21   C     C_R   0.527589 0.663690 0.901894 -0.210843
C22   C     C_R   0.577816 0.661904 0.092426 -0.209043
C23   C     C_R   0.411904 0.694027 0.857606 -0.375245
C24   C     C_R   0.684647 0.597063 0.128695 -0.346369
C25   C     C_R   0.383026 0.628085 0.782862 0.395917
C26   C     C_R   0.661667 0.528462 0.204432 0.407467
C27   C     C_2   0.589758 0.767463 0.949051 0.504659
C28   C     C_2   0.614451 0.765695 0.033265 0.522717
H1    H     H_    0.351988 0.777543 0.876368 0.195560
H2    H     H_    0.787947 0.605076 0.099866 0.194490
H3    H     H_    0.886249 0.369855 0.397348 0.212018
H4    H     H_    0.113752 0.631252 0.601804 0.217748
N1    N     N_R   0.142790 0.500030 0.500020 -0.092940
N2    N     N_R   0.857210 0.499970 0.499980 -0.097104
O1    O     O_R   0.385380 0.683250 0.500010 -0.602872
O2    O     O_R   0.614620 0.316750 0.499990 -0.612104
O3    O     O_R   0.614710 0.683220 0.500000 -0.571723
O4    O     O_R   0.385290 0.316780 0.500000 -0.542050
O5    O     O_R   0.371780 0.500040 0.615800 -0.566203
O6    O     O_R   0.628220 0.499960 0.384200 -0.559459
O7    O     O_R   0.601110 0.500010 0.615800 -0.561286
O8    O     O_R   0.398890 0.499990 0.384200 -0.541103
Zn1   Zn    Zn3+2 0.346870 0.500020 0.500000 1.042366
Zn2   Zn    Zn3+2 0.653130 0.499980 0.500000 1.015043
O9    O     O_3   0.664586 0.390959 0.769992 -0.636527
C29   C     C_3   0.803630 0.423662 0.759166 -0.127997
H5    H     H_    0.860010 0.386303 0.813220 0.181427
H6    H     H_    0.819774 0.525897 0.753830 0.174068
H7    H     H_    0.849423 0.378971 0.698918 0.160348
O10   O     O_3   0.290590 0.597177 0.251053 -0.577404
C30   C     C_3   0.265165 0.716483 0.289033 -0.197153
H8    H     H_    0.244124 0.787224 0.239547 0.196099
H9    H     H_    0.350915 0.746699 0.327160 0.133145
H10   H     H_    0.172525 0.712240 0.334095 0.156660
O11   O     O_3   0.767750 0.462354 0.238717 -0.739904
H11   H     H_    0.851652 0.468180 0.199613 0.332747
O12   O     O_3   0.275421 0.665227 0.735290 -0.736793
H12   H     H_    0.222000 0.733499 0.766513 0.341638
O13   O     O_3   0.677782 0.868169 0.065895 -0.708399
H13   H     H_    0.685308 0.856743 0.128645 0.341953
O14   O     O_3   0.626450 0.873749 0.903924 -0.720418
H14   H     H_    0.611661 0.860399 0.842102 0.328494
O15   O     O_3   0.337772 0.712405 0.089822 -0.610869
C31   C     C_3   0.252401 0.623492 0.055216 -0.256371
H15   H     H_    0.188208 0.577878 0.106857 0.206050
H16   H     H_    0.311747 0.551653 0.014876 0.144138
H17   H     H_    0.182154 0.672424 0.012967 0.192499
O16   O     O_3   0.708172 0.515445 0.929433 -0.634523
C32   C     C_3   0.671502 0.403481 0.971292 -0.266118
H18   H     H_    0.668104 0.324261 0.925043 0.212019
H19   H     H_    0.571596 0.414143 0.009756 0.154769
H20   H     H_    0.750538 0.379026 0.016482 0.197769
O17   O     O_3   0.685413 0.866860 0.388524 -0.579791
C33   C     C_3   0.818198 0.837843 0.413743 -0.180375
H21   H     H_    0.851472 0.745773 0.385258 0.180780
H22   H     H_    0.824466 0.830294 0.484765 0.150836
H23   H     H_    0.891234 0.907091 0.386877 0.166016
O18   O     O_3   0.303313 0.134876 0.603724 -0.577937
C34   C     C_3   0.351842 0.150963 0.686277 -0.224441
H24   H     H_    0.273271 0.204668 0.727138 0.181376
H25   H     H_    0.368814 0.059482 0.717767 0.178800
H26   H     H_    0.447308 0.205339 0.683462 0.143353
O19   O     O_3   0.728386 0.118503 0.422187 -0.548535
C35   C     C_3   0.835556 0.123185 0.478931 -0.279391
H27   H     H_    0.933840 0.133159 0.440060 0.170028
H28   H     H_    0.822461 0.204852 0.523119 0.196341
H29   H     H_    0.845684 0.038557 0.519090 0.111838
O20   O     O_3   0.284282 0.879985 0.588382 -0.547332
C36   C     C_3   0.166031 0.895313 0.541980 -0.222430
H30   H     H_    0.078796 0.852813 0.579074 0.156113
H31   H     H_    0.137232 0.995213 0.533245 0.178649
H32   H     H_    0.179541 0.847256 0.478146 0.132383
O21   O     O_3   0.162046 0.352569 0.385659 -0.711772
H33   H     H_    0.102309 0.305362 0.348818 0.313968
O22   O     O_3   0.838097 0.651842 0.611456 -0.764897
H34   H     H_    0.897838 0.700732 0.647273 0.302434

loop_
_geom_bond_atom_site_label_1
_geom_bond_atom_site_label_2
_ccdc_geom_bond_type
O11   H11   S    
O21   H33   S    
C1    C8    S    
O17   C33   S    
C2    C7    S    
C35   H29   S    
C26   O11   S    
C13   O7    A    
O9    C29   S    
C29   H7    S    
C1    O1    A    
C33   H22   S    
C23   H1    S    
C19   C21   A    
C24   C26   A    
C5    O19   S    
C15   C25   A    
C6    O20   S    
C32   H19   S    
C27   O14   S    
O22   H34   S    
O16   C32   S    
C33   H23   S    
C12   O22   S    
C36   H31   S    
O1    Zn1   S    
C18   C20   A    
C1    O3    A    
C14   O8    A    
C11   O21   S    
C21   C27   S    
O13   H13   S    
C22   C28   S    
O14   H14   S    
C25   O12   S    
C4    C7    A    
C16   C26   A    
C29   H6    S    
C33   H21   S    
C30   H8    S    
N1    Zn1   S    
C31   H17   S    
C11   N1    A    
N2    Zn2   S    
C35   H27   S    
C4    C6    A    
C3    C8    A    
C5    C7    A    
O18   C34   S    
C6    C8    A    
O15   C31   S    
C30   H9    S    
C31   H16   S    
C32   H20   S    
C4    O18   S    
C2    O4    A    
O19   C35   S    
O10   C30   S    
C19   O16   S    
C36   H32   S    
C9    C11   A    
C10   C12   A    
C20   C22   A    
C13   C15   S    
C9    N2    A    
O7    Zn2   S    
C14   C16   S    
O2    Zn2   S    
O8    Zn1   S    
C12   N2    A    
C18   O10   S    
C34   H25   S    
C28   O13   S    
C2    O2    A    
C15   C17   A    
C29   H5    S    
C17   O9    S    
C3    C5    A    
C34   H26   S    
O5    Zn1   S    
C30   H10   S    
C31   H15   S    
O3    Zn2   S    
C21   C23   A    
O4    Zn1   S    
O12   H12   S    
C20   O15   S    
C17   C19   A    
C10   N1    A    
C22   C24   A    
C23   C25   A    
C32   H18   S    
C3    O17   S    
C24   H2    S    
C13   O5    A    
C9    H3    S    
C14   O6    A    
C34   H24   S    
C10   H4    S    
O6    Zn2   S    
O20   C36   S    
C16   C18   A    
C27   C28   D    
C35   H28   S    
C36   H30   S    
