data_mof_unit_56648.cif
_audit_creation_date              2012-10-26T20:38:25-0400
_audit_creation_method            fapswitch 2.2
_symmetry_space_group_name_H-M    P1
_symmetry_Int_Tables_number       1
_space_group_crystal_system       triclinic
_cell_length_a                    15.866791
_cell_length_b                    11.109019
_cell_length_c                    9.888714
_cell_angle_alpha                 111.32304
_cell_angle_beta                  98.869833
_cell_angle_gamma                 90.626913
_cell_volume                      1600.03515076

loop_
_atom_site_label
_atom_site_type_symbol
_atom_type_description
_atom_site_fract_x
_atom_site_fract_y
_atom_site_fract_z
_atom_type_partial_charge
C1    C     C_R   0.494681 0.255008 0.440911 0.537681
C2    C     C_3   0.026135 0.600696 0.470941 0.287238
C3    C     C_3   0.017489 0.389650 0.396281 -0.119188
C4    C     C_3   0.982611 0.611799 0.603643 -0.120251
C5    C     C_1   0.250366 0.499888 0.501211 0.054765
C6    C     C_1   0.749688 0.500782 0.498863 0.052915
C7    C     C_3   0.040711 0.509350 0.634037 -0.116913
C8    C     C_3   0.959388 0.492090 0.365878 -0.114962
C9    C     C_3   0.083170 0.499957 0.500844 -0.015496
C10   C     C_3   0.916917 0.501459 0.499086 -0.017160
C11   C     C_1   0.174859 0.499800 0.501333 0.048049
C12   C     C_R   0.505428 0.745507 0.558796 0.551172
C13   C     C_1   0.825208 0.501289 0.498684 0.044867
C14   C     C_2   0.480741 0.118279 0.409633 -0.070838
C15   C     C_2   0.515479 0.883610 0.587880 -0.040294
C16   C     C_3   0.344770 0.845064 0.359941 -0.237749
C17   C     C_3   0.596303 0.187311 0.750061 -0.253584
C18   C     C_2   0.521351 0.061941 0.498310 0.131235
C19   C     C_2   0.489802 0.930386 0.481065 0.148647
C20   C     C_2   0.507498 0.508060 0.080610 0.082114
C21   C     C_2   0.492771 0.491477 0.919267 0.059649
C22   C     C_R   0.339941 0.499957 0.500386 0.542517
C23   C     C_R   0.660077 0.500212 0.499645 0.548156
C24   C     C_3   0.973992 0.400742 0.528975 0.281803
Cu1   Cu    Cu3+1 0.514700 0.521810 0.644910 1.094209
Cu2   Cu    Cu3+1 0.485300 0.478190 0.355090 1.097010
H1    H     H_    0.032573 0.297950 0.312682 0.172072
H2    H     H_    0.001645 0.890036 0.379791 0.388691
H3    H     H_    0.445970 0.860463 0.252746 0.277386
H4    H     H_    0.308183 0.775599 0.254887 0.192075
H5    H     H_    0.319318 0.941940 0.382418 0.155840
H6    H     H_    0.335566 0.810834 0.449536 0.182153
H7    H     H_    0.640080 0.168016 0.554767 0.285133
H8    H     H_    0.614624 0.292262 0.784262 0.181401
H9    H     H_    0.642376 0.147366 0.816285 0.169608
H10   H     H_    0.531397 0.175942 0.774243 0.186612
H11   H     H_    0.708192 0.801692 0.943389 0.364145
H12   H     H_    0.967535 0.703501 0.687246 0.170325
H13   H     H_    0.351082 0.185422 0.107019 0.351240
H14   H     H_    0.925483 0.486698 0.256665 0.180694
H15   H     H_    0.074622 0.514739 0.743246 0.181730
H16   H     H_    0.551528 0.944237 0.693711 0.115675
H17   H     H_    0.427755 0.068773 0.322446 0.083017
H18   H     H_    0.442969 0.422208 0.843116 0.179496
H19   H     H_    0.558484 0.575371 0.156178 0.187402
H20   H     H_    0.999176 0.111275 0.619643 0.391212
N1    N     N_2   0.463210 0.445420 0.137360 -0.091241
N2    N     N_2   0.536790 0.554580 0.862640 -0.082517
N3    N     N_2   0.434418 0.851270 0.348407 -0.503154
N4    N     N_2   0.599968 0.120665 0.595172 -0.502689
O1    O     O_R   0.507840 0.332340 0.577400 -0.525022
O2    O     O_2   0.874023 0.180304 0.440184 -0.262950
O3    O     O_3   0.022832 0.182259 0.595201 -0.486229
O4    O     O_2   0.126352 0.820948 0.559873 -0.269225
O5    O     O_2   0.102366 0.686869 0.295854 -0.264950
O6    O     O_3   0.977797 0.819166 0.404211 -0.485289
O7    O     O_2   0.583320 0.772768 0.092312 -0.303868
O8    O     O_2   0.686278 0.605103 0.040731 -0.282473
O9    O     O_3   0.662694 0.738461 0.872434 -0.462232
O10   O     O_2   0.311187 0.412781 0.969350 -0.237741
O11   O     O_2   0.404261 0.233604 0.904349 -0.347527
O12   O     O_R   0.492160 0.667660 0.422600 -0.485204
O13   O     O_3   0.329579 0.272832 0.130287 -0.446645
O14   O     O_R   0.483020 0.295500 0.332650 -0.484349
O15   O     O_R   0.516980 0.704500 0.667350 -0.450334
O16   O     O_R   0.391490 0.518400 0.622350 -0.522298
O17   O     O_R   0.608510 0.481600 0.377650 -0.524753
O18   O     O_R   0.366660 0.481570 0.377600 -0.433986
O19   O     O_R   0.633340 0.518430 0.622400 -0.441048
O20   O     O_2   0.898315 0.314198 0.704299 -0.253116
S1    S     S_3+6 0.938558 0.266086 0.568025 0.039305
S2    S     S_3+6 0.061895 0.735198 0.431872 0.031312
S3    S     S_3+6 0.618429 0.669209 0.972644 0.110055
S4    S     S_3+6 0.376138 0.339995 0.030272 0.116672

loop_
_geom_bond_atom_site_label_1
_geom_bond_atom_site_label_2
_ccdc_geom_bond_type
C17   N4    S    
C2    C4    S    
Cu1   O1    S    
O20   S1    D    
C3    C9    S    
C17   H10   S    
O11   S4    D    
C16   H6    S    
C21   H18   S    
H13   O13   S    
C12   O15   A    
C23   O19   A    
C15   H16   S    
O5    S2    D    
C24   S1    S    
C12   C15   S    
H7    N4    S    
C21   N2    D    
Cu2   O18   S    
C3    H1    S    
H2    O6    S    
Cu1   O15   S    
O2    S1    D    
H3    N3    S    
C20   C21   S    
C16   H5    S    
C15   C19   D    
C1    O1    A    
Cu1   N2    S    
C22   O18   A    
C3    C24   S    
H11   O9    S    
Cu2   N1    S    
C4    C7    S    
C2    S2    S    
C6    C23   S    
H20   O3    S    
O10   S4    D    
O13   S4    S    
O7    S3    D    
C4    H12   S    
C14   C18   D    
C5    C11   T    
C9    C11   S    
C3    C8    S    
Cu2   O12   S    
C19   N3    S    
C7    H15   S    
C20   N1    D    
Cu1   O19   S    
C17   H8    S    
Cu2   O17   S    
C16   H4    S    
C4    C10   S    
C7    C24   S    
O3    S1    S    
C1    O14   A    
C17   H9    S    
C12   O12   A    
C16   N3    S    
C18   N4    S    
C6    C13   T    
C8    C10   S    
C18   C19   S    
C23   O17   A    
C7    C9    S    
O9    S3    S    
C22   O16   A    
Cu2   O14   S    
C1    C14   S    
C8    H14   S    
O4    S2    D    
C10   C24   S    
Cu1   Cu2   S    
Cu1   O16   S    
C2    C9    S    
O8    S3    D    
N2    S3    S    
C2    C8    S    
C5    C22   S    
C20   H19   S    
N1    S4    S    
C14   H17   S    
O6    S2    S    
C10   C13   S    
