data_mof_unit_30613.cif
_audit_creation_date              2012-12-11T15:29:14-0500
_audit_creation_method            fapswitch 2.2
_symmetry_space_group_name_H-M    P1
_symmetry_Int_Tables_number       1
_space_group_crystal_system       triclinic
_cell_length_a                    13.553167
_cell_length_b                    13.562845
_cell_length_c                    27.53975
_cell_angle_alpha                 90.64952
_cell_angle_beta                  90.111806
_cell_angle_gamma                 60.027295
_cell_volume                      4385.00106449

loop_
_atom_site_label
_atom_site_type_symbol
_atom_type_description
_atom_site_fract_x
_atom_site_fract_y
_atom_site_fract_z
_atom_type_partial_charge
C1    C     C_R   0.619783 0.100737 0.570079 0.548604
C2    C     C_1   0.658476 0.689976 0.655550 -0.055770
C3    C     C_3   0.093490 0.148701 0.737595 -0.077955
C4    C     C_R   0.600128 0.778665 0.568245 0.554108
C5    C     C_3   0.184326 0.072971 0.775408 -0.109718
C6    C     C_1   0.099194 0.202272 0.900532 -0.003153
C7    C     C_1   0.229887 0.140859 0.616840 0.029510
C8    C     C_3   0.061837 0.256024 0.769300 -0.073704
C9    C     C_3   0.152630 0.179846 0.806397 0.024739
C10   C     C_3   0.152208 0.273240 0.742475 -0.147095
C11   C     C_3   0.183068 0.166564 0.711474 0.020154
C12   C     C_1   0.635809 0.724119 0.614486 -0.003287
C13   C     C_3   0.242398 0.198409 0.780559 -0.109784
C14   C     C_3   0.272714 0.092508 0.748786 0.099049
C15   C     C_1   0.128684 0.187944 0.858582 -0.042623
C16   C     C_R   0.277628 0.122160 0.569134 0.550966
C17   C     C_1   0.203058 0.154732 0.659025 -0.001161
C18   C     C_3   0.609246 0.275988 0.741445 0.078286
C19   C     C_3   0.537952 0.253361 0.778748 -0.138588
C20   C     C_1   0.684623 0.204147 0.903289 0.032021
C21   C     C_1   0.632142 0.131541 0.618695 0.012957
C22   C     C_3   0.716237 0.208359 0.772499 0.081906
C23   C     C_3   0.685500 0.548361 0.764094 -0.059546
C24   C     C_3   0.646312 0.184190 0.809473 0.006389
C25   C     C_3   0.745848 0.097739 0.744617 -0.126207
C26   C     C_3   0.638158 0.166347 0.713910 0.009475
C27   C     C_3   0.674600 0.073640 0.781755 -0.114105
C28   C     C_R   0.621845 0.100052 0.431581 0.543439
C29   C     C_3   0.566551 0.142608 0.750236 -0.117922
C30   C     C_1   0.661604 0.193297 0.861908 0.002351
C31   C     C_1   0.636108 0.150598 0.661258 -0.007664
C32   C     C_R   0.640013 0.721839 0.383190 0.025257
C33   C     C_R   0.723597 0.734047 0.358343 -0.125586
C34   C     C_3   0.696260 0.627200 0.801380 0.016244
C35   C     C_R   0.736444 0.715978 0.308721 -0.123903
C36   C     C_R   0.668782 0.681590 0.283484 0.037715
C37   C     C_R   0.593858 0.657568 0.309080 -0.121473
C38   C     C_R   0.578810 0.678511 0.358760 -0.129455
C39   C     C_R   0.576569 0.704489 0.203045 -0.121885
C40   C     C_R   0.601815 0.776935 0.430547 0.540336
C41   C     C_R   0.585373 0.681958 0.153453 -0.130247
C42   C     C_R   0.789129 0.609585 0.157603 -0.126793
C43   C     C_R   0.780754 0.629370 0.207163 -0.124245
C44   C     C_R   0.675173 0.672752 0.230503 0.036574
C45   C     C_3   0.588094 0.653733 0.739301 -0.091309
C46   C     C_R   0.692633 0.629293 0.131001 0.023962
C47   C     C_R   0.225390 0.137354 0.383580 0.025535
C48   C     C_R   0.248028 0.041790 0.355086 -0.126111
C49   C     C_R   0.224262 0.053404 0.305850 -0.122692
C50   C     C_R   0.175054 0.161044 0.284584 0.036619
C51   C     C_R   0.144166 0.257752 0.313811 -0.118910
C52   C     C_R   0.279187 0.119969 0.431062 0.539831
C53   C     C_R   0.169992 0.245882 0.363031 -0.126377
C54   C     C_R   0.175520 0.250254 0.206031 -0.120781
C55   C     C_R   0.148027 0.268172 0.157027 -0.129449
C56   C     C_3   0.676523 0.662071 0.707333 0.030669
C57   C     C_R   0.094408 0.122192 0.158425 -0.125633
C58   C     C_R   0.119900 0.105805 0.207421 -0.122499
C59   C     C_R   0.157413 0.172015 0.231928 0.036624
C60   C     C_R   0.103455 0.206987 0.133370 0.023593
C61   C     C_R   0.641020 0.139236 0.385101 0.024141
C62   C     C_R   0.549057 0.231132 0.361983 -0.124325
C63   C     C_R   0.556397 0.251282 0.313226 -0.121467
C64   C     C_3   0.774198 0.556403 0.731261 -0.083217
C65   C     C_R   0.656448 0.181202 0.287066 0.036747
C66   C     C_R   0.751832 0.095816 0.311216 -0.120260
C67   C     C_3   0.598974 0.731620 0.777554 -0.063917
C68   C     C_R   0.744039 0.074559 0.359932 -0.127839
C69   C     C_R   0.716149 0.097819 0.204068 -0.119422
C70   C     C_R   0.728214 0.110147 0.154773 -0.127161
C71   C     C_R   0.618670 0.315503 0.164732 -0.126946
C72   C     C_R   0.608265 0.303207 0.214118 -0.122665
C73   C     C_R   0.659897 0.194338 0.234376 0.035375
C74   C     C_R   0.682660 0.219119 0.135158 0.025160
C75   C     C_R   0.049838 0.235226 0.948069 0.549935
C76   C     C_3   0.785063 0.635116 0.769720 -0.122431
C77   C     C_R   0.713074 0.559435 0.945940 0.550422
C78   C     C_3   0.687129 0.740934 0.745103 -0.081101
C79   C     C_R   0.721571 0.223637 0.949583 0.556914
C80   C     C_R   0.047650 0.243843 0.086283 0.540958
C81   C     C_R   0.709319 0.572141 0.084182 0.540310
C82   C     C_R   0.719992 0.233503 0.087431 0.537921
C83   C     C_1   0.703711 0.594822 0.896715 0.000702
C84   C     C_2   0.571659 0.387101 0.716886 0.562958
C85   C     C_2   0.799225 0.247160 0.783113 0.537840
C86   C     C_2   0.392615 0.004863 0.737859 0.530090
C87   C     C_1   0.700680 0.612103 0.853891 -0.050636
Cr1   Cr    Cr6+3 0.417550 0.169090 0.500530 1.031228
Cr2   Cr    Cr6+3 0.669180 0.913420 0.499920 1.024876
Cr3   Cr    Cr6+3 0.413260 0.917540 0.499520 1.036022
Cr4   Cr    Cr6+3 0.909770 0.175810 0.018240 1.030697
Cr5   Cr    Cr6+3 0.913300 0.427650 0.016090 1.023181
Cr6   Cr    Cr6+3 0.657770 0.431010 0.016900 1.028388
H1    H     H_    0.865990 0.627306 0.783047 0.112983
H2    H     H_    0.845799 0.484113 0.711711 0.145273
H3    H     H_    0.493508 0.742296 0.220186 0.101928
H4    H     H_    0.509749 0.699032 0.133374 0.125193
H5    H     H_    0.794714 0.735289 0.289898 0.098799
H6    H     H_    0.858162 0.603954 0.227448 0.100222
H7    H     H_    0.873123 0.568936 0.141178 0.134419
H8    H     H_    0.544009 0.626616 0.290457 0.099572
H9    H     H_    0.514834 0.667297 0.377387 0.125221
H10   H     H_    0.291933 0.956810 0.369920 0.134396
H11   H     H_    0.207882 0.299757 0.223961 0.103077
H12   H     H_    0.304316 0.217713 0.798549 0.124650
H13   H     H_    0.156489 0.333441 0.138352 0.125654
H14   H     H_    0.688299 0.820335 0.736947 0.131697
H15   H     H_    0.249585 0.977393 0.284097 0.100203
H16   H     H_    0.104674 0.045311 0.226550 0.101084
H17   H     H_    0.059966 0.073755 0.141179 0.133884
H18   H     H_    0.102811 0.342109 0.298389 0.102934
H19   H     H_    0.151415 0.320695 0.384479 0.124744
H20   H     H_    0.468456 0.282732 0.380495 0.132211
H21   H     H_    0.753449 0.012878 0.218701 0.104959
H22   H     H_    0.777506 0.034799 0.132455 0.123694
H23   H     H_    0.138290 0.355617 0.728435 0.120692
H24   H     H_    0.481653 0.317645 0.295465 0.100273
H25   H     H_    0.564774 0.378954 0.236737 0.101875
H26   H     H_    0.527480 0.795720 0.799955 0.176451
H27   H     H_    0.583985 0.400625 0.150533 0.134590
H28   H     H_    0.831208 0.043079 0.292029 0.101992
H29   H     H_    0.816487 0.003923 0.377064 0.126095
H30   H     H_    0.506750 0.662192 0.726211 0.163335
H31   H     H_    0.681007 0.472346 0.774393 0.177121
H32   H     H_    0.198955 0.990122 0.789180 0.119948
H33   H     H_    0.034764 0.126194 0.718871 0.167243
H34   H     H_    0.977046 0.329492 0.778201 0.146055
H35   H     H_    0.606151 0.473197 0.666853 0.334289
H36   H     H_    0.878609 0.291188 0.833977 0.324049
H37   H     H_    0.508946 0.909118 0.687161 0.330265
H38   H     H_    0.452530 0.316438 0.793073 0.136338
H39   H     H_    0.502208 0.121212 0.737834 0.172792
H40   H     H_    0.700184 0.990253 0.798539 0.137851
H41   H     H_    0.831460 0.034804 0.730402 0.122223
H42   H     H_    0.772372 0.767190 0.376278 0.133236
O1    O     O_R   0.301780 0.195490 0.553940 -0.509904
O2    O     O_R   0.636050 0.541380 0.962520 -0.502134
O3    O     O_R   0.666480 0.323610 0.968170 -0.493956
O4    O     O_R   0.522450 0.158840 0.550250 -0.489958
O5    O     O_R   0.817280 0.156800 0.072180 -0.522198
O6    O     O_R   0.005110 0.187160 0.067410 -0.506782
O7    O     O_R   0.026450 0.340060 0.069950 -0.522427
O8    O     O_R   0.808300 0.527240 0.065170 -0.506651
O9    O     O_R   0.634070 0.548770 0.069460 -0.522084
O10   O     O_R   0.664650 0.330470 0.067300 -0.506426
O11   O     O_3   0.826940 0.344820 0.017080 -0.248538
O12   O     O_R   0.658840 0.818280 0.449970 -0.507467
O13   O     O_R   0.694460 0.003360 0.553820 -0.507284
O14   O     O_R   0.657750 0.819520 0.549120 -0.497561
O15   O     O_R   0.501990 0.803120 0.552700 -0.493017
O16   O     O_R   0.318230 0.023430 0.549370 -0.483935
O17   O     O_R   0.302950 0.194150 0.446980 -0.520681
O18   O     O_R   0.523540 0.157600 0.451100 -0.504712
O19   O     O_R   0.695630 0.002030 0.446860 -0.521459
O20   O     O_2   0.480224 0.470240 0.727664 -0.548991
O21   O     O_R   0.640881 0.394374 0.681239 -0.670989
O22   O     O_2   0.839771 0.272590 0.749329 -0.552357
O23   O     O_R   0.503160 0.801780 0.445740 -0.523071
O24   O     O_R   0.826670 0.257921 0.831074 -0.711476
O25   O     O_2   0.464010 0.978903 0.769576 -0.590777
O26   O     O_R   0.423673 0.958537 0.691130 -0.703309
O27   O     O_R   0.319320 0.022190 0.450230 -0.507162
O28   O     O_3   0.499990 0.000010 0.499990 -0.251001
O29   O     O_R   0.819250 0.149410 0.965240 -0.499455
O30   O     O_R   0.006940 0.180310 0.968270 -0.485623
O31   O     O_R   0.028420 0.332670 0.963010 -0.509556
O32   O     O_R   0.810130 0.520390 0.966030 -0.496327

loop_
_geom_bond_atom_site_label_1
_geom_bond_atom_site_label_2
_ccdc_geom_bond_type
Cr2   O13   S    
C83   C87   T    
C63   C65   A    
C1    C21   S    
C23   C45   S    
C27   C29   S    
C58   H16   S    
C16   O16   A    
C66   C68   A    
C35   C36   A    
C18   C26   S    
C24   C27   S    
C79   O29   A    
Cr3   O15   S    
C2    C12   T    
Cr2   O19   S    
C3    H33   S    
C56   C78   S    
C6    C75   S    
C39   C41   A    
C20   C30   T    
C45   H30   S    
C65   C66   A    
C4    O14   A    
C21   C31   T    
C43   H6    S    
C62   C63   A    
C71   H27   S    
Cr3   O27   S    
C50   C59   S    
C54   H11   S    
C36   C37   A    
C77   O2    A    
C63   H24   S    
C84   O20   D    
C29   H39   S    
C52   O27   A    
C77   C83   S    
Cr5   O32   S    
C65   C73   S    
C18   C19   S    
C42   C46   A    
C22   C85   S    
Cr5   O8    S    
C9    C13   S    
C70   C74   A    
C82   O5    A    
Cr6   O3    S    
C76   H1    S    
C6    C15   T    
C81   O9    A    
C11   C17   S    
C57   H17   S    
C45   C56   S    
C8    C9    S    
C7    C17   T    
C22   C25   S    
C45   C67   S    
C18   C84   S    
C41   C46   A    
C56   C64   S    
C69   C73   A    
C32   C38   A    
C4    C12   S    
C35   H5    S    
Cr5   O7    S    
C40   O12   A    
C47   C53   A    
C28   C61   S    
Cr2   O14   S    
C26   C31   S    
C55   C60   A    
C28   O19   A    
Cr1   O17   S    
C61   C62   A    
C67   C78   S    
C85   O22   D    
C74   C82   S    
C49   H15   S    
C54   C59   A    
C19   H38   S    
C69   H21   S    
C55   H13   S    
Cr5   O11   S    
C27   H40   S    
Cr6   O2    S    
Cr1   O1    S    
C62   H20   S    
C13   H12   S    
C3    C8    S    
C68   H29   S    
C72   C73   A    
C57   C60   A    
C25   C26   S    
C48   H10   S    
C78   H14   S    
C51   C53   A    
Cr3   O23   S    
C43   C44   A    
Cr1   O4    S    
C5    C9    S    
C37   C38   A    
C33   C35   A    
C42   H7    S    
C46   C81   S    
C33   H42   S    
C8    H34   S    
C47   C48   A    
C52   O17   A    
C23   C34   S    
C50   C51   A    
C64   C76   S    
C66   H28   S    
Cr6   O11   S    
C75   O30   A    
C86   O26   S    
Cr6   O10   S    
C25   H41   S    
C14   C86   S    
C5    C14   S    
C39   C44   A    
Cr6   O9    S    
H37   O26   S    
C23   C64   S    
C80   O6    A    
C80   O7    A    
C28   O18   A    
C41   H4    S    
Cr4   O29   S    
C36   C44   S    
C25   C27   S    
C42   C43   A    
C5    H32   S    
C19   C29   S    
H36   O24   S    
C82   O10   A    
C10   H23   S    
C53   H19   S    
C40   O23   A    
Cr2   O12   S    
C54   C55   A    
C60   C80   S    
C51   H18   S    
C20   C79   S    
C18   C22   S    
Cr4   O30   S    
C7    C16   S    
C64   H2    S    
C76   C78   S    
Cr3   O16   S    
C3    C5    S    
C10   C13   S    
C1    O4    A    
C34   C67   S    
C71   C74   A    
C47   C52   S    
C70   H22   S    
C77   O32   A    
Cr1   O28   S    
C4    O15   A    
Cr3   O28   S    
Cr1   O18   S    
C19   C24   S    
C58   C59   A    
C71   C72   A    
C38   H9    S    
C2    C56   S    
C32   C33   A    
C37   H8    S    
C84   O21   S    
C61   C68   A    
C57   C58   A    
C67   H26   S    
C48   C49   A    
C11   C14   S    
C75   O31   A    
C22   C24   S    
C34   C87   S    
C32   C40   S    
C9    C15   S    
C69   C70   A    
C24   C30   S    
C39   H3    S    
C3    C11   S    
C10   C11   S    
H35   O21   S    
Cr4   O5    S    
Cr5   O31   S    
C81   O8    A    
C79   O3    A    
C26   C29   S    
C8    C10   S    
C49   C50   A    
C72   H25   S    
C1    O13   A    
C85   O24   S    
C13   C14   S    
C23   H31   S    
C86   O25   D    
Cr2   O28   S    
Cr4   O11   S    
C34   C76   S    
Cr4   O6    S    
C16   O1    A    
