data_mof_unit_47226.cif
_audit_creation_date              2012-12-10T16:51:31-0500
_audit_creation_method            fapswitch 2.2
_symmetry_space_group_name_H-M    P1
_symmetry_Int_Tables_number       1
_space_group_crystal_system       triclinic
_cell_length_a                    7.808213
_cell_length_b                    8.572622
_cell_length_c                    12.419943
_cell_angle_alpha                 92.298458
_cell_angle_beta                  102.705205
_cell_angle_gamma                 93.960281
_cell_volume                      807.752428824

loop_
_atom_site_label
_atom_site_type_symbol
_atom_type_description
_atom_site_fract_x
_atom_site_fract_y
_atom_site_fract_z
_atom_type_partial_charge
Br1   Br    Br    0.690772 0.178514 0.746468 -0.564937
Br2   Br    Br    0.485841 0.299726 0.223345 -0.572615
C1    C     C_R   0.044542 0.794666 0.497430 0.972171
C2    C     C_R   0.170007 0.498312 0.827630 -0.085507
C3    C     C_2   0.067959 0.958311 0.496275 -0.378180
C4    C     C_R   0.108709 0.501917 0.708946 0.872443
C5    C     C_2   0.932636 0.041837 0.504871 -0.325061
C6    C     C_R   0.955661 0.205368 0.502963 0.977261
C7    C     C_R   0.887397 0.472901 0.291817 0.899340
C8    C     C_R   0.847583 0.322044 0.996461 -0.129627
C9    C     C_R   0.817291 0.418678 0.176914 -0.122949
C10   C     C_R   0.090936 0.591673 0.895212 -0.180207
C11   C     C_R   0.168967 0.620321 0.006325 -0.153950
C12   C     C_R   0.402719 0.454928 0.985079 0.105582
C13   C     C_R   0.324985 0.555086 0.050890 -0.144118
C14   C     C_R   0.323400 0.423362 0.872932 0.022881
C15   C     C_R   0.567238 0.398090 0.026349 -0.004220
C16   C     C_R   0.666859 0.337088 0.954745 0.059217
C17   C     C_R   0.580060 0.290420 0.846029 0.241404
C18   C     C_R   0.404932 0.323331 0.808780 -0.220145
C19   C     C_R   0.635515 0.401266 0.138383 0.193322
C20   C     C_R   0.924793 0.373432 0.106034 -0.229767
H1    H     H_    0.065575 0.371745 0.136220 0.212283
H2    H     H_    0.195628 0.009473 0.488186 0.195876
H3    H     H_    0.805029 0.990720 0.513091 0.202833
H4    H     H_    0.471853 0.359730 0.433682 0.242746
H5    H     H_    0.528964 0.633758 0.574201 0.199471
H6    H     H_    0.930473 0.278963 0.944463 0.197051
H7    H     H_    0.973860 0.649739 0.860811 0.173488
H8    H     H_    0.387204 0.588419 0.136206 0.176689
H9    H     H_    0.110966 0.696763 0.057475 0.164199
H10   H     H_    0.337257 0.274461 0.727865 0.200000
N1    N     N_2   0.434800 0.456690 0.470850 -0.150064
N2    N     N_2   0.565200 0.543310 0.529150 -0.154636
O1    O     O_R   0.893060 0.738880 0.507150 -0.611884
O2    O     O_R   0.172250 0.711130 0.488470 -0.620626
O3    O     O_R   0.944700 0.520730 0.667600 -0.595586
O4    O     O_R   0.223890 0.492980 0.648920 -0.632001
O5    O     O_R   0.827750 0.288870 0.511530 -0.587447
O6    O     O_R   0.106940 0.261120 0.492850 -0.625783
O7    O     O_R   0.776110 0.507020 0.351080 -0.588241
O8    O     O_R   0.055300 0.479270 0.332400 -0.610552
Zn1   Zn    Zn3+2 0.813580 0.518530 0.512470 1.002960
Zn2   Zn    Zn3+2 0.186420 0.481470 0.487530 0.976888

loop_
_geom_bond_atom_site_label_1
_geom_bond_atom_site_label_2
_ccdc_geom_bond_type
O3    Zn1   S    
C4    O4    A    
O4    Zn2   S    
C6    O5    A    
C10   H7    S    
C2    C10   A    
O1    Zn1   S    
C9    C20   A    
C7    O7    A    
C17   C18   A    
C5    H3    S    
C1    O1    A    
C14   C18   A    
Br2   C19   S    
C11   C13   A    
N1    N2    D    
C4    O3    A    
C5    C6    S    
C8    C20   A    
O7    Zn1   S    
C12   C15   A    
C7    O8    A    
C3    H2    S    
O8    Zn2   S    
C1    O2    A    
C8    C16   A    
C2    C14   A    
C11   H9    S    
C15   C16   A    
C7    C9    S    
H5    N2    S    
C12   C14   A    
Br1   C17   S    
O2    Zn2   S    
O6    Zn2   S    
C10   C11   A    
C13   H8    S    
C2    C4    S    
C16   C17   A    
C18   H10   S    
C8    H6    S    
C3    C5    D    
C12   C13   A    
O5    Zn1   S    
C6    O6    A    
C20   H1    S    
N1    Zn2   S    
C9    C19   A    
C15   C19   A    
N2    Zn1   S    
H4    N1    S    
C1    C3    S    
