data_mof_unit_63781.cif
_audit_creation_date              2012-12-10T19:00:54-0500
_audit_creation_method            fapswitch 2.2
_symmetry_space_group_name_H-M    P1
_symmetry_Int_Tables_number       1
_space_group_crystal_system       triclinic
_cell_length_a                    10.789294
_cell_length_b                    14.253133
_cell_length_c                    13.361343
_cell_angle_alpha                 89.726428
_cell_angle_beta                  89.514817
_cell_angle_gamma                 90.436338
_cell_volume                      2054.5666156

loop_
_atom_site_label
_atom_site_type_symbol
_atom_type_description
_atom_site_fract_x
_atom_site_fract_y
_atom_site_fract_z
_atom_type_partial_charge
C1    C     C_R   0.500003 0.326554 0.500225 0.944194
C2    C     C_1   0.498297 0.957673 0.500536 0.001806
C3    C     C_1   0.497765 0.858644 0.500281 -0.014381
C4    C     C_1   0.497459 0.774103 0.500073 -0.251576
C5    C     C_1   0.499998 0.500031 0.169409 0.053545
C6    C     C_1   0.499987 0.500027 0.830592 0.053725
C7    C     C_1   0.499990 0.500065 0.049528 -0.054104
C8    C     C_1   0.499983 0.500063 0.950473 -0.055644
C9    C     C_R   0.254977 0.507084 0.500517 0.898842
C10   C     C_R   0.744420 0.511648 0.499108 0.890655
C11   C     C_R   0.497453 0.673406 0.499953 0.901352
C12   C     C_3   0.066530 0.441311 0.574412 -0.474300
C13   C     C_3   0.070731 0.489601 0.395993 -0.436740
C14   C     C_3   0.926763 0.454730 0.583173 -0.451134
C15   C     C_3   0.930470 0.477851 0.398831 -0.422989
C16   C     C_3   0.076808 0.621190 0.537064 0.262773
C17   C     C_3   0.928885 0.628190 0.509998 0.275907
C18   C     C_3   0.120234 0.517346 0.501837 0.072813
C19   C     C_3   0.879865 0.520551 0.497819 0.057437
C20   C     C_1   0.499676 0.225896 0.500644 -0.242922
C21   C     C_1   0.499301 0.141312 0.500765 -0.011406
C22   C     C_1   0.498776 0.042243 0.500701 0.003048
H1    H     H_    0.108920 0.442380 0.649895 0.183993
H2    H     H_    0.097937 0.540270 0.337020 0.188524
H3    H     H_    0.900423 0.482144 0.657863 0.175955
H4    H     H_    0.889413 0.509248 0.330675 0.188826
H5    H     H_    0.085921 0.369941 0.544606 0.188239
H6    H     H_    0.111034 0.421482 0.371832 0.184787
H7    H     H_    0.881858 0.384186 0.578255 0.187768
H8    H     H_    0.906408 0.401720 0.395564 0.186581
N1    N     N_1   0.500000 0.499980 0.261870 -0.072516
N2    N     N_1   0.500000 0.499980 0.738130 -0.070406
O1    O     O_R   0.500000 0.373720 0.576470 -0.588532
O2    O     O_R   0.500000 0.373720 0.423530 -0.590034
O3    O     O_R   0.314810 0.499990 0.576450 -0.636687
O4    O     O_R   0.314810 0.499990 0.423550 -0.621359
O5    O     O_R   0.685190 0.499990 0.576450 -0.628710
O6    O     O_R   0.685190 0.499990 0.423550 -0.617912
O7    O     O_R   0.500000 0.626290 0.576440 -0.604456
O8    O     O_R   0.500000 0.626290 0.423560 -0.594473
Zn1   Zn    Zn3+2 0.500000 0.500010 0.602090 0.945147
Zn2   Zn    Zn3+2 0.500000 0.500010 0.397910 0.944952
C23   C     C_3   0.102462 0.627894 0.655819 -0.411485
C24   C     C_3   0.108084 0.723157 0.710234 -0.898299
H9    H     H_    0.155574 0.779653 0.667513 0.253468
H10   H     H_    0.015679 0.746093 0.735849 0.274522
H11   H     H_    0.161887 0.714264 0.780189 0.246528
H12   H     H_    0.039234 0.583322 0.700715 0.195998
H13   H     H_    0.194517 0.598424 0.671191 0.225961
C25   C     C_3   0.162862 0.702470 0.490202 -0.390851
C26   C     C_3   0.204252 0.706692 0.379489 -0.940092
H14   H     H_    0.247140 0.642017 0.352169 0.283965
H15   H     H_    0.131520 0.730081 0.327831 0.243837
H16   H     H_    0.277504 0.761536 0.372283 0.258625
H17   H     H_    0.121910 0.771666 0.505927 0.210248
H18   H     H_    0.251277 0.702257 0.531964 0.211294
C27   C     C_3   0.848870 0.680168 0.593159 -0.342940
C28   C     C_3   0.858179 0.788070 0.596692 -0.885185
H19   H     H_    0.954022 0.814298 0.588222 0.263050
H20   H     H_    0.801963 0.820854 0.537079 0.262075
H21   H     H_    0.820529 0.813128 0.669326 0.247466
H22   H     H_    0.749056 0.667207 0.581816 0.200333
H23   H     H_    0.863800 0.650422 0.668494 0.190149
C29   C     C_3   0.911600 0.685196 0.408347 -0.383197
C30   C     C_3   0.781202 0.697644 0.366528 -0.887223
H24   H     H_    0.715178 0.718672 0.424786 0.261996
H25   H     H_    0.783316 0.754518 0.309381 0.242848
H26   H     H_    0.748405 0.634070 0.327594 0.274324
H27   H     H_    0.948828 0.757282 0.416728 0.230650
H28   H     H_    0.964575 0.653909 0.346774 0.211349

loop_
_geom_bond_atom_site_label_1
_geom_bond_atom_site_label_2
_ccdc_geom_bond_type
C2    C22   T    
C9    O4    A    
C15   C19   S    
C23   C24   S    
C15   H4    S    
C13   H6    S    
O6    Zn2   S    
N1    Zn2   S    
C29   H28   S    
C23   H12   S    
O4    Zn2   S    
C25   H17   S    
O2    Zn2   S    
C24   H11   S    
C10   O6    A    
C10   C19   S    
N2    Zn1   S    
C26   H16   S    
O1    Zn1   S    
C29   C30   S    
C30   H26   S    
C28   H21   S    
O8    Zn2   S    
C2    C3    S    
C12   C14   S    
C1    O1    A    
C27   H22   S    
O7    Zn1   S    
C29   H27   S    
C24   H9    S    
C4    C11   S    
C11   O7    A    
C16   C23   S    
C27   C28   S    
C13   C18   S    
C10   O5    A    
C17   C19   S    
C16   C25   S    
C1    O2    A    
C27   H23   S    
C5    C7    S    
C13   C15   S    
C14   H3    S    
O5    Zn1   S    
C11   O8    A    
O3    Zn1   S    
C6    N2    T    
C5    N1    T    
C30   H25   S    
C12   H5    S    
C28   H20   S    
C3    C4    T    
C9    C18   S    
C7    C8    T    
C20   C21   T    
C15   H8    S    
C16   C18   S    
C30   H24   S    
C12   C18   S    
C12   H1    S    
C9    O3    A    
C23   H13   S    
C1    C20   S    
C6    C8    S    
C17   C29   S    
C14   H7    S    
C25   C26   S    
C28   H19   S    
C21   C22   S    
C14   C19   S    
C24   H10   S    
C25   H18   S    
C26   H14   S    
C13   H2    S    
C17   C27   S    
C16   C17   S    
C26   H15   S    
