data_mof_unit_62076.cif
_audit_creation_date              2012-12-10T17:18:51-0500
_audit_creation_method            fapswitch 2.2
_symmetry_space_group_name_H-M    P1
_symmetry_Int_Tables_number       1
_space_group_crystal_system       triclinic
_cell_length_a                    21.796288
_cell_length_b                    21.796345
_cell_length_c                    23.676432
_cell_angle_alpha                 90.001481
_cell_angle_beta                  89.99978
_cell_angle_gamma                 89.999775
_cell_volume                      11248.1854118

loop_
_atom_site_label
_atom_site_type_symbol
_atom_type_description
_atom_site_fract_x
_atom_site_fract_y
_atom_site_fract_z
_atom_type_partial_charge
C1    C     C_R   0.118605 0.499999 0.999996 0.846600
C2    C     C_R   0.500000 0.999998 0.108053 0.879970
C3    C     C_2   0.074289 0.683312 0.418316 0.914216
C4    C     C_2   0.683308 0.074171 0.581783 0.913915
C5    C     C_2   0.925691 0.683310 0.581666 0.914345
C6    C     C_2   0.316697 0.925816 0.581759 0.914072
C7    C     C_2   0.074242 0.316692 0.581720 0.914115
C8    C     C_2   0.315328 0.420551 0.922148 0.925148
C9    C     C_2   0.420744 0.684693 0.921980 0.925246
C10   C     C_2   0.684690 0.579299 0.922026 0.925292
C11   C     C_2   0.578994 0.315283 0.921788 0.925655
C12   C     C_2   0.315310 0.579348 0.077933 0.925220
C13   C     C_R   0.000001 0.499999 0.891947 0.879697
C14   C     C_2   0.420948 0.315287 0.078193 0.925510
C15   C     C_2   0.684676 0.420634 0.077911 0.925249
C16   C     C_2   0.579253 0.684695 0.078020 0.925275
C17   C     C_2   0.815302 0.920759 0.421960 0.925268
C18   C     C_2   0.920675 0.184685 0.422037 0.925254
C19   C     C_2   0.184695 0.079245 0.421976 0.925277
C20   C     C_2   0.079332 0.815306 0.422049 0.925257
C21   C     C_2   0.815309 0.079223 0.578041 0.925352
C22   C     C_2   0.920629 0.815314 0.577932 0.925160
C23   C     C_2   0.184698 0.920755 0.578028 0.925241
C24   C     C_R   0.500000 0.999997 0.891947 0.880030
C25   C     C_2   0.079309 0.184691 0.577970 0.925221
C26   C     C_R   0.499999 0.000001 0.608053 0.879892
C27   C     C_R   1.000000 0.500001 0.608053 0.879709
C28   C     C_R   0.500000 0.999999 0.391947 0.879831
C29   C     C_R   0.000000 0.500000 0.391947 0.879764
C30   C     C_1   0.000001 0.500002 0.168950 -0.069596
C31   C     C_1   0.499999 0.999997 0.168950 -0.069379
C32   C     C_1   0.000001 0.499998 0.831050 -0.069577
C33   C     C_R   0.500000 0.881399 0.000000 0.846707
C34   C     C_1   0.500000 0.999998 0.831050 -0.069371
C35   C     C_1   0.499999 0.000002 0.668950 -0.069479
C36   C     C_1   0.999999 0.500000 0.668950 -0.069563
C37   C     C_1   0.499999 0.999998 0.331050 -0.069475
C38   C     C_1   0.000001 0.500002 0.331050 -0.069575
C39   C     C_1   0.000001 0.500003 0.220042 0.051079
C40   C     C_1   0.500000 0.999996 0.220043 0.051065
C41   C     C_1   0.000001 0.499997 0.779958 0.051091
C42   C     C_1   0.499999 0.000000 0.779957 0.051053
C43   C     C_1   0.499999 0.000002 0.720043 0.051049
C44   C     C_R   0.881397 0.499999 0.000003 0.846757
C45   C     C_1   0.000000 0.499998 0.720043 0.051095
C46   C     C_1   0.500000 0.999996 0.279958 0.051064
C47   C     C_1   0.000001 0.500003 0.279957 0.051080
C48   C     C_R   0.217347 0.463059 0.960658 -0.078435
C49   C     C_R   0.463143 0.782664 0.960602 -0.078449
C50   C     C_R   0.782660 0.536886 0.960626 -0.078466
C51   C     C_R   0.536734 0.217326 0.960505 -0.078524
C52   C     C_R   0.217345 0.536914 0.039350 -0.078444
C53   C     C_R   0.463246 0.217327 0.039485 -0.078523
C54   C     C_R   0.782657 0.463092 0.039364 -0.078464
C55   C     C_R   0.499999 0.118600 0.999999 0.847096
C56   C     C_R   0.536857 0.782665 0.039402 -0.078451
C57   C     C_R   0.717333 0.963148 0.460595 -0.078501
C58   C     C_R   0.963104 0.282659 0.460626 -0.078481
C59   C     C_R   0.282664 0.036856 0.460600 -0.078444
C60   C     C_R   0.036903 0.717342 0.460637 -0.078457
C61   C     C_R   0.717334 0.036850 0.539409 -0.078492
C62   C     C_R   0.963084 0.717344 0.539357 -0.078454
C63   C     C_R   0.282665 0.963146 0.539401 -0.078455
C64   C     C_R   0.036883 0.282662 0.539378 -0.078460
C65   C     C_R   0.281737 0.461820 0.961606 -0.071798
C66   C     C_R   0.618601 0.000000 0.500002 0.846850
C67   C     C_R   0.461910 0.718273 0.961536 -0.071612
C68   C     C_R   0.718270 0.538116 0.961559 -0.071557
C69   C     C_R   0.537971 0.281711 0.961449 -0.071438
C70   C     C_R   0.281731 0.538142 0.038416 -0.071625
C71   C     C_R   0.462004 0.281715 0.038545 -0.071442
C72   C     C_R   0.718266 0.461859 0.038419 -0.071725
C73   C     C_R   0.538088 0.718274 0.038467 -0.071654
C74   C     C_R   0.781725 0.961915 0.461526 -0.071637
C75   C     C_R   0.961876 0.218268 0.461559 -0.071691
C76   C     C_R   0.218274 0.038087 0.461535 -0.071645
C77   C     C_R   0.999999 0.381397 0.499999 0.846728
C78   C     C_R   0.038127 0.781730 0.461568 -0.071759
C79   C     C_R   0.781726 0.038075 0.538474 -0.071624
C80   C     C_R   0.961852 0.781733 0.538421 -0.071780
C81   C     C_R   0.218275 0.961914 0.538467 -0.071632
C82   C     C_R   0.038114 0.218271 0.538442 -0.071664
C83   C     C_R   0.313749 0.499988 0.000006 -0.157259
C84   C     C_R   0.499999 0.686256 0.000001 -0.157235
C85   C     C_R   0.686252 0.499996 0.999994 -0.157285
C86   C     C_R   0.499990 0.313737 0.999998 -0.157229
C87   C     C_R   0.813743 0.999993 0.500001 -0.157217
C88   C     C_R   0.381398 0.000000 0.499999 0.846720
C89   C     C_R   0.999998 0.186254 0.500000 -0.157219
C90   C     C_R   0.186256 1.000000 0.500000 -0.157221
C91   C     C_R   0.999993 0.813749 0.499997 -0.157213
C92   C     C_R   0.500000 0.619179 0.000000 0.897660
C93   C     C_R   0.619178 0.500001 0.999999 0.897324
C94   C     C_R   0.499995 0.380818 0.999999 0.897285
C95   C     C_R   0.380823 0.499998 0.000001 0.897559
C96   C     C_R   0.000001 0.119178 0.500000 0.897605
C97   C     C_R   0.119179 1.000000 0.500000 0.897691
C98   C     C_R   0.999998 0.880822 0.499999 0.897875
C99   C     C_R   1.000000 0.618605 0.500001 0.846597
C100  C     C_R   0.880821 0.999997 0.500000 0.897729
C101  C     C_R   0.185512 0.499995 0.999998 -0.174465
C102  C     C_R   0.500000 0.814496 0.000001 -0.174390
C103  C     C_R   0.814491 0.499996 0.000001 -0.174424
C104  C     C_R   0.499995 0.185499 0.999998 -0.174203
C105  C     C_R   0.685503 0.999999 0.500002 -0.174391
C106  C     C_R   0.999996 0.314492 0.500000 -0.174438
C107  C     C_R   0.314495 0.000001 0.500000 -0.174404
C108  C     C_R   0.999998 0.685511 0.499999 -0.174483
C109  C     C_2   0.183320 0.425653 0.918354 0.914294
C110  C     C_R   0.000001 0.500001 0.108053 0.879726
C111  C     C_2   0.425812 0.816694 0.918242 0.914047
C112  C     C_2   0.816688 0.574244 0.918284 0.914051
C113  C     C_2   0.573917 0.183300 0.918025 0.913388
C114  C     C_2   0.183322 0.574319 0.081657 0.914135
C115  C     C_2   0.426042 0.183294 0.081937 0.913625
C116  C     C_2   0.816680 0.425715 0.081694 0.914114
C117  C     C_2   0.574185 0.816696 0.081766 0.914038
C118  C     C_2   0.683302 0.925823 0.418229 0.914074
C119  C     C_2   0.925735 0.316686 0.418294 0.914170
C120  C     C_2   0.316693 0.074183 0.418237 0.914017
Cu1   Cu    Cu3+1 0.000000 0.561790 0.000000 1.068078
Cu2   Cu    Cu3+1 0.500000 0.500000 0.055780 1.088167
Cu3   Cu    Cu3+1 0.000000 0.000000 0.444220 1.088217
Cu4   Cu    Cu3+1 1.000000 0.000000 0.555780 1.088205
Cu5   Cu    Cu3+1 0.561790 0.000000 0.000000 1.068103
Cu6   Cu    Cu3+1 0.000000 0.438210 0.000000 1.068132
Cu7   Cu    Cu3+1 0.438210 0.000000 0.000000 1.068092
Cu8   Cu    Cu3+1 0.500000 0.061790 0.500000 1.068097
Cu9   Cu    Cu3+1 0.061790 0.500000 0.500000 1.068082
Cu10  Cu    Cu3+1 0.500000 0.938210 0.500000 1.068062
Cu11  Cu    Cu3+1 0.938210 0.500000 0.500000 1.068090
Cu12  Cu    Cu3+1 0.500000 0.500000 0.944220 1.088151
H1    H     H_    0.168636 0.342330 0.883866 0.348448
H2    H     H_    0.842455 0.331330 0.383703 0.348453
H3    H     H_    0.331353 0.157433 0.383595 0.348431
H4    H     H_    0.157587 0.668652 0.383770 0.348448
H5    H     H_    0.668719 0.157399 0.616505 0.348443
H6    H     H_    0.842376 0.668611 0.616163 0.348441
H7    H     H_    0.331369 0.842560 0.616387 0.348435
H8    H     H_    0.157517 0.331354 0.616314 0.348452
H9    H     H_    0.329919 0.393963 0.841674 0.347809
H10   H     H_    0.394441 0.670059 0.841437 0.347716
H11   H     H_    0.670034 0.605628 0.841487 0.347732
H12   H     H_    0.342558 0.831361 0.883609 0.348438
H13   H     H_    0.604782 0.330182 0.841131 0.347656
H14   H     H_    0.329950 0.605741 0.158460 0.347739
H15   H     H_    0.394983 0.330048 0.158815 0.347676
H16   H     H_    0.670010 0.394209 0.158418 0.347772
H17   H     H_    0.605550 0.670053 0.158566 0.347729
H18   H     H_    0.829907 0.894449 0.341409 0.347730
H19   H     H_    0.894257 0.170084 0.341517 0.347753
H20   H     H_    0.170051 0.105529 0.341425 0.347725
H21   H     H_    0.105789 0.829874 0.341524 0.347760
H22   H     H_    0.830003 0.105441 0.658598 0.347720
H23   H     H_    0.831331 0.657516 0.883681 0.348448
H24   H     H_    0.894079 0.829818 0.658435 0.347776
H25   H     H_    0.170085 0.894446 0.658577 0.347718
H26   H     H_    0.105684 0.170065 0.658498 0.347747
H27   H     H_    0.657022 0.168734 0.883052 0.348460
H28   H     H_    0.168654 0.657636 0.116168 0.348441
H29   H     H_    0.342900 0.168662 0.116811 0.348456
H30   H     H_    0.831307 0.342431 0.116282 0.348457
H31   H     H_    0.657434 0.831349 0.116418 0.348439
H32   H     H_    0.668639 0.842576 0.383575 0.348438
O1    O     O_R   0.090160 0.552180 0.999990 -0.575605
O2    O     O_R   0.052180 0.409840 0.499990 -0.575614
O3    O     O_R   0.924684 0.195467 0.363943 -0.733717
O4    O     O_2   0.147964 0.116691 0.440294 -0.553634
O5    O     O_R   0.195435 0.075131 0.363881 -0.733743
O6    O     O_2   0.116695 0.852097 0.440399 -0.553775
O7    O     O_R   0.075356 0.804503 0.363955 -0.733734
O8    O     O_2   0.852003 0.116708 0.559727 -0.553582
O9    O     O_R   0.804615 0.075048 0.636139 -0.733728
O10   O     O_2   0.883318 0.852156 0.559579 -0.553852
O11   O     O_R   0.924525 0.804445 0.636020 -0.733726
O12   O     O_2   0.147953 0.883322 0.559714 -0.553653
O13   O     O_R   0.409840 0.947820 0.499990 -0.575620
O14   O     O_R   0.195462 0.924851 0.636120 -0.733742
O15   O     O_2   0.116723 0.147943 0.559626 -0.553709
O16   O     O_R   0.075264 0.195449 0.636067 -0.733705
O17   O     O_R   0.947820 0.590160 0.499990 -0.575620
O18   O     O_R   0.590160 0.947820 0.500010 -0.575631
O19   O     O_R   0.052180 0.590160 0.500010 -0.575597
O20   O     O_R   0.409840 0.052180 0.500010 -0.575610
O21   O     O_R   0.947820 0.409840 0.500010 -0.575597
O22   O     O_R   0.999980 0.552180 0.081400 -0.569243
O23   O     O_R   0.552180 0.000020 0.081400 -0.569248
O24   O     O_R   0.000020 0.447820 0.081400 -0.569226
O25   O     O_R   0.552180 0.909840 0.999990 -0.575626
O26   O     O_R   0.447820 0.999980 0.081400 -0.569368
O27   O     O_R   0.999980 0.447820 0.918600 -0.569227
O28   O     O_R   0.552180 0.999980 0.918600 -0.569349
O29   O     O_R   0.000020 0.552180 0.918600 -0.569268
O30   O     O_R   0.447820 0.000020 0.918600 -0.569254
O31   O     O_R   0.499980 0.052180 0.581400 -0.569239
O32   O     O_R   0.052180 0.500020 0.581400 -0.569270
O33   O     O_R   0.500020 0.947820 0.581400 -0.569295
O34   O     O_R   0.947820 0.499980 0.581400 -0.569247
O35   O     O_R   0.499980 0.947820 0.418600 -0.569286
O36   O     O_R   0.909840 0.447820 0.999990 -0.575581
O37   O     O_R   0.052180 0.499980 0.418600 -0.569238
O38   O     O_R   0.500020 0.052180 0.418600 -0.569279
O39   O     O_R   0.947820 0.500020 0.418600 -0.569245
O40   O     O_R   0.499980 0.590270 0.952910 -0.575844
O41   O     O_R   0.590270 0.500020 0.952910 -0.575908
O42   O     O_R   0.500020 0.409730 0.952910 -0.575882
O43   O     O_R   0.409730 0.499980 0.952910 -0.575793
O44   O     O_R   0.499980 0.409730 0.047090 -0.575870
O45   O     O_R   0.590270 0.499980 0.047090 -0.575802
O46   O     O_R   0.500020 0.590270 0.047090 -0.575842
O47   O     O_R   0.447820 0.090160 0.999990 -0.575602
O48   O     O_R   0.409730 0.500020 0.047090 -0.575844
O49   O     O_R   0.999980 0.090270 0.452910 -0.575827
O50   O     O_R   0.090270 0.000020 0.452910 -0.575829
O51   O     O_R   0.000020 0.909730 0.452910 -0.575811
O52   O     O_R   0.909730 0.999980 0.452910 -0.575828
O53   O     O_R   0.999980 0.909730 0.547090 -0.575799
O54   O     O_R   0.090270 0.999980 0.547090 -0.575857
O55   O     O_R   0.000020 0.090270 0.547090 -0.575870
O56   O     O_R   0.909730 0.000020 0.547090 -0.575818
O57   O     O_2   0.145848 0.450112 0.887197 -0.598698
O58   O     O_R   0.090160 0.447820 0.000010 -0.575613
O59   O     O_R   0.194409 0.362630 0.914218 -0.721622
O60   O     O_2   0.450324 0.854183 0.887138 -0.598814
O61   O     O_R   0.362804 0.805580 0.913985 -0.721641
O62   O     O_2   0.854189 0.549757 0.887175 -0.598720
O63   O     O_R   0.805558 0.637251 0.914053 -0.721661
O64   O     O_2   0.549320 0.145728 0.887060 -0.599044
O65   O     O_R   0.636885 0.194511 0.913494 -0.721660
O66   O     O_2   0.145834 0.549862 0.112797 -0.598661
O67   O     O_R   0.194431 0.637337 0.085818 -0.721664
O68   O     O_2   0.450636 0.145769 0.112949 -0.598980
O69   O     O_R   0.552180 0.090160 0.000010 -0.575571
O70   O     O_R   0.363054 0.194444 0.086385 -0.721652
O71   O     O_2   0.854197 0.450183 0.112800 -0.598760
O72   O     O_R   0.805536 0.362709 0.085917 -0.721630
O73   O     O_2   0.549674 0.854199 0.112858 -0.598829
O74   O     O_R   0.637190 0.805570 0.086036 -0.721641
O75   O     O_2   0.645805 0.950338 0.387135 -0.598806
O76   O     O_R   0.694418 0.862817 0.413959 -0.721652
O77   O     O_2   0.950213 0.354196 0.387188 -0.598750
O78   O     O_R   0.862727 0.305555 0.414069 -0.721650
O79   O     O_2   0.354191 0.049671 0.387139 -0.598818
O80   O     O_R   0.909840 0.552180 0.000010 -0.575615
O81   O     O_R   0.305573 0.137189 0.413974 -0.721646
O82   O     O_2   0.049821 0.645816 0.387190 -0.598716
O83   O     O_R   0.137303 0.694424 0.414132 -0.721656
O84   O     O_2   0.645759 0.049669 0.612833 -0.598879
O85   O     O_R   0.694494 0.137160 0.586118 -0.721662
O86   O     O_2   0.950161 0.645842 0.612818 -0.598696
O87   O     O_R   0.862666 0.694388 0.585809 -0.721645
O88   O     O_2   0.354186 0.950328 0.612864 -0.598789
O89   O     O_R   0.305589 0.862806 0.586009 -0.721652
O90   O     O_2   0.049751 0.354185 0.612836 -0.598734
O91   O     O_R   0.447820 0.909840 0.000010 -0.575635
O92   O     O_R   0.137253 0.305576 0.585943 -0.721637
O93   O     O_2   0.352117 0.383217 0.940557 -0.553894
O94   O     O_R   0.304533 0.424430 0.864049 -0.733680
O95   O     O_2   0.383306 0.647954 0.940299 -0.553602
O96   O     O_R   0.424844 0.695444 0.863886 -0.733736
O97   O     O_2   0.647964 0.616734 0.940367 -0.553664
O98   O     O_R   0.695419 0.575217 0.863927 -0.733715
O99   O     O_2   0.616667 0.351816 0.940032 -0.553320
O100  O     O_R   0.574476 0.304782 0.863680 -0.733738
O101  O     O_2   0.352056 0.616752 0.059578 -0.553693
O102  O     O_R   0.590160 0.052180 0.499990 -0.575593
O103  O     O_R   0.304563 0.575318 0.136032 -0.733720
O104  O     O_2   0.383363 0.351912 0.059945 -0.553378
O105  O     O_R   0.425324 0.304664 0.136288 -0.733747
O106  O     O_2   0.647946 0.383225 0.059529 -0.553835
O107  O     O_R   0.695401 0.424647 0.136015 -0.733675
O108  O     O_2   0.616695 0.647961 0.059698 -0.553620
O109  O     O_R   0.575148 0.695438 0.136115 -0.733738
O110  O     O_2   0.852059 0.883333 0.440267 -0.553652
O111  O     O_R   0.804528 0.924849 0.363868 -0.733740
O112  O     O_2   0.883293 0.147908 0.440383 -0.553761

loop_
_geom_bond_atom_site_label_1
_geom_bond_atom_site_label_2
_ccdc_geom_bond_type
C118  O75   D    
C17   O111  S    
Cu1   O80   S    
C57   C105  A    
C98   O51   A    
Cu4   O56   S    
H24   O11   S    
Cu12  O42   S    
C59   C120  S    
C29   O39   A    
C100  O56   A    
Cu3   O51   S    
C7    O92   S    
C2    O26   A    
C77   O21   A    
C14   C71   S    
C5    O87   S    
C13   C32   S    
C20   O6    D    
C16   C73   S    
C34   C42   T    
Cu8   O31   S    
C72   C85   A    
C93   O41   A    
C35   C43   T    
C79   C87   A    
C17   O110  D    
C14   O105  S    
Cu3   O50   S    
C88   O13   A    
C66   O18   A    
C40   C46   S    
C99   C108  S    
H23   O63   S    
C18   C75   S    
C82   C89   A    
Cu9   O2    S    
C30   C110  S    
Cu7   O91   S    
C95   O48   A    
H27   O65   S    
C62   C80   A    
C19   C76   S    
H7    O89   S    
C4    O85   S    
C88   O20   A    
C62   C108  A    
C53   C104  A    
Cu6   O36   S    
C77   C106  S    
C60   C78   A    
C31   C40   T    
C33   O25   A    
C56   C102  A    
C56   C117  S    
H21   O7    S    
Cu2   Cu12  S    
C8    O93   D    
C21   O8    D    
C26   O33   A    
H26   O16   S    
C12   O101  D    
C4    O84   D    
C23   O14   S    
C86   C94   S    
C51   C69   A    
C22   O10   D    
Cu1   O22   S    
C2    O23   A    
C92   O46   A    
H2    O78   S    
H29   O70   S    
C28   C37   S    
C54   C116  S    
C29   C38   S    
H32   O76   S    
C50   C103  A    
C32   C41   T    
Cu2   O46   S    
H8    O92   S    
C3    O82   D    
C11   O99   D    
C48   C65   A    
C15   O106  D    
Cu11  O39   S    
C90   C97   S    
C99   O19   A    
C60   C108  A    
C49   C111  S    
H30   O72   S    
C3    C60   S    
C22   C80   S    
H1    O59   S    
Cu9   O19   S    
Cu4   O55   S    
C117  O73   D    
C67   C84   A    
C112  O63   S    
C13   O29   A    
Cu3   O52   S    
C68   C85   A    
H16   O107  S    
C116  O72   S    
C66   O102  A    
Cu6   O27   S    
C27   O34   A    
C3    O83   S    
C55   O69   A    
C15   O107  S    
C26   O31   A    
C49   C67   A    
Cu1   O29   S    
C16   O108  D    
C44   C103  S    
C14   O104  D    
C58   C75   A    
C22   O11   S    
C18   O112  D    
C95   O43   A    
Cu4   O54   S    
C52   C101  A    
Cu12  O40   S    
C28   O35   A    
C112  O62   D    
C92   O40   A    
C33   C102  S    
Cu7   O26   S    
Cu2   O44   S    
C54   C103  A    
Cu3   Cu4   S    
Cu11  O34   S    
C94   O44   A    
H18   O111  S    
H6    O87   S    
Cu10  O18   S    
Cu7   O30   S    
C49   C102  A    
C88   C107  S    
C113  O64   D    
H10   O96   S    
C23   O12   D    
C77   O2    A    
C11   O100  S    
C19   O4    D    
C55   C104  S    
C24   C34   S    
C96   O49   A    
C10   O98   S    
H4    O83   S    
Cu8   Cu10  S    
C2    C31   S    
C58   C106  A    
C120  O79   D    
H17   O109  S    
C6    C63   S    
C9    C67   S    
H3    O81   S    
C15   C72   S    
Cu10  O13   S    
C71   C86   A    
C8    C65   S    
C85   C93   S    
C24   O30   A    
H9    O94   S    
C110  O24   A    
C21   C79   S    
H13   O100  S    
Cu6   O58   S    
C52   C70   A    
C115  O68   D    
Cu2   O45   S    
C111  O61   S    
C36   C45   T    
C24   O28   A    
H11   O98   S    
Cu8   O38   S    
C83   C95   S    
C78   C91   A    
C64   C106  A    
C70   C83   A    
C119  O77   D    
C64   C82   A    
C38   C47   T    
H31   O74   S    
C81   C90   A    
Cu11  O21   S    
Cu7   O47   S    
C63   C81   A    
C117  O74   S    
C44   O36   A    
C21   O9    S    
C97   O50   A    
Cu3   O49   S    
C7    O90   D    
C93   O45   A    
C25   C82   S    
C74   C87   A    
Cu2   O48   S    
H12   O61   S    
C98   O53   A    
C120  O81   S    
C66   C105  S    
C63   C107  A    
Cu10  O35   S    
C53   C71   A    
C1    C101  S    
C114  O67   S    
Cu9   O32   S    
C109  O57   D    
C44   O80   A    
C39   C47   S    
C87   C100  S    
C110  O22   A    
C118  O76   S    
C30   C39   T    
C12   C70   S    
Cu4   O53   S    
C100  O52   A    
Cu10  O33   S    
C41   C45   S    
C56   C73   A    
C73   C84   A    
H22   O9    S    
C1    O1    A    
C5    O86   D    
C51   C113  S    
C23   C81   S    
C19   O5    S    
C16   O109  S    
C109  O59   S    
C114  O66   D    
H5    O85   S    
C18   O3    S    
C25   O15   D    
C113  O65   S    
C27   O32   A    
C10   C68   S    
C94   O42   A    
C96   O55   A    
C33   O91   A    
C25   O16   S    
C13   O27   A    
C10   O97   D    
C6    O88   D    
Cu5   O23   S    
C27   C36   S    
C28   O38   A    
H25   O14   S    
C89   C96   S    
C9    O95   D    
C50   C112  S    
C51   C104  A    
C12   O103  S    
Cu9   O37   S    
Cu1   Cu6   S    
H15   O105  S    
C11   C69   S    
H20   O5    S    
Cu11  O17   S    
C29   O37   A    
C17   C74   S    
C52   C114  S    
C20   C78   S    
C61   C79   A    
C80   C91   A    
H19   O3    S    
C48   C101  A    
C4    C61   S    
C116  O71   D    
Cu6   O24   S    
C58   C119  S    
C61   C105  A    
Cu1   O1    S    
C5    C62   S    
C48   C109  S    
Cu5   O28   S    
C111  O60   D    
C115  O70   S    
C91   C98   S    
C8    O94   S    
H14   O103  S    
C119  O78   S    
C59   C107  A    
C7    C64   S    
C99   O17   A    
Cu5   O69   S    
C75   C89   A    
C55   O47   A    
C26   C35   S    
Cu12  O41   S    
C20   O7    S    
C54   C72   A    
C6    O89   S    
Cu12  O43   S    
C42   C43   S    
C9    O96   S    
C76   C90   A    
Cu5   Cu7   S    
Cu8   O102  S    
C97   O54   A    
C1    O58   A    
Cu5   O25   S    
Cu8   O20   S    
C84   C92   S    
C37   C46   T    
C50   C68   A    
C59   C76   A    
C65   C83   A    
C69   C86   A    
C53   C115  S    
H28   O67   S    
C57   C118  S    
Cu9   Cu11  S    
C57   C74   A    
