data_mof_unit_64847.cif
_audit_creation_date              2012-12-10T16:42:45-0500
_audit_creation_method            fapswitch 2.2
_symmetry_space_group_name_H-M    P1
_symmetry_Int_Tables_number       1
_space_group_crystal_system       triclinic
_cell_length_a                    19.272004
_cell_length_b                    18.790401
_cell_length_c                    19.122437
_cell_angle_alpha                 109.254591
_cell_angle_beta                  110.476691
_cell_angle_gamma                 109.492242
_cell_volume                      5276.24313765

loop_
_atom_site_label
_atom_site_type_symbol
_atom_type_description
_atom_site_fract_x
_atom_site_fract_y
_atom_site_fract_z
_atom_type_partial_charge
C1    C     C_R   0.383903 0.381132 0.500254 0.827388
C2    C     C_R   0.763347 0.577988 0.745006 -0.011982
C3    C     C_R   0.811436 0.500147 0.811347 -0.164152
C4    C     C_R   0.735200 0.419143 0.740881 0.063013
C5    C     C_R   0.666419 0.423126 0.687188 0.001721
C6    C     C_R   0.683389 0.500626 0.684575 -0.116376
C7    C     C_R   0.722633 0.333779 0.720725 0.151349
C8    C     C_R   0.639006 0.260987 0.669969 -0.142077
C9    C     C_R   0.568563 0.268686 0.629435 0.182334
C10   C     C_R   0.582745 0.348643 0.634793 -0.198428
C11   C     C_2   0.263852 0.238746 0.569683 -0.152222
C12   C     C_R   0.617656 0.500327 0.617935 0.791991
C13   C     C_2   0.179478 0.200547 0.515929 -0.342198
C14   C     C_2   0.324553 0.314081 0.572616 0.164333
C15   C     C_2   0.320859 0.309022 0.498445 0.021087
C16   C     C_2   0.168402 0.478361 0.239271 -0.161724
C17   C     C_2   0.183303 0.508370 0.188315 -0.358738
C18   C     C_2   0.239088 0.490446 0.314959 0.195285
C19   C     C_2   0.307917 0.489508 0.312017 -0.314106
C20   C     C_2   0.736555 0.755592 0.427964 -0.161924
C21   C     C_2   0.821419 0.797782 0.486295 0.027804
C22   C     C_2   0.672818 0.681370 0.423876 -0.158699
C23   C     C_R   0.614026 0.618461 0.497825 0.835694
C24   C     C_2   0.673949 0.688999 0.496453 -0.320240
C25   C     C_R   0.994145 0.381658 0.877782 0.875893
C26   C     C_R   0.878600 0.500024 0.878368 0.826789
C27   C     C_R   0.000096 0.618469 0.116494 0.838119
C28   C     C_R   0.115136 0.501711 0.116700 0.857960
C29   C     C_R   0.004522 0.122377 0.617407 0.860717
C30   C     C_R   0.116728 0.121988 0.504641 0.851124
C31   C     C_R   0.998716 0.881052 0.382691 0.844460
C32   C     C_R   0.883069 0.877735 0.495907 0.820699
C33   C     C_2   0.980108 0.246582 0.669868 0.111173
C34   C     C_R   0.379245 0.496894 0.381317 0.850535
C35   C     C_2   0.021894 0.203000 0.686622 0.003824
C36   C     C_2   0.992758 0.321930 0.741394 0.131010
C37   C     C_2   0.982451 0.311933 0.804150 -0.332022
C38   C     C_2   0.009706 0.750752 0.322920 -0.156991
C39   C     C_2   0.992726 0.811642 0.313504 -0.310810
C40   C     C_2   0.996849 0.677922 0.249293 -0.148549
C41   C     C_2   0.009088 0.688516 0.187751 -0.310206
C42   C     C_R   0.785048 0.652621 0.736186 -0.214992
C43   C     C_R   0.859750 0.732372 0.801117 0.192975
C44   C     C_R   0.910214 0.740766 0.880787 0.225616
C45   C     C_R   0.885724 0.666179 0.890914 0.159212
C46   C     C_R   0.821397 0.581380 0.816981 0.017428
Cu1   Cu    Cu3+1 0.500390 0.438990 0.439360 0.945697
Cu2   Cu    Cu3+1 0.499610 0.561010 0.560640 0.941770
Cu3   Cu    Cu3+1 0.935830 0.439030 0.996840 0.938997
Cu4   Cu    Cu3+1 0.057850 0.561040 0.996790 0.958853
Cu5   Cu    Cu3+1 0.061410 0.000010 0.561410 0.946147
Cu6   Cu    Cu3+1 0.938590 0.999990 0.438590 0.958102
H1    H     H_    0.155103 0.229432 0.479942 0.162424
H2    H     H_    0.103817 0.448759 0.228307 0.168019
H3    H     H_    0.248574 0.544839 0.203130 0.155117
H4    H     H_    0.308284 0.473914 0.252218 0.124729
H5    H     H_    0.712652 0.777046 0.383330 0.147499
H6    H     H_    0.623179 0.622933 0.361548 0.161519
H7    H     H_    0.744562 0.649239 0.677683 0.155995
H8    H     H_    0.717894 0.751447 0.556656 0.168260
H9    H     H_    0.959573 0.247781 0.798356 0.135761
H10   H     H_    0.027825 0.750928 0.383559 0.161471
H11   H     H_    0.965636 0.806040 0.250358 0.154463
H12   H     H_    0.981251 0.616232 0.248114 0.159967
H13   H     H_    0.033900 0.752609 0.193677 0.152192
H14   H     H_    0.628953 0.196820 0.658120 0.147829
H15   H     H_    0.528015 0.352072 0.597835 0.130001
H16   H     H_    0.288963 0.215390 0.611893 0.173542
O1    O     O_R   0.411310 0.359450 0.448800 -0.591934
O2    O     O_R   0.048900 0.462510 0.908320 -0.546439
O3    O     O_R   0.855710 0.448510 0.907250 -0.578283
O4    O     O_R   0.958760 0.551540 0.907200 -0.573754
O5    O     O_R   0.944780 0.537560 0.085320 -0.579601
O6    O     O_R   0.047820 0.640590 0.085270 -0.600168
O7    O     O_R   0.034920 0.448530 0.086440 -0.587513
O8    O     O_R   0.137970 0.551560 0.086390 -0.587879
O9    O     O_R   0.051300 0.089020 0.640330 -0.591279
O10   O     O_R   0.947570 0.089010 0.536620 -0.558018
O11   O     O_R   0.140880 0.089030 0.551840 -0.586420
O12   O     O_R   0.410660 0.462490 0.551220 -0.592763
O13   O     O_R   0.037150 0.089020 0.448130 -0.589469
O14   O     O_R   0.052430 0.910990 0.463380 -0.581235
O15   O     O_R   0.948700 0.910980 0.359670 -0.589051
O16   O     O_R   0.962850 0.910980 0.551870 -0.580866
O17   O     O_R   0.859120 0.910970 0.448160 -0.599686
O18   O     O_R   0.589930 0.448490 0.538390 -0.582629
O19   O     O_R   0.589280 0.551530 0.640800 -0.584686
O20   O     O_R   0.589340 0.537510 0.448780 -0.577433
O21   O     O_R   0.588690 0.640550 0.551200 -0.589441
O22   O     O_R   0.410720 0.448470 0.359200 -0.591768
O23   O     O_R   0.410070 0.551510 0.461610 -0.576339
O24   O     O_R   0.945860 0.359480 0.908360 -0.608339
N1    N     N_3   0.483690 0.193242 0.578196 -0.588981
H17   H     H_    0.479914 0.149176 0.524457 0.215269
H18   H     H_    0.437739 0.210197 0.554442 0.221628
C47   C     C_3   0.393959 0.392533 0.661169 -0.839006
H19   H     H_    0.390319 0.379949 0.712975 0.227487
H20   H     H_    0.458526 0.407929 0.670685 0.221740
H21   H     H_    0.385931 0.449914 0.668810 0.249257
C48   C     C_3   0.260720 0.223535 0.411660 -0.887946
H22   H     H_    0.278696 0.224180 0.362661 0.247517
H23   H     H_    0.261947 0.167750 0.419195 0.245583
H24   H     H_    0.194283 0.211562 0.383191 0.229739
C49   C     C_3   0.228312 0.496952 0.390933 -0.801535
H25   H     H_    0.164639 0.489181 0.378101 0.209918
H26   H     H_    0.233163 0.444800 0.403836 0.222032
H27   H     H_    0.278310 0.562120 0.449238 0.246753
C50   C     C_3   0.859848 0.761089 0.539084 -0.818426
H28   H     H_    0.914475 0.759377 0.532727 0.231175
H29   H     H_    0.884069 0.803979 0.608187 0.223425
H30   H     H_    0.814863 0.692868 0.517693 0.246742
N2    N     N_3   0.920680 0.219223 0.582679 -0.570764
H31   H     H_    0.861818 0.208455 0.577546 0.214473
H32   H     H_    0.943684 0.270268 0.571050 0.210293
C51   C     C_3   0.095773 0.239407 0.776871 -0.890992
H33   H     H_    0.151301 0.236956 0.773328 0.245862
H34   H     H_    0.121536 0.309172 0.821821 0.244752
H35   H     H_    0.074649 0.199585 0.805055 0.237192
N3    N     N_3   0.011248 0.402191 0.740658 -0.559559
H36   H     H_    0.959539 0.389311 0.685824 0.205756
H37   H     H_    0.065488 0.422749 0.734926 0.221574
C52   C     C_3   0.879040 0.807132 0.783369 -0.880884
H38   H     H_    0.936933 0.869841 0.838327 0.242897
H39   H     H_    0.888819 0.789775 0.727676 0.227123
H40   H     H_    0.823700 0.818102 0.766653 0.233936
C53   C     C_3   0.987632 0.829091 0.954415 -0.878517
H41   H     H_    0.033172 0.852706 0.933417 0.233761
H42   H     H_    0.966573 0.876765 0.973730 0.235991
H43   H     H_    0.024703 0.827927 0.012714 0.234257
C54   C     C_3   0.913158 0.681387 0.981107 -0.840912
H44   H     H_    0.982169 0.703369 0.015939 0.255100
H45   H     H_    0.903056 0.733380 0.016547 0.223320
H46   H     H_    0.874572 0.623086 0.981829 0.217282
C55   C     C_3   0.793616 0.313273 0.736091 -0.832684
H47   H     H_    0.854461 0.369237 0.756276 0.223634
H48   H     H_    0.801134 0.290654 0.783467 0.258526
H49   H     H_    0.776737 0.259460 0.674756 0.209753

loop_
_geom_bond_atom_site_label_1
_geom_bond_atom_site_label_2
_ccdc_geom_bond_type
C19   H4    S    
Cu5   O11   S    
C8    H14   S    
N1    H17   S    
C26   O4    A    
C15   C48   S    
C55   H49   S    
C34   O22   A    
C7    C8    A    
C45   C46   A    
C2    C46   A    
C44   C53   S    
C53   H41   S    
C31   O14   A    
C36   C37   D    
Cu4   O6    S    
C6    C12   S    
C5    C6    A    
C11   C14   S    
C51   H33   S    
C47   H21   S    
C33   C36   S    
C31   O15   A    
C50   H28   S    
C18   C19   D    
C14   C47   S    
C36   N3    S    
Cu4   O4    S    
C34   O23   A    
Cu1   O1    S    
C25   C37   S    
C29   O10   A    
C50   H29   S    
C8    C9    A    
C51   H34   S    
Cu2   O23   S    
C47   H20   S    
C23   C24   S    
C23   O21   A    
C35   C51   S    
C1    C15   S    
C27   O6    A    
C9    C10   A    
C17   H3    S    
C52   H40   S    
C45   C54   S    
N1    H18   S    
C26   O3    A    
N2    H31   S    
C2    C6    A    
C4    C7    A    
Cu6   O10   S    
N2    H32   S    
C49   H25   S    
C13   H1    S    
N3    H37   S    
C32   O16   A    
C21   C32   S    
Cu5   Cu6   S    
Cu1   O18   S    
C13   C30   S    
C7    C55   S    
C16   C17   D    
C41   H13   S    
C53   H43   S    
C10   H15   S    
C48   H24   S    
C1    O1    A    
Cu6   O15   S    
C54   H45   S    
C43   C44   A    
Cu5   O9    S    
Cu4   O8    S    
C27   C41   S    
C37   H9    S    
Cu1   Cu2   S    
Cu5   O14   S    
C24   H8    S    
C51   H35   S    
C47   H19   S    
Cu3   O7    S    
Cu2   O19   S    
C33   N2    S    
C18   C49   S    
C43   C52   S    
C55   H47   S    
C30   O11   A    
C40   C41   D    
C20   C22   S    
C23   O20   A    
Cu1   O22   S    
Cu3   O5    S    
C54   H46   S    
C42   C43   A    
Cu3   O24   S    
C52   H39   S    
C3    C4    A    
C28   O8    A    
C9    N1    S    
C11   H16   S    
C48   H23   S    
Cu6   O17   S    
C25   O24   A    
C53   H42   S    
C12   O19   A    
C17   C28   S    
C3    C26   S    
C44   C45   A    
C4    C5    A    
C19   C34   S    
C42   H7    S    
C22   H6    S    
C55   H48   S    
N3    H36   S    
C49   H26   S    
C39   H11   S    
C29   C35   S    
C3    C46   A    
C40   H12   S    
C50   H30   S    
C12   O18   A    
Cu2   O21   S    
Cu1   O20   S    
Cu2   O12   S    
C30   O13   A    
C54   H44   S    
Cu4   O2    S    
C5    C10   A    
C38   C40   S    
C11   C13   D    
C38   C39   D    
C2    C42   A    
C32   O17   A    
C48   H22   S    
C33   C35   D    
C31   C39   S    
C22   C24   D    
Cu6   O13   S    
C16   H2    S    
C21   C50   S    
C29   O9    A    
C20   C21   D    
C16   C18   S    
Cu3   Cu4   S    
Cu3   O3    S    
C52   H38   S    
C1    O12   A    
C14   C15   D    
C25   O2    A    
C20   H5    S    
C27   O5    A    
C28   O7    A    
Cu5   O16   S    
C49   H27   S    
C38   H10   S    
