data_mof_unit_39354.cif
_audit_creation_date              2012-12-11T14:29:24-0500
_audit_creation_method            fapswitch 2.2
_symmetry_space_group_name_H-M    P1
_symmetry_Int_Tables_number       1
_space_group_crystal_system       triclinic
_cell_length_a                    6.935247
_cell_length_b                    14.769374
_cell_length_c                    16.29797
_cell_angle_alpha                 90.5858
_cell_angle_beta                  90.429768
_cell_angle_gamma                 90.477324
_cell_volume                      1669.19573454

loop_
_atom_site_label
_atom_site_type_symbol
_atom_type_description
_atom_site_fract_x
_atom_site_fract_y
_atom_site_fract_z
_atom_type_partial_charge
O1    O     O_R   0.494400 0.416610 0.413880 -0.517178
O2    O     O_R   0.823920 0.406790 0.585520 -0.502233
O3    O     O_R   0.994250 0.583390 0.586120 -0.541755
C1    C     C_R   0.654160 0.383032 0.611585 0.794626
O4    O     O_R   0.824110 0.405730 0.414490 -0.545577
O5    O     O_R   0.994440 0.582310 0.413870 -0.538661
C2    C     C_R   0.655088 0.384481 0.385597 0.722584
O6    O     O_R   0.494210 0.417690 0.586130 -0.528784
O7    O     O_3   0.660810 0.557940 0.500000 -0.366469
V1    V     V_3+5 0.935650 0.489250 0.500000 1.705885
O8    O     O_R   0.324160 0.593210 0.414480 -0.518692
C3    C     C_R   0.154860 0.614903 0.386449 0.769523
O9    O     O_R   0.323970 0.594270 0.585510 -0.521403
C4    C     C_R   0.157569 0.619684 0.611896 0.754710
V2    V     V_3+5 0.435660 0.510750 0.500000 1.714846
O10   O     O_3   0.160630 0.442060 0.500000 -0.346450
C5    C     C_R   0.084825 0.557877 0.784331 0.090493
C6    C     C_R   0.009722 0.531831 0.860552 0.168534
C7    C     C_R   0.976395 0.596091 0.921002 0.588883
C8    C     C_R   0.017323 0.686594 0.907681 0.422273
C9    C     C_R   0.079088 0.717403 0.829655 -0.184614
C10   C     C_R   0.106573 0.652236 0.764692 -0.101142
C11   C     C_R   0.110990 0.811320 0.815500 -0.017689
C12   C     C_R   0.152374 0.841360 0.735392 -0.176129
C13   C     C_R   0.203492 0.777617 0.673175 -0.144862
C14   C     C_R   0.161087 0.683251 0.684605 0.024320
C15   C     C_R   0.142667 0.934759 0.715213 0.376373
C16   C     C_R   0.194967 0.964487 0.637923 0.525849
C17   C     C_R   0.276171 0.904769 0.582387 0.551180
C18   C     C_R   0.293065 0.813027 0.601373 0.045673
C19   C     C_2   0.004562 0.695157 0.268525 0.194330
C20   C     C_2   0.143090 0.690534 0.327719 0.030362
C21   C     C_2   0.979001 0.776270 0.216642 0.319191
C22   C     C_2   0.123609 0.806196 0.168604 -0.249833
H1    H     H_    0.261193 0.771554 0.171077 0.165390
C23   C     C_2   0.753596 0.191993 0.767539 -0.213701
C24   C     C_2   0.618357 0.189361 0.826946 0.085398
H2    H     H_    0.856197 0.137097 0.763852 0.222581
C25   C     C_2   0.782602 0.266231 0.707693 0.730930
C26   C     C_2   0.634525 0.310321 0.672791 -0.326095
H3    H     H_    0.488226 0.289631 0.686862 0.193245
C27   C     C_2   0.778858 0.210852 0.213732 0.676933
C28   C     C_2   0.617226 0.187086 0.172175 -0.328685
H4    H     H_    0.485604 0.224977 0.181301 0.194902
C29   C     C_2   0.788182 0.289563 0.271249 0.086920
C30   C     C_2   0.642041 0.311300 0.322969 0.368466
O11   O     O_R   0.770210 0.079270 0.910680 -0.541610
O12   O     O_R   0.440150 0.091160 0.082270 -0.535804
O13   O     O_R   0.269970 0.914530 0.082860 -0.548241
C31   C     C_R   0.609687 0.113873 0.109788 0.797751
O14   O     O_R   0.440480 0.090100 0.911240 -0.520724
O15   O     O_R   0.270310 0.913460 0.910610 -0.557096
C32   C     C_R   0.609441 0.113047 0.884566 0.717983
O16   O     O_R   0.769870 0.080340 0.082930 -0.510297
O17   O     O_3   0.603660 0.938980 0.996790 -0.382416
V3    V     V_3+5 0.328750 0.007610 0.996740 1.681682
O18   O     O_R   0.940600 0.902510 0.911180 -0.516502
C33   C     C_R   0.107907 0.878781 0.884312 0.902999
O19   O     O_R   0.940270 0.903570 0.082200 -0.507603
C34   C     C_R   0.109126 0.881287 0.109647 0.857470
V4    V     V_3+5 0.828770 0.986010 0.996670 1.712163
O20   O     O_3   0.103730 0.054750 0.996710 -0.360442
F1    F     F_    0.353458 0.937875 0.512401 -0.526957
Br1   Br    Br    0.315400 0.790975 0.348992 -0.321225
Br2   Br    Br    0.730357 0.832990 0.220734 -0.355045
Br3   Br    Br    0.449059 0.288592 0.851687 -0.355627
F2    F     F_    0.965590 0.281338 0.681681 -0.584314
F3    F     F_    0.946444 0.166290 0.199212 -0.612816
Br4   Br    Br    0.027571 0.356936 0.267343 -0.329494
Br5   Br    Br    0.187698 0.459784 0.719823 -0.363145
F4    F     F_    0.477322 0.260600 0.322796 -0.629260
Br6   Br    Br    0.957173 0.407298 0.887207 -0.268458
F5    F     F_    0.909926 0.570272 0.995442 -0.553501
F6    F     F_    0.990842 0.742976 0.972622 -0.670682
F7    F     F_    0.074635 0.997998 0.768300 -0.672610
F8    F     F_    0.181762 0.053596 0.619359 -0.554613
Br7   Br    Br    0.508019 0.756771 0.548305 -0.376155
Br8   Br    Br    0.825389 0.597164 0.246893 -0.369854

loop_
_geom_bond_atom_site_label_1
_geom_bond_atom_site_label_2
_ccdc_geom_bond_type
C11   C33   S    
C22   C34   S    
O17   V3    S    
C17   F1    S    
C7    C8    A    
C12   C15   A    
C1    O6    A    
C21   Br2   S    
C29   C30   D    
C31   O16   A    
O13   C34   A    
C16   C17   A    
C6    C7    A    
O5    C3    A    
V2    O10   S    
C22   H1    S    
C18   Br7   S    
O8    V2    S    
C1    C26   S    
C11   C12   A    
C19   C21   S    
O1    V2    S    
O7    V1    S    
O11   C32   A    
C24   C32   S    
O12   C31   A    
C5    Br5   S    
O9    C4    A    
C3    C20   S    
C27   F3    S    
C15   F7    S    
C21   C22   D    
C9    C11   A    
C6    Br6   S    
O19   V4    S    
C29   Br4   S    
C2    C30   S    
C7    F5    S    
C12   C13   A    
C20   Br1   S    
C25   C26   D    
O4    C2    A    
C13   C14   A    
O14   C32   A    
C27   C29   S    
O2    C1    A    
C28   H4    S    
O5    V1    S    
C17   C18   A    
C19   C20   D    
C24   Br3   S    
C5    C6    A    
C8    F6    S    
C4    C14   S    
C30   F4    S    
O3    C4    A    
O15   C33   A    
C26   H3    S    
O6    V2    S    
O9    V2    S    
V3    O20   S    
C27   C28   D    
O2    V1    S    
C19   Br8   S    
C13   C18   A    
O12   V3    S    
C23   C24   D    
O1    C2    A    
C25   F2    S    
C23   C25   S    
O14   V3    S    
O11   V4    S    
O8    C3    A    
C28   C31   S    
O18   V4    S    
O16   V4    S    
O13   V3    S    
C5    C10   A    
C23   H2    S    
O7    V2    S    
O4    V1    S    
O3    V1    S    
V1    O10   S    
O18   C33   A    
O17   V4    S    
V4    O20   S    
O19   C34   A    
C8    C9    A    
C10   C14   A    
C15   C16   A    
C9    C10   A    
O15   V3    S    
C16   F8    S    
