data_mof_unit_37081.cif
_audit_creation_date              2012-12-10T17:06:14-0500
_audit_creation_method            fapswitch 2.2
_symmetry_space_group_name_H-M    P1
_symmetry_Int_Tables_number       1
_space_group_crystal_system       triclinic
_cell_length_a                    10.6239
_cell_length_b                    11.049481
_cell_length_c                    9.840618
_cell_angle_alpha                 111.43668
_cell_angle_beta                  98.178019
_cell_angle_gamma                 91.145287
_cell_volume                      1061.07637391

loop_
_atom_site_label
_atom_site_type_symbol
_atom_type_description
_atom_site_fract_x
_atom_site_fract_y
_atom_site_fract_z
_atom_type_partial_charge
C1    C     C_R   0.490500 0.253862 0.439987 0.744187
C2    C     C_R   0.508634 0.746103 0.560026 0.742134
C3    C     C_R   0.259447 0.498561 0.500691 0.820114
C4    C     C_R   0.740585 0.501545 0.499344 0.840970
C5    C     C_3   0.051975 0.466097 0.609423 0.600660
C6    C     C_3   0.948169 0.534157 0.390710 0.611162
C7    C     C_3   0.951429 0.379076 0.479556 -0.319287
C8    C     C_3   0.048721 0.621173 0.520595 -0.325242
C9    C     C_3   0.877122 0.501158 0.498470 -0.107926
C10   C     C_3   0.122981 0.499078 0.501646 -0.107922
C11   C     C_3   0.976940 0.587646 0.630653 -0.285464
C12   C     C_3   0.023190 0.412597 0.369487 -0.284367
C13   C     C_2   0.485355 0.113443 0.404425 0.314590
C14   C     C_2   0.512163 0.886472 0.595626 0.308587
C15   C     C_2   0.511240 0.069713 0.514620 -0.232119
C16   C     C_2   0.508656 0.930792 0.485696 -0.229008
C17   C     C_2   0.510781 0.510662 0.081478 -0.037978
C18   C     C_2   0.489144 0.489398 0.918527 -0.047927
Cu1   Cu    Cu3+1 0.522260 0.521810 0.644920 0.964440
Cu2   Cu    Cu3+1 0.477740 0.478190 0.355080 0.959676
H1    H     H_    0.908635 0.281450 0.463782 0.153077
H2    H     H_    0.091645 0.718788 0.536477 0.140473
H3    H     H_    0.500051 0.863082 0.371671 0.195313
H4    H     H_    0.531265 0.137715 0.628846 0.196314
H5    H     H_    0.415016 0.416544 0.845166 0.180225
H6    H     H_    0.584847 0.583578 0.154854 0.183535
H7    H     H_    0.625113 0.623502 0.935017 0.202785
H8    H     H_    0.375019 0.376341 0.064956 0.188851
N1    N     N_2   0.444270 0.445410 0.137360 -0.286404
N2    N     N_2   0.555730 0.554590 0.862640 -0.283614
O1    O     O_R   0.511880 0.332340 0.577400 -0.609669
O2    O     O_R   0.488120 0.667660 0.422600 -0.610644
O3    O     O_R   0.474280 0.295500 0.332650 -0.547234
O4    O     O_R   0.525720 0.704500 0.667350 -0.543093
O5    O     O_R   0.335640 0.518390 0.622350 -0.546204
O6    O     O_R   0.664360 0.481610 0.377650 -0.537963
O7    O     O_R   0.298050 0.481550 0.377590 -0.595018
O8    O     O_R   0.701950 0.518450 0.622410 -0.588882
O9    O     O_3   0.117041 0.431261 0.723410 -0.582247
C19   C     C_3   0.027943 0.400332 0.801139 -0.334516
H9    H     H_    0.964411 0.312434 0.729056 0.169732
H10   H     H_    0.970611 0.483944 0.849960 0.163006
H11   H     H_    0.080692 0.377553 0.893439 0.177025
O10   O     O_3   0.883245 0.568989 0.276650 -0.576052
C20   C     C_3   0.972514 0.600291 0.199341 -0.326446
H12   H     H_    0.030254 0.516950 0.150835 0.159817
H13   H     H_    0.035661 0.688416 0.271631 0.160804
H14   H     H_    0.919896 0.622880 0.106840 0.180131
H15   H     H_    0.955127 0.657618 0.737075 0.156356
H16   H     H_    0.045082 0.342618 0.263104 0.152412
O11   O     O_3   0.526957 0.971694 0.742015 -0.555435
C21   C     C_3   0.407000 0.980382 0.789157 -0.297937
H17   H     H_    0.370114 0.885358 0.789006 0.166180
H18   H     H_    0.336492 0.015927 0.719962 0.140120
H19   H     H_    0.417999 0.052105 0.904531 0.207276
O12   O     O_3   0.463095 0.028110 0.257898 -0.557279
C22   C     C_3   0.330436 0.010511 0.207827 -0.326192
H20   H     H_    0.290837 0.103036 0.208076 0.160250
H21   H     H_    0.279468 0.969799 0.274915 0.154583
H22   H     H_    0.312409 0.939279 0.092033 0.187285

loop_
_geom_bond_atom_site_label_1
_geom_bond_atom_site_label_2
_ccdc_geom_bond_type
C12   H16   S    
C4    O6    A    
C11   H15   S    
Cu1   O8    S    
C17   N1    D    
C8    H2    S    
C14   O11   S    
C21   H19   S    
C3    O5    A    
C13   O12   S    
Cu1   O1    S    
C19   H11   S    
C2    O4    A    
C6    C9    S    
C5    O9    S    
C17   C18   S    
C1    O3    A    
C5    C10   S    
C3    C10   S    
Cu1   O5    S    
C20   H12   S    
O12   C22   S    
H7    N2    S    
Cu2   O7    S    
C9    C11   S    
C22   H20   S    
C18   H5    S    
C10   C12   S    
C8    C11   S    
C18   N2    D    
Cu2   O3    S    
C19   H10   S    
C19   H9    S    
C21   H18   S    
C5    C11   S    
C16   H3    S    
C5    C7    S    
Cu2   N1    S    
C20   H13   S    
C13   C15   D    
C6    C12   S    
C7    C12   S    
C2    C14   S    
C14   C16   D    
C22   H21   S    
C1    C13   S    
C15   C16   S    
C17   H6    S    
O11   C21   S    
Cu2   O6    S    
C1    O1    A    
C21   H17   S    
C3    O7    A    
C2    O2    A    
C6    O10   S    
Cu2   O2    S    
C20   H14   S    
O9    C19   S    
C7    C9    S    
H8    N1    S    
C22   H22   S    
C6    C8    S    
C4    C9    S    
C7    H1    S    
Cu1   N2    S    
C15   H4    S    
C8    C10   S    
O10   C20   S    
Cu1   Cu2   S    
C4    O8    A    
Cu1   O4    S    
