data_mof_unit_46570.cif
_audit_creation_date              2012-12-11T14:43:55-0500
_audit_creation_method            fapswitch 2.2
_symmetry_space_group_name_H-M    P1
_symmetry_Int_Tables_number       1
_space_group_crystal_system       triclinic
_cell_length_a                    18.967343
_cell_length_b                    10.876661
_cell_length_c                    18.860758
_cell_angle_alpha                 90.077239
_cell_angle_beta                  89.745901
_cell_angle_gamma                 90.098056
_cell_volume                      3890.95256572

loop_
_atom_site_label
_atom_site_type_symbol
_atom_type_description
_atom_site_fract_x
_atom_site_fract_y
_atom_site_fract_z
_atom_type_partial_charge
C1    C     C_R   0.730184 0.377130 0.145842 0.552811
C2    C     C_R   0.269774 0.377344 0.854109 0.548543
C3    C     C_R   0.230185 0.877131 0.145842 0.552800
C4    C     C_R   0.769773 0.877345 0.854109 0.548543
C5    C     C_R   0.509722 0.391989 0.927170 -0.079048
C6    C     C_R   0.489254 0.391098 0.073534 -0.078900
C7    C     C_R   0.009705 0.891998 0.927174 -0.079038
C8    C     C_R   0.989242 0.891091 0.073540 -0.078892
C9    C     C_R   0.005300 0.002651 0.964272 -0.138475
C10   C     C_R   0.992969 0.002174 0.036946 -0.138075
C11   C     C_R   0.505324 0.502646 0.964264 -0.138495
C12   C     C_R   0.492988 0.502176 0.036936 -0.138105
C13   C     C_R   0.697417 0.866099 0.037931 -0.137270
C14   C     C_R   0.302331 0.865966 0.961836 -0.136746
C15   C     C_R   0.197409 0.366112 0.037930 -0.137269
C16   C     C_R   0.802339 0.365983 0.961837 -0.136744
C17   C     C_R   0.699681 0.853634 0.964526 -0.135607
C18   C     C_R   0.300071 0.853372 0.035228 -0.135377
C19   C     C_R   0.199674 0.353652 0.964525 -0.135616
C20   C     C_R   0.800077 0.353394 0.035230 -0.135387
C21   C     C_R   0.751652 0.916223 0.925358 0.031287
C22   C     C_R   0.248219 0.915828 0.074541 0.031099
C23   C     C_R   0.251658 0.416217 0.925361 0.031291
C24   C     C_R   0.748214 0.415826 0.074539 0.031097
C25   C     C_R   0.798430 0.995942 0.959453 -0.125368
C26   C     C_R   0.201474 0.995395 0.040566 -0.125178
C27   C     C_R   0.298451 0.495903 0.959462 -0.125367
C28   C     C_R   0.701457 0.495362 0.040559 -0.125177
C29   C     C_R   0.798143 0.004074 0.031899 -0.122071
C30   C     C_R   0.201753 0.003653 0.968125 -0.122293
C31   C     C_R   0.298164 0.504026 0.031908 -0.122087
C32   C     C_R   0.701738 0.503615 0.968119 -0.122304
C33   C     C_R   0.747826 0.939518 0.071973 0.033851
C34   C     C_R   0.252025 0.939376 0.927926 0.034284
C35   C     C_R   0.247830 0.439502 0.071977 0.033849
C36   C     C_R   0.752023 0.439365 0.927924 0.034280
C37   C     C_R   0.556838 0.057622 0.479047 -0.131311
C38   C     C_R   0.537244 0.059965 0.549912 -0.129069
C39   C     C_R   0.056795 0.557596 0.479036 -0.131334
C40   C     C_R   0.037213 0.559939 0.549903 -0.129118
C41   C     C_R   0.507302 0.166455 0.579398 0.026747
C42   C     C_R   0.547978 0.161963 0.436752 0.029765
C43   C     C_R   0.007307 0.666451 0.579401 0.026744
C44   C     C_R   0.047979 0.661965 0.436753 0.029771
C45   C     C_R   0.531192 0.155513 0.146700 0.550424
C46   C     C_R   0.468932 0.155742 0.853223 0.539334
C47   C     C_R   0.031192 0.655513 0.146700 0.550423
C48   C     C_R   0.968932 0.655742 0.853223 0.539343
C49   C     C_R   0.503489 0.274088 0.538681 -0.138809
C50   C     C_R   0.523932 0.271953 0.467627 -0.132680
C51   C     C_R   0.003530 0.774110 0.538695 -0.138736
C52   C     C_R   0.023980 0.771981 0.467642 -0.132565
C53   C     C_R   0.787168 0.026304 0.472926 -0.125364
C54   C     C_R   0.185968 0.952267 0.540243 -0.136170
C55   C     C_R   0.287385 0.526014 0.472877 -0.125365
C56   C     C_R   0.685856 0.451735 0.540336 -0.136217
C57   C     C_R   0.788659 0.012143 0.545362 -0.136210
C58   C     C_R   0.182340 0.946440 0.467758 -0.133657
C59   C     C_R   0.288853 0.511936 0.545315 -0.136189
C60   C     C_R   0.682183 0.445893 0.467851 -0.133586
C61   C     C_R   0.751128 0.916108 0.576668 0.031087
C62   C     C_R   0.240184 0.904468 0.427895 0.035369
C63   C     C_R   0.251140 0.416153 0.576672 0.031138
C64   C     C_R   0.740117 0.404328 0.427935 0.035347
C65   C     C_R   0.707858 0.839441 0.535165 -0.137280
C66   C     C_R   0.302296 0.869052 0.462023 -0.141652
C67   C     C_R   0.207709 0.339690 0.535211 -0.137263
C68   C     C_R   0.802334 0.369253 0.462010 -0.141851
C69   C     C_R   0.705731 0.854727 0.462118 -0.152811
C70   C     C_R   0.306947 0.879614 0.535324 -0.137793
C71   C     C_R   0.205593 0.354917 0.462157 -0.152749
C72   C     C_R   0.807012 0.379806 0.535310 -0.137851
C73   C     C_R   0.746707 0.946588 0.430688 0.033635
C74   C     C_R   0.249049 0.924073 0.574409 0.031056
C75   C     C_R   0.246738 0.446517 0.430678 0.033695
C76   C     C_R   0.749043 0.423934 0.574444 0.030987
C77   C     C_R   0.740764 0.972213 0.146177 0.551225
C78   C     C_R   0.259203 0.972324 0.853792 0.546346
C79   C     C_R   0.240765 0.472209 0.146179 0.551222
C80   C     C_R   0.759203 0.472321 0.853792 0.546339
C81   C     C_R   0.728217 0.375835 0.353871 0.541204
C82   C     C_R   0.270067 0.378556 0.647648 0.547822
C83   C     C_R   0.228234 0.875871 0.353855 0.541227
C84   C     C_R   0.770068 0.878544 0.647645 0.547801
C85   C     C_R   0.564186 0.153305 0.360966 0.561205
C86   C     C_R   0.469335 0.157296 0.646947 0.546951
C87   C     C_R   0.064186 0.653306 0.360966 0.561248
C88   C     C_R   0.969336 0.657296 0.646947 0.546947
C89   C     C_R   0.740366 0.975507 0.356107 0.542207
C90   C     C_R   0.258584 0.970307 0.645752 0.548028
C91   C     C_R   0.240372 0.475490 0.356103 0.542233
C92   C     C_R   0.758582 0.470282 0.645762 0.547996
C93   C     C_R   0.497134 0.164505 0.925470 0.000303
C94   C     C_R   0.503507 0.163944 0.074261 -0.000813
C95   C     C_R   0.997136 0.664508 0.925469 0.000303
C96   C     C_R   0.003510 0.663941 0.074260 -0.000808
C97   C     C_R   0.501711 0.278137 0.962525 0.032101
C98   C     C_R   0.498070 0.277761 0.037692 0.030832
C99   C     C_R   0.001704 0.778141 0.962527 0.032099
C100  C     C_R   0.998064 0.777759 0.037694 0.030826
C101  C     C_R   0.502122 0.053705 0.035910 -0.148999
C102  C     C_R   0.499935 0.053999 0.963284 -0.148645
C103  C     C_R   0.002136 0.553703 0.035906 -0.148996
C104  C     C_R   0.999949 0.554001 0.963280 -0.148650
Cr1   Cr    Cr6+3 0.772000 0.169640 0.250110 1.007008
Cr2   Cr    Cr6+3 0.228000 0.169640 0.749890 1.006220
Cr3   Cr    Cr6+3 0.272000 0.669640 0.250110 1.007005
Cr4   Cr    Cr6+3 0.728000 0.669640 0.749890 1.006220
Cr5   Cr    Cr6+3 0.614960 0.323350 0.249260 1.007757
Cr6   Cr    Cr6+3 0.385040 0.323350 0.750740 1.009990
Cr7   Cr    Cr6+3 0.114960 0.823350 0.249260 1.007774
Cr8   Cr    Cr6+3 0.885040 0.823350 0.750740 1.010015
Cr9   Cr    Cr6+3 0.616670 0.010620 0.250840 1.011016
Cr10  Cr    Cr6+3 0.383330 0.010620 0.749160 1.012064
Cr11  Cr    Cr6+3 0.116670 0.510620 0.250840 1.010995
Cr12  Cr    Cr6+3 0.883330 0.510620 0.749160 1.012027
H1    H     H_    0.505578 0.965074 0.061831 0.137665
H2    H     H_    0.497493 0.965506 0.936926 0.137200
H3    H     H_    0.005600 0.465070 0.061825 0.137661
H4    H     H_    0.997516 0.465509 0.936920 0.137191
H5    H     H_    0.817406 0.101066 0.450172 0.136755
H6    H     H_    0.140393 0.986187 0.569038 0.128093
H7    H     H_    0.317780 0.600573 0.450098 0.136633
H8    H     H_    0.640226 0.485374 0.569179 0.128045
H9    H     H_    0.822048 0.072382 0.576428 0.125184
H10   H     H_    0.132932 0.972010 0.443363 0.129988
H11   H     H_    0.322374 0.572024 0.576341 0.125182
H12   H     H_    0.632690 0.471168 0.443495 0.129954
H13   H     H_    0.678829 0.763649 0.558457 0.136329
H14   H     H_    0.346787 0.833577 0.432227 0.123091
H15   H     H_    0.178528 0.264101 0.558542 0.136103
H16   H     H_    0.846900 0.334085 0.432172 0.123098
H17   H     H_    0.521329 0.396938 0.871108 0.129690
H18   H     H_    0.477612 0.395281 0.129614 0.133288
H19   H     H_    0.021310 0.896955 0.871112 0.129698
H20   H     H_    0.977603 0.895266 0.129623 0.133291
H21   H     H_    0.010627 0.089100 0.936365 0.097746
H22   H     H_    0.987085 0.088236 0.065242 0.099152
H23   H     H_    0.510660 0.589091 0.936356 0.097751
H24   H     H_    0.487107 0.588240 0.065228 0.099154
H25   H     H_    0.662949 0.791748 0.938933 0.117137
H26   H     H_    0.336756 0.791597 0.060700 0.117522
H27   H     H_    0.162930 0.291792 0.938928 0.117121
H28   H     H_    0.836773 0.291643 0.060706 0.117508
H29   H     H_    0.838639 0.046471 0.930622 0.133229
H30   H     H_    0.161325 0.045818 0.069482 0.134226
H31   H     H_    0.338671 0.546412 0.930635 0.133248
H32   H     H_    0.661298 0.545767 0.069471 0.134243
H33   H     H_    0.576437 0.972708 0.456529 0.129469
H34   H     H_    0.541664 0.976030 0.580426 0.128746
H35   H     H_    0.076351 0.472658 0.456506 0.129407
H36   H     H_    0.041613 0.475984 0.580409 0.128706
H37   H     H_    0.480687 0.357413 0.560291 0.128767
H38   H     H_    0.517723 0.354534 0.436304 0.127178
H39   H     H_    0.980754 0.857455 0.560313 0.128784
H40   H     H_    0.017809 0.854589 0.436329 0.127243
O1    O     O_R   0.787540 0.042690 0.170470 -0.528346
O2    O     O_R   0.212460 0.042690 0.829530 -0.532365
O3    O     O_R   0.287540 0.542690 0.170470 -0.528351
O4    O     O_R   0.712460 0.542690 0.829530 -0.532372
O5    O     O_R   0.556540 0.252920 0.323970 -0.507362
O6    O     O_R   0.443460 0.252920 0.676030 -0.505266
O7    O     O_R   0.056540 0.752920 0.323970 -0.507328
O8    O     O_R   0.943460 0.752920 0.676030 -0.505246
O9    O     O_R   0.545870 0.051100 0.330840 -0.514402
O10   O     O_R   0.454130 0.051100 0.669160 -0.525079
O11   O     O_R   0.045870 0.551100 0.330840 -0.514454
O12   O     O_R   0.954130 0.551100 0.669160 -0.525125
O13   O     O_R   0.681340 0.959300 0.325510 -0.523071
O14   O     O_R   0.318660 0.959300 0.674490 -0.505287
O15   O     O_R   0.181340 0.459300 0.325510 -0.523076
O16   O     O_R   0.818660 0.459300 0.674490 -0.505326
O17   O     O_3   0.667880 0.167870 0.250070 -0.262945
O18   O     O_3   0.332120 0.167870 0.749930 -0.237100
O19   O     O_3   0.167880 0.667870 0.250070 -0.262918
O20   O     O_3   0.832120 0.667870 0.749930 -0.237102
O21   O     O_R   0.765660 0.292160 0.175050 -0.503932
O22   O     O_R   0.234340 0.292160 0.824950 -0.507554
O23   O     O_R   0.265660 0.792160 0.175050 -0.503939
O24   O     O_R   0.734340 0.792160 0.824950 -0.507549
O25   O     O_R   0.670190 0.408980 0.168550 -0.520886
O26   O     O_R   0.329810 0.408980 0.831450 -0.523510
O27   O     O_R   0.170190 0.908980 0.168550 -0.520888
O28   O     O_R   0.829810 0.908980 0.831450 -0.523508
O29   O     O_R   0.556580 0.251450 0.175160 -0.502292
O30   O     O_R   0.443420 0.251450 0.824840 -0.507973
O31   O     O_R   0.056580 0.751450 0.175160 -0.502293
O32   O     O_R   0.943420 0.751450 0.824840 -0.507976
O33   O     O_R   0.545920 0.049510 0.170320 -0.518347
O34   O     O_R   0.454080 0.049510 0.829680 -0.524063
O35   O     O_R   0.045920 0.549510 0.170320 -0.518352
O36   O     O_R   0.954080 0.549510 0.829680 -0.524058
O37   O     O_R   0.681390 0.957840 0.176710 -0.500971
O38   O     O_R   0.318610 0.957840 0.823290 -0.503066
O39   O     O_R   0.181390 0.457840 0.176710 -0.500977
O40   O     O_R   0.818610 0.457840 0.823290 -0.503067
O41   O     O_R   0.787500 0.044280 0.330990 -0.523453
O42   O     O_R   0.212500 0.044280 0.669010 -0.528400
O43   O     O_R   0.287500 0.544280 0.330990 -0.523498
O44   O     O_R   0.712500 0.544280 0.669010 -0.528372
O45   O     O_R   0.765610 0.293630 0.323860 -0.507976
O46   O     O_R   0.234390 0.293630 0.676140 -0.507904
O47   O     O_R   0.265610 0.793630 0.323860 -0.507961
O48   O     O_R   0.734390 0.793630 0.676140 -0.507926
O49   O     O_R   0.670140 0.410570 0.329080 -0.536009
O50   O     O_R   0.329860 0.410570 0.670920 -0.524459
O51   O     O_R   0.170140 0.910570 0.329080 -0.536043
O52   O     O_R   0.829860 0.910570 0.670920 -0.524399
H41   H     H_    0.672815 0.794878 0.430349 0.119463
H42   H     H_    0.356478 0.858215 0.560827 0.130661
H43   H     H_    0.172531 0.295251 0.430425 0.119366
H44   H     H_    0.856626 0.358706 0.560768 0.130792
H45   H     H_    0.656740 0.818809 0.067837 0.116429
H46   H     H_    0.342959 0.818827 0.931837 0.116235
H47   H     H_    0.156720 0.318846 0.067832 0.116429
H48   H     H_    0.842977 0.318867 0.931843 0.116241
H49   H     H_    0.836628 0.064383 0.056104 0.131547
H50   H     H_    0.163328 0.063888 0.944036 0.131606
H51   H     H_    0.336660 0.564307 0.056116 0.131548
H52   H     H_    0.663304 0.563828 0.944027 0.131607

loop_
_geom_bond_atom_site_label_1
_geom_bond_atom_site_label_2
_ccdc_geom_bond_type
C58   C62   A    
C87   O7    A    
C62   C83   S    
C15   C19   A    
C101  C102  A    
C56   C76   A    
C48   C95   S    
C55   C59   A    
C8    H20   S    
C85   O5    A    
C14   C18   A    
Cr7   O51   S    
C86   O10   A    
Cr5   O17   S    
C72   C76   A    
C45   O29   A    
C1    O25   A    
C97   C98   A    
Cr6   O6    S    
Cr8   O28   S    
C71   C75   A    
C66   C70   A    
C5    H17   S    
C41   C86   S    
C51   H39   S    
C57   C61   A    
C7    C99   A    
Cr10  O34   S    
C43   C88   S    
C32   C36   A    
C49   H37   S    
C85   O9    A    
C46   O34   A    
C48   O32   A    
C64   C68   A    
C79   O3    A    
C95   C99   A    
C80   O4    A    
C94   C98   A    
C59   H11   S    
C29   C33   A    
Cr4   O48   S    
C79   O39   A    
C40   H36   S    
C17   H25   S    
C78   O38   A    
C81   O49   A    
C13   H45   S    
C37   C42   A    
C16   H48   S    
C3    O23   A    
Cr10  O14   S    
Cr11  O19   S    
C103  C104  A    
C54   C74   A    
C9    H21   S    
C14   H46   S    
C78   O2    A    
C40   C43   A    
Cr1   O1    S    
C20   C24   A    
C94   C101  A    
C88   O12   A    
C70   C74   A    
C83   O51   A    
C47   C96   S    
C12   H24   S    
C69   C73   A    
C86   O6    A    
C23   C27   A    
C44   C87   S    
C9    C10   A    
C102  H2    S    
C11   H23   S    
C75   C91   S    
C30   H50   S    
C55   C75   A    
C10   H22   S    
C44   C52   A    
Cr1   O41   S    
Cr12  O36   S    
Cr1   O17   S    
C1    O21   A    
C4    O24   A    
Cr8   O8    S    
C45   C94   S    
C6    C12   A    
C41   C49   A    
C60   C64   A    
Cr10  O10   S    
Cr10  O18   S    
C31   H51   S    
Cr6   O18   S    
C25   C29   A    
C80   O40   A    
C55   H7    S    
Cr9   O9    S    
C28   H32   S    
C48   O36   A    
C30   C34   A    
C63   C82   S    
C27   C31   A    
C51   C52   A    
C6    C98   A    
C2    O26   A    
C28   C32   A    
Cr7   O7    S    
Cr8   O52   S    
C38   C41   A    
C15   H47   S    
C36   C80   S    
Cr1   O21   S    
C39   C40   A    
C82   O46   A    
C62   C66   A    
Cr9   O13   S    
C89   O13   A    
C26   H30   S    
Cr2   O2    S    
C4    O28   A    
C56   C60   A    
C68   C72   A    
C68   H16   S    
Cr4   O44   S    
C19   C23   A    
C63   C67   A    
Cr3   O47   S    
C37   C38   A    
C65   H13   S    
Cr2   O46   S    
Cr12  O16   S    
C84   O52   A    
C93   C97   A    
Cr1   O45   S    
C99   C100  A    
C18   H26   S    
C88   O8    A    
C16   C20   A    
C77   O37   A    
Cr3   O3    S    
C90   O14   A    
Cr7   O27   S    
Cr2   O18   S    
Cr6   O50   S    
C42   C85   S    
C46   O30   A    
Cr5   O49   S    
C32   H52   S    
C67   H15   S    
C76   C92   S    
C90   O42   A    
Cr5   O25   S    
Cr12  O20   S    
C83   O47   A    
Cr8   O20   S    
C42   C50   A    
C3    O27   A    
C58   H10   S    
C71   H43   S    
C91   O15   A    
C70   H42   S    
C49   C50   A    
Cr7   O19   S    
C59   C63   A    
C35   C79   S    
Cr11  O15   S    
C69   H41   S    
Cr11  O11   S    
C56   H8    S    
C82   O50   A    
Cr9   O33   S    
C95   C104  A    
Cr4   O24   S    
Cr9   O17   S    
Cr8   O32   S    
C54   C58   A    
C45   O33   A    
C91   O43   A    
C7    C9    A    
C21   C25   A    
Cr6   O30   S    
C19   H27   S    
Cr10  O38   S    
Cr3   O23   S    
C18   C22   A    
Cr9   O37   S    
C25   H29   S    
C103  H3    S    
C24   C28   A    
C60   H12   S    
C37   H33   S    
C61   C84   S    
C53   C57   A    
C93   C102  A    
C14   C34   A    
C81   O45   A    
C20   H28   S    
C5    C11   A    
C39   C44   A    
Cr4   O4    S    
C13   C17   A    
C52   H40   S    
C87   O11   A    
C89   O41   A    
C96   C100  A    
Cr7   O31   S    
Cr2   O42   S    
C33   C77   S    
Cr11  O39   S    
Cr5   O29   S    
C101  H1    S    
C74   C90   S    
C8    C100  A    
Cr11  O35   S    
C6    H18   S    
C27   H31   S    
Cr5   O5    S    
C1    C24   S    
C34   C78   S    
C57   H9    S    
Cr3   O43   S    
C4    C21   S    
C43   C51   A    
C72   H44   S    
C46   C93   S    
Cr3   O19   S    
C50   H38   S    
C65   C69   A    
C53   C73   A    
Cr4   O20   S    
C31   C35   A    
C29   H49   S    
Cr2   O22   S    
C5    C97   A    
C67   C71   A    
C47   O35   A    
C39   H35   S    
C17   C21   A    
C64   C81   S    
C15   C35   A    
C7    H19   S    
C73   C89   S    
Cr12  O40   S    
C61   C65   A    
C54   H6    S    
Cr6   O26   S    
C92   O16   A    
C8    C10   A    
C13   C33   A    
C22   C26   A    
C96   C103  A    
C2    C23   S    
Cr12  O12   S    
C3    C22   S    
C53   H5    S    
C2    O22   A    
C66   H14   S    
C84   O48   A    
C92   O44   A    
C47   O31   A    
C38   H34   S    
C16   C36   A    
C11   C12   A    
C77   O1    A    
C104  H4    S    
C26   C30   A    
