data_mof_unit_49833.cif
_audit_creation_date              2012-12-11T20:57:24-0500
_audit_creation_method            fapswitch 2.2
_symmetry_space_group_name_H-M    P1
_symmetry_Int_Tables_number       1
_space_group_crystal_system       triclinic
_cell_length_a                    8.432316
_cell_length_b                    18.814861
_cell_length_c                    22.944177
_cell_angle_alpha                 100.475631
_cell_angle_beta                  90.315504
_cell_angle_gamma                 91.532448
_cell_volume                      3578.00685122

loop_
_atom_site_label
_atom_site_type_symbol
_atom_type_description
_atom_site_fract_x
_atom_site_fract_y
_atom_site_fract_z
_atom_type_partial_charge
Ba1   Ba    Ba6+2 0.157800 0.534120 0.474430 1.790233
Ba2   Ba    Ba6+2 0.652390 0.465870 0.525520 1.816887
C1    C     C_3   0.330837 0.719321 0.266983 0.341325
C2    C     C_3   0.411220 0.707317 0.324700 0.286274
C3    C     C_3   0.478903 0.689398 0.618136 0.305893
C4    C     C_3   0.439379 0.769518 0.629660 0.349958
C5    C     C_3   0.884353 0.277205 0.645980 0.340220
C6    C     C_3   0.873399 0.203279 0.663815 -0.331205
C7    C     C_3   0.392879 0.313033 0.678477 0.313990
C8    C     C_3   0.423242 0.295004 0.739437 -0.318675
C9    C     C_R   0.990007 0.952634 0.532114 0.009169
C10   C     C_R   0.069599 0.904796 0.562411 -0.083101
C11   C     C_R   0.201080 0.049140 0.554347 -0.093830
C12   C     C_3   0.971186 0.734377 0.376624 0.288687
C13   C     C_R   0.050371 0.024057 0.530658 0.023976
C14   C     C_R   0.255112 0.119897 0.555427 -0.079185
C15   C     C_R   0.162025 0.169337 0.532867 -0.004012
C16   C     C_R   0.015085 0.144745 0.504838 0.020906
C17   C     C_R   0.959430 0.071791 0.503430 0.030880
C18   C     C_R   0.210464 0.242855 0.538148 0.037247
C19   C     C_R   0.105433 0.291211 0.519846 -0.186825
C20   C     C_R   0.971977 0.266917 0.483970 0.079007
C21   C     C_R   0.925160 0.192625 0.477228 -0.038651
C22   C     C_R   0.842342 0.928651 0.504270 0.030536
C23   C     C_3   0.994216 0.813173 0.370571 -0.275503
C24   C     C_R   0.784959 0.856057 0.503357 0.009656
C25   C     C_R   0.875642 0.807426 0.529572 -0.022250
C26   C     C_R   0.012894 0.834480 0.561533 0.014680
C27   C     C_R   0.790888 0.164593 0.444198 -0.009173
C28   C     C_R   0.735191 0.094220 0.443246 -0.062562
C29   C     C_R   0.813072 0.047339 0.474880 0.006878
C30   C     C_R   0.751649 0.976476 0.477139 0.020165
C31   C     C_R   0.599278 0.952391 0.454772 -0.085801
C32   C     C_R   0.636379 0.832265 0.476567 -0.033384
C33   C     C_R   0.543249 0.882271 0.454718 -0.070915
C34   C     C_3   0.922975 0.319858 0.324330 0.743762
C35   C     C_R   0.584971 0.759273 0.472814 0.009961
C36   C     C_R   0.681698 0.710892 0.494652 -0.305221
C37   C     C_R   0.825310 0.733565 0.523390 0.043248
C38   C     C_R   0.624774 0.540229 0.342768 -0.156458
C39   C     C_R   0.472955 0.524474 0.936736 -0.024796
C40   C     C_R   0.436811 0.510488 0.875450 0.602851
C41   C     C_R   0.174220 0.470450 0.895977 0.603822
C42   C     C_R   0.220424 0.468427 0.954746 -0.020460
C43   C     C_R   0.366923 0.499774 0.975954 -0.049499
C44   C     C_R   0.612955 0.562072 0.959821 -0.029740
C45   C     C_3   0.911471 0.251231 0.274141 -0.195712
C46   C     C_R   0.642436 0.576866 0.021056 -0.045832
C47   C     C_R   0.540313 0.548592 0.060122 -0.024798
C48   C     C_R   0.406882 0.506968 0.036815 -0.050473
C49   C     C_R   0.121000 0.438107 0.993480 -0.070319
C50   C     C_R   0.169763 0.437496 0.051721 -0.059374
C51   C     C_R   0.312466 0.472930 0.074200 -0.028508
C52   C     C_R   0.365131 0.473324 0.132665 0.607619
C53   C     C_R   0.566015 0.562248 0.122055 0.598928
C54   C     C_2   0.106861 0.449618 0.766171 -0.068847
C55   C     C_3   0.045331 0.468958 0.709426 0.037026
C56   C     C_3   0.013707 0.633560 0.657383 0.304428
C57   C     C_1   0.304420 0.516714 0.693932 -0.031249
C58   C     C_2   0.335666 0.526804 0.751971 -0.047809
C59   C     C_2   0.239141 0.486160 0.791962 0.189046
C60   C     C_R   0.690201 0.550830 0.241781 -0.104400
C61   C     C_R   0.731350 0.561762 0.301970 0.059865
C62   C     C_R   0.484307 0.502896 0.322634 0.084742
C63   C     C_R   0.432889 0.503633 0.264350 -0.095577
C64   C     C_R   0.535267 0.526196 0.221489 0.141325
C65   C     C_2   0.182427 0.476276 0.669263 -0.332680
C66   C     C_3   0.049451 0.664952 0.722600 0.321935
C67   C     C_3   0.395309 0.287031 0.321132 0.916214
C68   C     C_3   0.519947 0.229167 0.307079 -0.155033
H1    H     H_    0.390321 0.649280 0.326677 -0.035429
H2    H     H_    0.829926 0.209708 0.286660 0.075840
H3    H     H_    0.021865 0.223010 0.272704 0.204888
H4    H     H_    0.127257 0.620905 0.634602 -0.074027
H5    H     H_    0.938738 0.583399 0.653264 0.028337
H6    H     H_    0.097373 0.721257 0.726580 0.071538
H7    H     H_    0.140984 0.633560 0.740215 -0.054468
H8    H     H_    0.375452 0.679834 0.229013 -0.002398
H9    H     H_    0.593787 0.239367 0.270147 0.114142
H10   H     H_    0.463432 0.174495 0.293541 0.118032
H11   H     H_    0.596792 0.227641 0.345538 0.102223
H12   H     H_    0.608728 0.683113 0.612902 0.043271
H13   H     H_    0.418182 0.665090 0.575866 -0.029474
H14   H     H_    0.463111 0.792496 0.589243 -0.056901
H15   H     H_    0.311512 0.775469 0.640136 -0.003794
H16   H     H_    0.201797 0.708477 0.269251 0.071635
H17   H     H_    0.880406 0.834965 0.358133 0.107181
H18   H     H_    0.800457 0.277022 0.608381 0.077863
H19   H     H_    0.007612 0.286581 0.632135 -0.088444
H20   H     H_    0.751160 0.192551 0.678474 0.148563
H21   H     H_    0.902534 0.160707 0.625541 0.066979
H22   H     H_    0.958370 0.201144 0.700575 0.124342
H23   H     H_    0.262485 0.313414 0.671336 -0.070146
H24   H     H_    0.445519 0.367675 0.677906 0.078033
H25   H     H_    0.368208 0.335842 0.773883 0.073774
H26   H     H_    0.552838 0.295178 0.748366 0.159507
H27   H     H_    0.074756 0.717343 0.399364 0.122952
H28   H     H_    0.370980 0.240786 0.741740 0.121147
H29   H     H_    0.137056 0.348276 0.528564 0.044600
H30   H     H_    0.370294 0.135408 0.575243 0.110048
H31   H     H_    0.078978 0.801863 0.586609 0.094479
H32   H     H_    0.724390 0.197016 0.419589 0.116076
H33   H     H_    0.425205 0.868246 0.437269 0.149201
H34   H     H_    0.641964 0.655055 0.490853 0.056756
H35   H     H_    0.282079 0.015097 0.572162 0.087809
H36   H     H_    0.175857 0.920271 0.588369 0.086421
H37   H     H_    0.630936 0.077877 0.416282 0.093440
H38   H     H_    0.866853 0.729836 0.404430 -0.040596
H39   H     H_    0.517758 0.987126 0.437990 0.092001
H40   H     H_    0.092923 0.411445 0.079692 0.130910
H41   H     H_    0.007563 0.412839 0.978336 0.122661
H42   H     H_    0.748020 0.608367 0.037536 0.138001
H43   H     H_    0.782671 0.560476 0.211665 0.146384
H44   H     H_    0.696777 0.582588 0.930912 0.131440
H45   H     H_    0.409812 0.573199 0.771279 0.152833
H46   H     H_    0.039746 0.410213 0.785519 0.143499
H47   H     H_    0.313286 0.484527 0.253858 0.201641
H48   H     H_    0.658865 0.545776 0.388936 0.079402
H49   H     H_    0.037265 0.845623 0.413266 0.080596
H50   H     H_    0.197186 0.436836 0.628984 0.051906
H51   H     H_    0.082609 0.818297 0.335992 0.211371
H52   H     H_    0.044218 0.329718 0.341416 0.059281
N1    N     N_R   0.284179 0.487681 0.854771 -0.424762
N2    N     N_R   0.487674 0.520629 0.158435 -0.425466
O1    O     O_2   0.110690 0.676100 0.539200 -0.490502
O2    O     O_3   0.473892 0.353291 0.344506 -0.583100
O3    O     O_3   0.951203 0.691110 0.320358 -0.625784
O4    O     O_2   0.699610 0.323860 0.460780 -0.431348
O5    O     O_3   0.947090 0.413280 0.465240 -0.435857
O6    O     O_3   0.442000 0.370930 0.567190 -0.494923
O7    O     O_3   0.817725 0.308718 0.368859 -0.635237
O8    O     O_3   0.359410 0.538600 0.570730 -0.490560
O9    O     O_3   0.850780 0.407910 0.598320 -0.520917
O10   O     O_2   0.715439 0.453159 0.701421 -0.406709
O11   O     O_3   0.844673 0.330083 0.694637 -0.604234
O12   O     O_3   0.863220 0.586720 0.534720 -0.489237
O13   O     O_3   0.450900 0.461390 0.429220 -0.474496
O14   O     O_2   0.599830 0.538970 0.641850 -0.420230
O15   O     O_3   0.425903 0.657601 0.665714 -0.610834
O16   O     O_2   0.542795 0.241078 0.524577 -0.452017
O17   O     O_3   0.463697 0.261117 0.635375 -0.613370
O18   O     O_2   0.542783 0.517705 0.840855 -0.568476
O19   O     O_2   0.034401 0.459198 0.882716 -0.581831
O20   O     O_2   0.303821 0.429629 0.159358 -0.535661
O21   O     O_2   0.654707 0.612752 0.143257 -0.571216
O22   O     O_3   0.368310 0.629070 0.432760 -0.503321
O23   O     O_2   0.261888 0.756835 0.483500 -0.515799
O24   O     O_3   0.934867 0.685764 0.633105 -0.599518
O25   O     O_3   0.341663 0.751362 0.373694 -0.592344
O26   O     O_2   0.210480 0.460990 0.358130 -0.425210
O27   O     O_3   0.959520 0.592090 0.401630 -0.466416
O28   O     O_2   0.068063 0.561996 0.292742 -0.441534
P1    P     P_3+3 0.935930 0.665430 0.555670 0.995826
P2    P     P_3+3 0.382700 0.439650 0.365620 1.182350
P3    P     P_3+3 0.928995 0.600413 0.328050 1.043770
P4    P     P_3+3 0.874370 0.334570 0.444280 1.125150
P5    P     P_3+3 0.866882 0.415654 0.675264 0.999718
P6    P     P_3+3 0.391306 0.723310 0.440570 0.906633
P7    P     P_3+3 0.421692 0.563128 0.644790 1.011602
P8    P     P_3+3 0.412404 0.278418 0.565378 0.973142
C69   C     C_3   0.875700 0.259526 0.209931 -0.298416
H53   H     H_    0.752721 0.275499 0.204105 0.166022
H54   H     H_    0.957491 0.298819 0.194372 0.219625
H55   H     H_    0.889955 0.206493 0.180282 0.145378
S1    S     S_3+6 0.877779 0.664632 0.767938 -0.022352
O29   O     O_2   0.891871 0.727446 0.818746 -0.247421
O30   O     O_2   0.729645 0.671165 0.732942 -0.212791
O31   O     O_3   0.867826 0.586999 0.794370 -0.513346
H56   H     H_    0.811758 0.598921 0.832535 0.385903
S2    S     S_3+6 0.313628 0.288573 0.248690 -0.103545
O32   O     O_2   0.247735 0.215323 0.220430 -0.339655
O33   O     O_2   0.192909 0.344736 0.251670 -0.309341
O34   O     O_3   0.457449 0.310142 0.204106 -0.523975
H57   H     H_    0.414853 0.295036 0.163285 0.383524
S3    S     S_3+6 0.280985 0.258190 0.379030 -0.166711
O35   O     O_2   0.143422 0.208174 0.357720 -0.376213
O36   O     O_2   0.384292 0.219179 0.415797 -0.350807
O37   O     O_3   0.222230 0.333381 0.422721 -0.631292
H58   H     H_    0.312145 0.348181 0.450624 0.338778
C70   C     C_3   0.589261 0.723468 0.323066 -0.258799
H59   H     H_    0.615441 0.782520 0.333886 0.167836
H60   H     H_    0.646792 0.697100 0.356317 -0.017959
H61   H     H_    0.638889 0.701449 0.278969 0.128967
S4    S     S_3+6 0.362352 0.808780 0.251552 -0.039273
O38   O     O_2   0.517943 0.812553 0.220445 -0.247674
O39   O     O_2   0.230503 0.824682 0.211924 -0.232771
O40   O     O_3   0.365046 0.870601 0.314553 -0.536364
H62   H     H_    0.393084 0.917079 0.302196 0.368927
S5    S     S_3+6 0.554037 0.820518 0.689249 -0.012804
O41   O     O_2   0.514787 0.898941 0.695355 -0.280904
O42   O     O_2   0.514975 0.794792 0.745931 -0.194345
O43   O     O_3   0.748229 0.810801 0.674810 -0.514756
H63   H     H_    0.803620 0.835359 0.711437 0.385108
S6    S     S_3+6 0.864427 0.400222 0.302231 -0.085780
O44   O     O_2   0.864864 0.453725 0.358955 -0.317713
O45   O     O_2   0.973038 0.427254 0.259103 -0.295298
O46   O     O_3   0.682827 0.389027 0.272043 -0.543283
H64   H     H_    0.695089 0.398711 0.231292 0.351422

loop_
_geom_bond_atom_site_label_1
_geom_bond_atom_site_label_2
_ccdc_geom_bond_type
C52   O20   D    
S1    O29   D    
O11   P5    S    
C7    H23   S    
C28   H37   S    
C32   C35   A    
C39   C40   A    
S6    O45   D    
Ba1   O8    S    
C17   C29   A    
C15   C18   A    
C69   H53   S    
C5    C6    S    
S3    O36   D    
C20   P4    S    
C51   C52   A    
C42   C43   A    
C13   C17   A    
C2    O25   S    
C24   C25   A    
C55   C65   S    
C38   C61   A    
C10   C26   A    
C21   C27   A    
O7    P4    S    
C35   C36   A    
Ba1   O1    S    
C38   H48   S    
C16   C17   A    
Ba1   O5    S    
C67   C68   S    
C3    C4    S    
C3    H13   S    
C56   O24   S    
C53   O21   D    
S6    O46   S    
S2    O32   D    
C5    H19   S    
C62   P2    S    
C9    C22   A    
C23   H17   S    
Ba2   O5    S    
C54   C55   S    
C34   C45   S    
O6    P8    S    
C32   C33   A    
C8    H28   S    
C68   H11   S    
C36   H34   S    
C57   C65   D    
C1    S4    S    
C57   P7    S    
O14   P7    D    
C24   C32   A    
C23   H49   S    
O25   P6    S    
C25   C37   A    
C14   C15   A    
C40   O18   D    
Ba2   O8    S    
C39   C44   A    
C6    H22   S    
O43   H63   S    
O27   P3    S    
Ba1   O12   S    
C65   H50   S    
C70   H61   S    
C66   S1    S    
C10   H36   S    
C12   H38   S    
S6    O44   D    
O15   P7    S    
C57   C58   D    
S1    O30   D    
C19   C20   A    
C1    H16   S    
Ba1   O22   S    
Ba1   P2    S    
C9    C13   A    
C2    C70   S    
C63   H47   S    
C26   H31   S    
C69   H54   S    
C70   H60   S    
C56   H5    S    
C3    O15   S    
S3    O37   S    
C36   C37   A    
C66   H7    S    
C44   C46   A    
C48   C51   A    
C4    H14   S    
C44   H44   S    
C68   H10   S    
C49   C50   A    
O8    P7    S    
Ba2   O9    S    
C45   H3    S    
C60   H43   S    
C11   H35   S    
C34   O7    S    
O3    P3    S    
C60   C64   A    
C14   H30   S    
C40   N1    Am   
C8    H26   S    
O34   H57   S    
Ba2   O12   S    
C12   O3    S    
C16   C21   A    
C3    H12   S    
C58   C59   S    
Ba2   O14   S    
C35   P6    S    
S5    O43   S    
C34   H52   S    
C41   C42   A    
C22   C30   A    
C5    O11   S    
C60   C61   A    
O17   P8    S    
C5    H18   S    
O28   P3    D    
C50   H40   S    
C15   C16   A    
C54   H46   S    
Ba1   O26   S    
C6    H21   S    
Ba1   P1    S    
C4    H15   S    
C49   H41   S    
O2    P2    S    
C42   C49   A    
C56   C66   S    
C46   C47   A    
C46   H42   S    
C37   P1    S    
C67   O2    S    
C47   C48   A    
S1    O31   S    
C11   C13   A    
O26   P2    D    
C64   N2    S    
C31   H39   S    
O24   P1    S    
C1    C2    S    
C41   N1    Am   
C69   H55   S    
Ba1   O13   S    
C50   C51   A    
C56   H4    S    
C12   H27   S    
C41   O19   D    
C7    C8    S    
S5    O41   D    
C52   N2    Am   
C53   N2    Am   
O31   H56   S    
Ba2   P4    S    
C68   H9    S    
C54   C59   D    
Ba2   O13   S    
C29   C30   A    
C22   C24   A    
O5    P4    S    
C9    C10   A    
O22   P6    S    
C66   H6    S    
C33   H33   S    
C27   H32   S    
C38   C62   A    
S4    O40   S    
C59   N1    S    
C30   C31   A    
O1    P1    D    
C61   P3    S    
O40   H62   S    
S3    O35   D    
C47   C53   A    
C62   C63   A    
C55   P5    S    
O12   P1    S    
O23   P6    D    
C31   C33   A    
C28   C29   A    
S2    O33   D    
C8    H25   S    
C19   H29   S    
Ba1   Ba2   S    
C4    S5    S    
Ba2   O6    S    
S4    O39   D    
O13   P2    S    
Ba1   O27   S    
O9    P5    S    
C67   S2    S    
C12   C23   S    
O46   H64   S    
C34   S6    S    
C45   H2    S    
C7    O17   S    
O4    P4    D    
C27   C28   A    
C45   C69   S    
O10   P5    D    
C6    H20   S    
C18   C19   A    
C63   C64   A    
C18   P8    S    
C11   C14   A    
C25   C26   A    
C39   C43   A    
C20   C21   A    
C58   H45   S    
S4    O38   D    
C43   C48   A    
C67   S3    S    
S5    O42   D    
C1    H8    S    
C23   H51   S    
C7    H24   S    
C2    H1    S    
O16   P8    D    
C70   H59   S    
O37   H58   S    
S2    O34   S    
Ba2   O4    S    
