data_mof_unit_9751.cif
_audit_creation_date              2013-03-05T16:10:15-0500
_audit_creation_method            fapswitch 2.2
_symmetry_space_group_name_H-M    P1
_symmetry_Int_Tables_number       1
_space_group_crystal_system       triclinic
_cell_length_a                    9.921799
_cell_length_b                    10.612361
_cell_length_c                    13.154323
_cell_angle_alpha                 90.194207
_cell_angle_beta                  69.849237
_cell_angle_gamma                 90.856223
_cell_volume                      1300.13923604

loop_
_atom_site_label
_atom_site_type_symbol
_atom_site_description
_atom_site_fract_x
_atom_site_fract_y
_atom_site_fract_z
_atom_type_partial_charge
O1    O     O_R   0.385370 0.683250 0.500010 -0.596912
O2    O     O_R   0.614700 0.683220 0.500010 -0.618840
C1    C     C_R   0.499462 0.739567 0.503633 0.953573
O3    O     O_R   0.328400 0.499990 0.653620 -0.607687
O4    O     O_R   0.557730 0.499960 0.653620 -0.596986
C2    C     C_R   0.420101 0.491580 0.703975 0.955817
Zn1   Zn    Zn3+2 0.346870 0.500020 0.500000 1.039567
Zn2   Zn    Zn3+2 0.653130 0.499980 0.500000 1.001076
O5    O     O_R   0.385300 0.316780 0.499990 -0.538145
O6    O     O_R   0.614630 0.316750 0.499990 -0.597692
O7    O     O_R   0.442270 0.500040 0.346380 -0.590700
O8    O     O_R   0.671600 0.500010 0.346380 -0.637995
C3    C     C_R   0.500332 0.260469 0.496943 0.956813
C4    C     C_R   0.580182 0.502546 0.295974 0.868376
C5    C     C_R   0.785518 0.400574 0.013910 -0.156261
H1    H     H_    0.838195 0.416108 0.158379 0.160454
H2    H     H_    0.788178 0.302648 0.829318 0.198689
H3    H     H_    0.884967 0.353694 0.969952 0.154977
C6    C     C_R   0.630120 0.494221 0.178802 -0.045538
C7    C     C_R   0.232364 0.524847 0.882043 -0.117091
C8    C     C_R   0.195564 0.545478 0.992356 -0.118319
C9    C     C_R   0.297322 0.529350 0.042040 -0.130511
C10   C     C_R   0.436051 0.483458 0.982805 0.057335
C11   C     C_R   0.463107 0.441333 0.875849 -0.034077
C12   C     C_R   0.547397 0.474935 0.026820 0.081362
C13   C     C_R   0.677580 0.414044 0.968376 0.104645
C14   C     C_R   0.694085 0.358541 0.869214 -0.287466
C15   C     C_R   0.584773 0.364727 0.825589 0.315092
C16   C     C_R   0.532163 0.523449 0.128534 -0.232779
C17   C     C_R   0.760346 0.437853 0.120303 -0.192478
C18   C     C_R   0.368468 0.479150 0.822145 -0.057409
H4    H     H_    0.439991 0.577738 0.173805 0.150789
H5    H     H_    0.156559 0.549457 0.842915 0.156013
H6    H     H_    0.262688 0.550536 0.127281 0.126186
H7    H     H_    0.090116 0.580322 0.038556 0.145634
C19   C     C_R   0.403976 0.937571 0.593339 0.442195
C20   C     C_R   0.397133 0.066320 0.584157 -0.102507
H8    H     H_    0.319321 0.119523 0.647363 0.203381
C21   C     C_R   0.497647 0.128085 0.497149 -0.036974
C22   C     C_R   0.600266 0.064063 0.414576 -0.121006
H9    H     H_    0.677988 0.114049 0.347586 0.156384
C23   C     C_R   0.599620 0.934643 0.417789 -0.216909
H10   H     H_    0.675358 0.883048 0.351911 0.165384
C24   C     C_R   0.501091 0.872290 0.506212 -0.165566
C25   C     C_R   0.943618 0.402965 0.456456 -0.087157
H11   H     H_    0.899170 0.326098 0.423483 0.195481
C26   C     C_R   0.086901 0.401176 0.454613 0.421762
N1    N     N_R   0.142790 0.500030 0.500030 -0.143752
C27   C     C_R   0.054009 0.598729 0.541986 -0.148568
H12   H     H_    0.093576 0.678779 0.574062 0.226921
C28   C     C_R   0.910619 0.598404 0.542630 -0.071137
H13   H     H_    0.842656 0.677604 0.577008 0.177887
N2    N     N_R   0.857180 0.499940 0.500010 -0.115719
S1    S     S_3+6 0.178254 0.260759 0.396183 0.047145
O9    O     O_2   0.177274 0.173167 0.485875 -0.256872
O10   O     O_2   0.099168 0.194485 0.331815 -0.329274
O11   O     O_3   0.347303 0.284929 0.312032 -0.527082
H14   H     H_    0.337900 0.314743 0.243529 0.355175
N3    N     N_R   0.587232 0.277498 0.741440 0.215154
O12   O     O_R   0.708760 0.237603 0.674089 -0.366497
O13   O     O_R   0.469398 0.218372 0.746799 -0.427911
S2    S     S_3+6 0.307592 0.865454 0.719275 0.036280
O14   O     O_2   0.403607 0.775566 0.748942 -0.325122
O15   O     O_2   0.257723 0.963980 0.806145 -0.256650
O16   O     O_3   0.164049 0.786682 0.710899 -0.587358
H15   H     H_    0.105954 0.764498 0.786572 0.373399

loop_
_geom_bond_atom_site_label_1
_geom_bond_atom_site_label_2
_geom_bond_distance
_ccdc_geom_bond_type
Zn2   N2    2.024595 S    
O4    Zn2   1.913527 S    
C10   C11   1.410846 A    
O6    C3    1.286586 A    
C20   H8    1.083373 S    
C8    H7    1.082882 S    
C5    H3    1.084022 S    
C26   N1    1.404129 A    
Zn2   O8    1.965183 S    
Zn1   N1    2.024706 S    
C22   C23   1.374098 A    
C2    C18   1.465214 S    
C13   C14   1.387711 A    
C11   C18   1.418469 A    
C25   N2    1.344143 A    
N3    O12   1.301831 A    
C20   C21   1.390434 A    
O1    Zn1   1.976066 S    
C8    C9    1.391519 A    
O16   H15   0.990333 S    
Zn1   O7    1.913528 S    
O3    Zn1   1.965182 S    
O11   H14   0.990724 S    
S2    O14   1.501871 D    
C23   C24   1.396029 A    
C19   C20   1.376809 A    
C26   S1    1.784792 S    
C19   S2    1.771948 S    
C7    H5    1.082730 S    
Zn2   O6    1.976068 S    
C22   H9    1.084130 S    
O8    C4    1.295492 A    
O2    C1    1.284452 A    
C16   H4    1.077541 S    
O1    C1    1.287497 A    
C25   C26   1.413872 A    
C12   C16   1.391550 A    
O4    C2    1.298037 A    
C9    H6    1.077511 S    
O7    C4    1.298701 A    
S1    O10   1.504840 D    
C1    C24   1.408792 S    
C19   C24   1.405565 A    
N3    O13   1.298888 A    
C23   H10   1.084380 S    
H1    C17   1.083230 S    
C28   H13   1.081629 S    
H2    C14   1.084287 S    
C21   C22   1.389891 A    
C10   C12   1.417017 A    
C7    C8    1.386410 A    
C5    C17   1.391371 A    
O3    C2    1.300994 A    
C27   H12   1.074963 S    
C15   N3    1.434554 S    
C14   C15   1.393244 A    
Zn1   O5    1.987213 S    
O5    C3    1.284542 A    
S1    O9    1.501810 D    
N1    C27   1.366141 A    
C5    C13   1.404716 A    
S2    O15   1.503893 D    
S2    O16   1.676673 S    
C27   C28   1.419743 A    
C12   C13   1.419287 A    
C25   H11   1.080127 S    
C6    C17   1.398008 A    
C4    C6    1.450226 S    
C7    C18   1.401236 A    
C9    C10   1.420370 A    
O2    Zn2   1.987213 S    
C3    C21   1.404754 S    
C11   C15   1.425135 A    
C28   N2    1.368065 A    
S1    O11   1.677566 S    
C6    C16   1.389691 A    
