data_mof_unit_39438.cif
_audit_creation_date              2012-12-10T16:50:07-0500
_audit_creation_method            fapswitch 2.2
_symmetry_space_group_name_H-M    P1
_symmetry_Int_Tables_number       1
_space_group_crystal_system       triclinic
_cell_length_a                    7.779739
_cell_length_b                    8.573876
_cell_length_c                    10.624766
_cell_angle_alpha                 91.241469
_cell_angle_beta                  85.538642
_cell_angle_gamma                 93.617666
_cell_volume                      705.043349986

loop_
_atom_site_label
_atom_site_type_symbol
_atom_type_description
_atom_site_fract_x
_atom_site_fract_y
_atom_site_fract_z
_atom_type_partial_charge
C1    C     C_R   0.545684 0.794690 0.496282 0.939028
C2    C     C_R   0.425032 0.644068 0.940635 0.097931
C3    C     C_R   0.509113 0.524431 0.871319 -0.091702
C4    C     C_R   0.595866 0.411966 0.928688 -0.215171
C5    C     C_R   0.592567 0.410338 0.056966 -0.216364
C6    C     C_R   0.500903 0.520059 0.128346 -0.081914
C7    C     C_2   0.569684 0.958107 0.493565 -0.382719
C8    C     C_2   0.430058 0.041774 0.503284 -0.396311
C9    C     C_R   0.503038 0.508831 0.739223 0.864947
C10   C     C_R   0.454242 0.205280 0.502597 0.974085
C11   C     C_R   0.499698 0.506538 0.260627 0.863923
C12   C     C_R   0.350506 0.767319 0.881999 -0.231608
C13   C     C_R   0.265169 0.880909 0.953928 -0.163256
C14   C     C_R   0.256363 0.877344 0.085707 0.240947
C15   C     C_R   0.337119 0.760239 0.144485 -0.230749
C16   C     C_R   0.419471 0.641138 0.072731 0.060181
H1    H     H_    0.661111 0.321714 0.874111 0.162929
H2    H     H_    0.986488 0.618226 0.594641 0.192458
H3    H     H_    0.358671 0.778548 0.780554 0.164604
H4    H     H_    0.206181 0.972188 0.906664 0.144077
H5    H     H_    0.336365 0.765615 0.246112 0.164853
H6    H     H_    0.656914 0.319547 0.101029 0.160036
H7    H     H_    0.701596 0.009066 0.484241 0.180767
H8    H     H_    0.298133 0.990801 0.512275 0.177987
H9    H     H_    0.013519 0.381764 0.405397 0.188784
N1    N     N_2   0.950330 0.457950 0.466250 -0.173152
N2    N     N_2   0.049670 0.542050 0.533750 -0.174656
O1    O     O_R   0.389250 0.738570 0.508280 -0.630172
O2    O     O_R   0.678390 0.711630 0.486650 -0.628429
O3    O     O_R   0.355400 0.513470 0.694050 -0.617424
O4    O     O_R   0.644540 0.486530 0.672420 -0.622491
O5    O     O_R   0.321610 0.288370 0.513350 -0.623961
O6    O     O_R   0.610750 0.261430 0.491720 -0.612956
O7    O     O_R   0.355460 0.513470 0.327580 -0.636459
O8    O     O_R   0.644600 0.486530 0.305950 -0.613330
Zn1   Zn    Zn3+2 0.306930 0.517990 0.514440 0.926716
Zn2   Zn    Zn3+2 0.693070 0.482010 0.485560 0.938002
C17   C     C_3   0.159418 0.997300 0.163603 -0.442842
C18   C     C_3   0.257885 0.156653 0.159306 -0.840238
H10   H     H_    0.275497 0.199488 0.060967 0.263332
H11   H     H_    0.184016 0.241894 0.218087 0.253834
H12   H     H_    0.386108 0.148818 0.197238 0.251480
H13   H     H_    0.030081 0.006709 0.127714 0.207921
H14   H     H_    0.138106 0.961354 0.263846 0.207084

loop_
_geom_bond_atom_site_label_1
_geom_bond_atom_site_label_2
_ccdc_geom_bond_type
C1    O1    A    
N1    Zn2   S    
C17   H14   S    
C3    C9    S    
N2    Zn1   S    
C14   C17   S    
C2    C16   A    
O3    Zn1   S    
C2    C12   A    
C11   O8    A    
C2    C3    A    
C17   H13   S    
C18   H11   S    
C5    H6    S    
C1    C7    S    
C13   C14   A    
N1    N2    D    
C5    C6    A    
C15   H5    S    
C9    O3    A    
C7    H7    S    
C4    H1    S    
O5    Zn1   S    
C12   H3    S    
C1    O2    A    
O8    Zn2   S    
C10   O6    A    
O7    Zn1   S    
C6    C11   S    
C17   C18   S    
C9    O4    A    
C6    C16   A    
C15   C16   A    
C10   O5    A    
C7    C8    D    
C12   C13   A    
O1    Zn1   S    
C8    C10   S    
O2    Zn2   S    
C18   H10   S    
C18   H12   S    
C13   H4    S    
C8    H8    S    
H9    N1    S    
C14   C15   A    
C11   O7    A    
O6    Zn2   S    
H2    N2    S    
C3    C4    A    
O4    Zn2   S    
C4    C5    A    
