data_mof_unit_40532.cif
_audit_creation_date              2012-12-11T15:22:36-0500
_audit_creation_method            fapswitch 2.2
_symmetry_space_group_name_H-M    P1
_symmetry_Int_Tables_number       1
_space_group_crystal_system       monoclinic
_cell_length_a                    22.882957
_cell_length_b                    7.23123
_cell_length_c                    20.763627
_cell_angle_alpha                 90.0
_cell_angle_beta                  93.223404
_cell_angle_gamma                 90.0
_cell_volume                      3430.36148593

loop_
_atom_site_label
_atom_site_type_symbol
_atom_type_description
_atom_site_fract_x
_atom_site_fract_y
_atom_site_fract_z
_atom_type_partial_charge
O1    O     O_R   0.438030 0.494310 0.439340 -0.539647
O2    O     O_R   0.561970 0.994310 0.560660 -0.539647
O3    O     O_R   0.556900 0.822900 0.435960 -0.544024
O4    O     O_R   0.443100 0.322900 0.564040 -0.544023
C1    C     C_R   0.575901 0.655558 0.421221 0.727960
C2    C     C_R   0.424099 0.155558 0.578779 0.727960
O5    O     O_R   0.438170 0.823950 0.431660 -0.533685
O6    O     O_R   0.561830 0.323950 0.568340 -0.533685
O7    O     O_R   0.442390 0.995390 0.556340 -0.520209
O8    O     O_R   0.557610 0.495390 0.443660 -0.520209
C3    C     C_R   0.416951 0.656108 0.417448 0.708565
C4    C     C_R   0.583049 0.156108 0.582552 0.708565
O9    O     O_3   0.501520 0.661170 0.540910 -0.376746
O10   O     O_3   0.498480 0.161170 0.459090 -0.376746
V1    V     V_3+5 0.499720 0.935580 0.492410 1.466218
V2    V     V_3+5 0.500280 0.435580 0.507590 1.466218
C5    C     C_R   0.828993 0.941381 0.856814 -0.214559
C6    C     C_R   0.171007 0.441381 0.143186 -0.214559
C7    C     C_R   0.870516 0.084098 0.864679 -0.078633
C8    C     C_R   0.129484 0.584098 0.135321 -0.078633
C9    C     C_R   0.865825 0.238614 0.823688 -0.188023
C10   C     C_R   0.134175 0.738614 0.176312 -0.188024
C11   C     C_R   0.820776 0.250695 0.775082 0.068975
C12   C     C_R   0.179224 0.750695 0.224918 0.068975
C13   C     C_R   0.778460 0.110234 0.768194 0.076598
C14   C     C_R   0.221540 0.610234 0.231806 0.076597
C15   C     C_R   0.782605 0.954761 0.809616 0.110849
C16   C     C_R   0.217395 0.454761 0.190384 0.110850
C17   C     C_R   0.818868 0.398798 0.732102 -0.215821
C18   C     C_R   0.181132 0.898798 0.267898 -0.215821
C19   C     C_R   0.776094 0.409470 0.681136 -0.019175
C20   C     C_R   0.223906 0.909470 0.318864 -0.019175
C21   C     C_R   0.729407 0.276480 0.676050 -0.039499
C22   C     C_R   0.270593 0.776480 0.323950 -0.039499
C23   C     C_R   0.732079 0.124737 0.720095 0.053671
C24   C     C_R   0.267921 0.624737 0.279905 0.053671
C25   C     C_R   0.688890 0.984847 0.716101 0.144418
C26   C     C_R   0.311110 0.484847 0.283899 0.144419
C27   C     C_R   0.693543 0.831125 0.757435 -0.138708
C28   C     C_R   0.306456 0.331124 0.242564 -0.138708
C29   C     C_R   0.740227 0.815348 0.803296 -0.184638
C30   C     C_R   0.259773 0.315348 0.196704 -0.184638
C31   C     C_R   0.680332 0.287086 0.629791 -0.049229
C32   C     C_R   0.319667 0.787086 0.370209 -0.049229
C33   C     C_R   0.635818 0.148667 0.628516 -0.153699
C34   C     C_R   0.364182 0.648667 0.371484 -0.153699
C35   C     C_R   0.641390 0.999093 0.671178 -0.198384
C36   C     C_R   0.358610 0.499093 0.328822 -0.198384
H1    H     H_    0.832029 0.821837 0.888348 0.121280
H2    H     H_    0.167971 0.321837 0.111652 0.121280
H3    H     H_    0.898177 0.348032 0.828660 0.137389
H4    H     H_    0.101822 0.848032 0.171340 0.137389
H5    H     H_    0.853102 0.502787 0.736214 0.151223
H6    H     H_    0.146898 0.002786 0.263786 0.151223
H7    H     H_    0.607721 0.893388 0.670054 0.147984
H8    H     H_    0.392279 0.393388 0.329946 0.147984
H9    H     H_    0.661040 0.722011 0.754065 0.126700
H10   H     H_    0.338960 0.222011 0.245934 0.126700
H11   H     H_    0.742861 0.694673 0.834272 0.121010
H12   H     H_    0.257139 0.194673 0.165727 0.121010
C37   C     C_3   0.250934 0.261547 0.811535 -0.288615
C38   C     C_3   0.749066 0.761547 0.188465 -0.288615
C39   C     C_3   0.241070 0.923528 0.787951 -0.356619
C40   C     C_3   0.758929 0.423528 0.212049 -0.356619
C41   C     C_3   0.289123 0.934555 0.737812 -0.358657
C42   C     C_3   0.710877 0.434555 0.262188 -0.358657
H13   H     H_    0.342972 0.226341 0.793698 0.119445
H14   H     H_    0.657028 0.726341 0.206302 0.119445
H15   H     H_    0.268973 0.232086 0.861396 0.111349
H16   H     H_    0.731027 0.732086 0.138604 0.111349
H17   H     H_    0.210832 0.807173 0.775191 0.186172
H18   H     H_    0.789168 0.307173 0.224809 0.186172
H19   H     H_    0.261897 0.892340 0.836467 0.157286
H20   H     H_    0.738103 0.392340 0.163532 0.157286
H21   H     H_    0.332279 0.896844 0.761595 0.154605
H22   H     H_    0.667721 0.396844 0.238405 0.154605
H23   H     H_    0.279416 0.831959 0.698778 0.178622
H24   H     H_    0.720584 0.331959 0.301222 0.178622
C43   C     C_1   0.378265 0.146941 0.624238 -0.143309
C44   C     C_1   0.621735 0.646941 0.375761 -0.143309
C45   C     C_3   0.206379 0.108109 0.790131 0.143029
C46   C     C_3   0.793620 0.608109 0.209869 0.143029
C47   C     C_3   0.302475 0.270305 0.765471 0.084843
C48   C     C_3   0.697525 0.770305 0.234528 0.084843
C49   C     C_3   0.291872 0.131200 0.708024 0.199899
C50   C     C_3   0.708128 0.631200 0.291976 0.199899
C51   C     C_3   0.231240 0.168720 0.672695 -0.362069
C52   C     C_3   0.768760 0.668720 0.327305 -0.362069
C53   C     C_3   0.180782 0.147586 0.719925 -0.124755
C54   C     C_3   0.819218 0.647586 0.280075 -0.124755
C55   C     C_1   0.339554 0.139733 0.661934 -0.069004
C56   C     C_1   0.660446 0.639733 0.338066 -0.069004
C57   C     C_1   0.159244 0.093378 0.836788 -0.065328
C58   C     C_1   0.840756 0.593378 0.163212 -0.065328
C59   C     C_1   0.121000 0.083639 0.875001 -0.151270
C60   C     C_1   0.879000 0.583639 0.124999 -0.151269
H25   H     H_    0.154875 0.023231 0.704222 0.125792
H26   H     H_    0.845125 0.523231 0.295777 0.125792
H27   H     H_    0.230696 0.306726 0.649216 0.164292
H28   H     H_    0.769304 0.806726 0.350783 0.164292
H29   H     H_    0.228565 0.397346 0.814228 0.191530
H30   H     H_    0.771434 0.897346 0.185772 0.191530
H31   H     H_    0.224026 0.067773 0.632531 0.162305
H32   H     H_    0.775974 0.567773 0.367469 0.162304
O11   O     O_R   0.942420 0.735670 0.056390 -0.532551
O12   O     O_R   0.057580 0.235670 0.943610 -0.532551
O13   O     O_R   0.061840 0.404850 0.068350 -0.539377
O14   O     O_R   0.938160 0.904850 0.931650 -0.539377
C61   C     C_R   0.081357 0.573546 0.084459 0.699866
C62   C     C_R   0.918643 0.073546 0.915541 0.699867
O15   O     O_R   0.943100 0.406010 0.064050 -0.534879
O16   O     O_R   0.056900 0.906010 0.935950 -0.534879
O17   O     O_R   0.938020 0.234710 0.939330 -0.540058
O18   O     O_R   0.061980 0.734710 0.060670 -0.540057
C63   C     C_R   0.924353 0.574465 0.078939 0.716297
C64   C     C_R   0.075646 0.074465 0.921061 0.716296
O19   O     O_3   0.998500 0.567790 0.959120 -0.374956
O20   O     O_3   0.001500 0.067790 0.040880 -0.374956
V3    V     V_3+5 0.000280 0.293330 0.007580 1.427073
V4    V     V_3+5 0.999720 0.793330 0.992420 1.427073
C65   C     C_2   0.139141 0.310730 0.715285 0.776938
O21   O     O_2   0.086866 0.283862 0.703483 -0.543776
O22   O     O_R   0.160086 0.491237 0.723454 -0.686940
H33   H     H_    0.127808 0.587176 0.718945 0.295153
C66   C     C_2   0.860859 0.810730 0.284715 0.776938
O23   O     O_2   0.913134 0.783862 0.296517 -0.543776
O24   O     O_R   0.839914 0.991238 0.276546 -0.686940
H34   H     H_    0.872192 0.087176 0.281055 0.295154
N1    N     N_3   0.311839 0.461429 0.744653 -0.683180
H35   H     H_    0.276511 0.506434 0.714832 0.264407
H36   H     H_    0.349471 0.468359 0.718467 0.229777
N2    N     N_3   0.688161 0.961429 0.255347 -0.683180
H37   H     H_    0.723489 0.006434 0.285168 0.264407
H38   H     H_    0.650529 0.968359 0.281533 0.229777
C67   C     C_2   0.786534 0.553126 0.632437 0.808077
O25   O     O_2   0.789439 0.715798 0.648406 -0.543977
O26   O     O_R   0.796756 0.501280 0.569195 -0.641103
H39   H     H_    0.804094 0.611434 0.540539 0.309099
C68   C     C_2   0.213466 0.053126 0.367563 0.808077
O27   O     O_2   0.210561 0.215798 0.351593 -0.543977
O28   O     O_R   0.203244 0.001281 0.430805 -0.641103
H40   H     H_    0.195906 0.111434 0.459461 0.309099
C69   C     C_2   0.674062 0.440092 0.582590 0.788601
O29   O     O_2   0.677744 0.408306 0.525100 -0.548811
O30   O     O_R   0.661807 0.618604 0.603620 -0.669100
H41   H     H_    0.657923 0.710542 0.566758 0.295717
C70   C     C_2   0.325938 0.940092 0.417410 0.788601
O31   O     O_2   0.322255 0.908306 0.474900 -0.548811
O32   O     O_R   0.338193 0.118604 0.396380 -0.669100
H42   H     H_    0.342077 0.210542 0.433242 0.295717

loop_
_geom_bond_atom_site_label_1
_geom_bond_atom_site_label_2
_ccdc_geom_bond_type
C18   C20   A    
C39   C41   S    
H13   C47   S    
C46   C58   S    
O12   V3    S    
O14   V4    S    
C31   C69   S    
C70   O31   D    
O1    C3    A    
C9    H3    S    
O2    C4    A    
C2    O7    A    
O30   H41   S    
C49   C55   S    
H14   C48   S    
O22   H33   S    
C27   C29   A    
O5    C3    A    
C18   H6    S    
C53   C65   S    
C39   C45   S    
C11   C17   A    
O15   V3    S    
C23   C25   A    
C48   C50   S    
C47   N1    S    
C50   C52   S    
C69   O29   D    
C27   H9    S    
C32   C70   S    
C38   H16   S    
C69   O30   S    
O20   V3    S    
C5    C7    A    
O17   V3    S    
C37   C45   S    
N2    H37   S    
C19   C21   A    
C60   C63   S    
C25   C35   A    
C26   C36   A    
C36   H8    S    
C45   C53   S    
C49   C51   S    
C38   C46   S    
C35   H7    S    
O6    V2    S    
O13   C61   A    
O13   V3    S    
C52   H32   S    
C32   C34   A    
C51   H27   S    
C33   C35   A    
C42   H24   S    
C34   C36   A    
C70   O32   S    
C28   H10   S    
C41   H23   S    
C5    C15   A    
C67   O25   D    
C6    C16   A    
C29   H11   S    
C20   C68   S    
C19   C67   S    
C37   C47   S    
O19   V4    S    
C30   H12   S    
O16   V4    S    
C4    C33   S    
O5    V1    S    
C39   H19   S    
C48   N2    S    
O12   C64   A    
C40   C42   S    
O4    V2    S    
C37   H29   S    
O2    V1    S    
C45   C57   S    
C15   C29   A    
C59   C64   S    
O6    C4    A    
C42   H22   S    
C22   C32   A    
O11   V4    S    
O1    V2    S    
C1    C44   S    
C58   C60   T    
C44   C56   T    
C31   C33   A    
C62   O17   A    
C40   C46   S    
C65   O21   D    
C52   H28   S    
C61   O18   A    
C13   C23   A    
N2    H38   S    
C51   H31   S    
C14   C24   A    
C47   C49   S    
C39   H17   S    
C9    C11   A    
C66   O23   D    
C10   C12   A    
O4    C2    A    
C8    C10   A    
C5    H1    S    
O24   H34   S    
O16   C64   A    
O3    V1    S    
C6    H2    S    
C10   H4    S    
N1    H35   S    
C7    C62   S    
C37   H15   S    
C67   O26   S    
C38   C48   S    
C7    C9    A    
C43   C55   T    
O11   C63   A    
C12   C14   A    
C52   C54   S    
C28   C30   A    
O3    C1    A    
C46   C54   S    
C42   C50   S    
C68   O27   D    
C41   C49   S    
C13   C15   A    
O26   H39   S    
C14   C16   A    
C41   H21   S    
C51   C53   S    
O7    V1    S    
C1    O8    A    
C17   C19   A    
C50   C56   S    
O32   H42   S    
C24   C26   A    
C26   C28   A    
C68   O28   S    
C2    C43   S    
O8    V2    S    
C17   H5    S    
C16   C30   A    
C21   C23   A    
C54   C66   S    
O14   C62   A    
C6    C8    A    
C40   H18   S    
C12   C18   A    
C65   O22   S    
C8    C61   S    
C25   C27   A    
C11   C13   A    
C22   C24   A    
C57   C59   T    
O9    V2    S    
C53   H25   S    
C66   O24   S    
C40   H20   S    
O10   V1    S    
C3    C34   S    
O15   C63   A    
C38   H30   S    
O28   H40   S    
C21   C31   A    
C54   H26   S    
O18   V4    S    
C20   C22   A    
N1    H36   S    
