data_mof_unit_5498.cif
_audit_creation_date              2013-03-05T15:53:42-0500
_audit_creation_method            fapswitch 2.2
_symmetry_space_group_name_H-M    P1
_symmetry_Int_Tables_number       1
_space_group_crystal_system       triclinic
_cell_length_a                    15.040401
_cell_length_b                    14.744758
_cell_length_c                    17.248992
_cell_angle_alpha                 109.463663
_cell_angle_beta                  106.830601
_cell_angle_gamma                 107.811675
_cell_volume                      3090.05351887

loop_
_atom_site_label
_atom_site_type_symbol
_atom_site_description
_atom_site_fract_x
_atom_site_fract_y
_atom_site_fract_z
_atom_type_partial_charge
C1    C     C_R   0.085225 0.273896 0.057115 0.029399
N1    N     N_R   0.055640 0.348550 0.045600 -0.059259
C2    C     C_R   0.934928 0.514097 0.745535 -0.137658
H1    H     H_    0.856782 0.487594 0.696772 0.140719
N2    N     N_R   0.960830 0.507850 0.823710 -0.045588
C3    C     C_R   0.770477 0.199524 0.811140 -0.120533
H2    H     H_    0.750772 0.134568 0.827661 0.119704
N3    N     N_R   0.811290 0.303400 0.871650 -0.050507
C4    C     C_R   0.251462 0.527504 0.945218 -0.091864
H3    H     H_    0.261401 0.557487 0.897999 0.078384
N4    N     N_R   0.205180 0.552990 0.997660 -0.043237
C5    C     C_R   0.781233 0.296072 0.735785 -0.048709
H4    H     H_    0.777247 0.322488 0.684424 0.098832
N5    N     N_R   0.814810 0.361830 0.823710 -0.033634
C6    C     C_R   0.255077 0.438465 0.027287 -0.089159
H5    H     H_    0.274126 0.391224 0.059077 0.119180
N6    N     N_R   0.201660 0.494570 0.045600 -0.051355
C7    C     C_R   0.106883 0.600178 0.823114 0.002843
N7    N     N_R   0.068420 0.560530 0.871650 -0.068713
C8    C     C_R   0.914022 0.192764 0.979662 -0.154779
H6    H     H_    0.833614 0.137749 0.952605 0.103119
N8    N     N_R   0.948050 0.295860 0.997660 -0.048215
C9    C     C_R   0.997986 0.172981 0.010520 0.048492
C10   C     C_R   0.025297 0.570242 0.743732 0.072282
C11   C     C_R   0.756107 0.192304 0.725348 0.037774
C12   C     C_R   0.285818 0.457556 0.963502 0.079043
C13   C     C_R   0.277100 0.689885 0.249717 -0.067859
H7    H     H_    0.304215 0.652472 0.288765 0.157834
N9    N     N_R   0.185190 0.638170 0.176290 -0.062092
C14   C     C_R   0.704250 0.495501 0.912792 0.269427
N10   N     N_R   0.798340 0.505430 0.954400 -0.084513
C15   C     C_R   0.889174 0.461722 0.185936 -0.166781
H8    H     H_    0.807129 0.427531 0.168027 0.136164
N11   N     N_R   0.931580 0.439470 0.128350 -0.061230
C16   C     C_R   0.079774 0.807358 0.056888 -0.096984
H9    H     H_    0.158312 0.867687 0.103556 0.144701
N12   N     N_R   0.051950 0.704140 0.002340 -0.057598
C17   C     C_R   0.908436 0.723144 0.982972 -0.063582
H10   H     H_    0.827843 0.705347 0.962312 0.108279
N13   N     N_R   0.944360 0.651450 0.954400 -0.030221
C18   C     C_R   0.062303 0.545764 0.264210 0.325340
N14   N     N_R   0.039170 0.492150 0.176290 -0.092844
C19   C     C_R   0.279750 0.784167 0.173740 -0.104105
H11   H     H_    0.305829 0.832003 0.142204 0.151712
N15   N     N_R   0.188710 0.696600 0.128350 -0.061015
C20   C     C_R   0.698631 0.408720 0.996227 -0.172126
H12   H     H_    0.669082 0.351718 0.019651 0.123325
N16   N     N_R   0.794820 0.447010 0.002340 -0.059400
Ni1   Ni    Ni4+2 0.119330 0.493420 0.109950 0.240676
Ni2   Ni    Ni4+2 0.880670 0.506580 0.890050 0.298779
Ni3   Ni    Ni4+2 0.872590 0.372590 0.000000 0.209995
Ni4   Ni    Ni4+2 0.127410 0.627410 0.000000 0.234363
C21   C     C_R   0.338785 0.783058 0.251084 0.062296
C22   C     C_R   0.641387 0.440246 0.941475 -0.060834
C23   C     C_R   0.969658 0.528961 0.271978 -0.060488
C24   C     C_R   0.991317 0.822591 0.047884 0.048872
C25   C     C_R   0.423050 0.506443 0.916865 -0.098626
C26   C     C_R   0.359424 0.431715 0.933738 0.087797
C27   C     C_R   0.375938 0.341192 0.928153 0.012260
C28   C     C_R   0.465033 0.337034 0.920562 -0.209048
H13   H     H_    0.482866 0.272403 0.924515 0.140577
C29   C     C_R   0.535715 0.422416 0.918199 0.138456
C30   C     C_R   0.507958 0.500590 0.906067 0.155836
C31   C     C_3   0.569229 0.621550 0.952586 -0.349999
C32   C     C_3   0.475898 0.627256 0.966961 0.204852
H14   H     H_    0.640924 0.654839 0.016227 0.186977
H15   H     H_    0.437755 0.664436 0.930437 0.080258
C33   C     C_R   0.958469 0.541541 0.354277 0.110727
C34   C     C_R   0.033238 0.569070 0.663204 0.072664
C35   C     C_R   0.076867 0.489074 0.542805 0.365251
C36   C     C_R   0.087995 0.517186 0.630984 -0.282087
C37   C     C_R   0.971902 0.600345 0.611225 -0.233139
C38   C     C_R   0.963937 0.579000 0.524095 0.134111
C39   C     C_R   0.014908 0.520419 0.489104 -0.044981
C40   C     C_R   0.007008 0.498755 0.402880 -0.147563
C41   C     C_R   0.904847 0.596597 0.385387 -0.007073
C42   C     C_R   0.906227 0.614489 0.471246 -0.025572
H16   H     H_    0.043947 0.453263 0.374205 0.196214
H17   H     H_    0.132625 0.490452 0.671898 0.159777
H18   H     H_    0.929947 0.639657 0.638901 0.149768
C43   C     C_R   0.716425 0.094958 0.638026 0.095076
C44   C     C_R   0.448499 0.858298 0.317412 0.148119
C45   C     C_R   0.593266 0.037139 0.398073 -0.250765
C46   C     C_R   0.502533 0.957945 0.320300 0.051982
C47   C     C_R   0.496063 0.836257 0.387585 -0.242950
C48   C     C_R   0.582461 0.917839 0.467234 0.151237
C49   C     C_R   0.627808 0.020150 0.473779 0.175666
C50   C     C_R   0.698367 0.106916 0.558254 -0.262799
C51   C     C_R   0.685547 0.989807 0.629853 0.043369
C52   C     C_R   0.617853 0.901472 0.543501 -0.224725
H19   H     H_    0.729317 0.185022 0.561222 0.126878
H20   H     H_    0.630731 0.115299 0.402122 0.136978
H21   H     H_    0.587295 0.821173 0.537073 0.144765
H22   H     H_    0.460944 0.759365 0.385702 0.142580
C53   C     C_R   0.077087 0.043665 0.987769 0.143288
C54   C     C_R   0.991411 0.063430 0.986467 0.056703
C55   C     C_R   0.893365 0.972083 0.939927 -0.212474
H23   H     H_    0.824259 0.979825 0.940086 0.139396
C56   C     C_R   0.880900 0.870769 0.882320 -0.180939
H24   H     H_    0.804097 0.804106 0.840768 0.156480
C57   C     C_R   0.966185 0.857916 0.872546 0.021912
C58   C     C_R   0.064464 0.942656 0.932053 0.066255
C59   C     C_3   0.151733 0.988882 0.911024 0.208971
C60   C     C_3   0.165290 0.099068 0.971420 -0.661373
H25   H     H_    0.127388 0.969300 0.837739 0.076602
H26   H     H_    0.238814 0.147911 0.035351 0.238467
H27   H     H_    0.144006 0.141808 0.932447 0.192386
N17   N     N_3   0.181336 0.299884 0.127713 -0.220853
H28   H     H_    0.163932 0.264217 0.168009 0.147053
H29   H     H_    0.217885 0.382709 0.170712 0.140199
N18   N     N_R   0.668930 0.494603 0.825347 0.215418
O1    O     O_R   0.735697 0.541884 0.800739 -0.454308
O2    O     O_R   0.573492 0.431554 0.763954 -0.395137
N19   N     N_R   0.161860 0.587552 0.337570 0.210077
O3    O     O_R   0.193535 0.673203 0.412986 -0.391463
O4    O     O_R   0.212226 0.529708 0.335145 -0.426971
N20   N     N_3   0.308047 0.258056 0.937151 -0.227562
H30   H     H_    0.352216 0.253436 0.993664 0.130152
H31   H     H_    0.281107 0.185653 0.879144 0.137619
N21   N     N_3   0.586296 0.665080 0.890305 -0.198927
H32   H     H_    0.658340 0.674322 0.891718 0.142866
H33   H     H_    0.529796 0.612101 0.823121 0.184905
N22   N     N_R   0.496382 0.671084 0.063521 0.253901
O5    O     O_R   0.471944 0.747503 0.097983 -0.414057
O6    O     O_R   0.538191 0.634351 0.115441 -0.404560
N23   N     N_3   0.852398 0.635909 0.330806 -0.202614
H34   H     H_    0.773940 0.602386 0.316623 0.121226
H35   H     H_    0.884008 0.719358 0.368273 0.129677
N24   N     N_R   0.126962 0.427178 0.508788 0.243186
O7    O     O_R   0.222571 0.453141 0.559683 -0.354510
O8    O     O_R   0.071833 0.333805 0.436663 -0.393471
N25   N     N_3   0.852643 0.670877 0.506201 -0.218128
H36   H     H_    0.773929 0.629033 0.460509 0.117594
H37   H     H_    0.882192 0.747381 0.510629 0.118381
N26   N     N_3   0.720833 0.972492 0.707995 -0.220684
H38   H     H_    0.687943 0.890581 0.689752 0.120828
H39   H     H_    0.800890 0.998332 0.731353 0.108937
N27   N     N_3   0.464131 0.982720 0.247837 -0.201201
H40   H     H_    0.452125 0.050547 0.274063 0.125813
H41   H     H_    0.521101 0.002045 0.224922 0.160196
N28   N     N_R   0.239008 0.967451 0.948684 0.256199
O9    O     O_R   0.283892 0.935526 0.898402 -0.394018
O10   O     O_R   0.272737 0.980001 0.031902 -0.426097
N29   N     N_3   0.204665 0.691855 0.861807 -0.160600
H42   H     H_    0.250406 0.667929 0.832159 0.117919
H43   H     H_    0.241957 0.717863 0.931987 0.147843

loop_
_geom_bond_atom_site_label_1
_geom_bond_atom_site_label_2
_geom_bond_distance
_ccdc_geom_bond_type
C45   C49   1.393789 A    
C49   C50   1.384823 A    
C57   C58   1.391589 A    
C51   N26   1.435809 S    
C4    C12   1.370626 A    
C13   N9    1.339455 A    
C41   N23   1.434562 S    
C18   N14   1.331573 A    
C53   C54   1.401171 A    
N11   N14   1.390611 A    
C18   N19   1.428901 S    
C1    N17   1.431829 S    
C60   H26   1.111269 S    
N19   O3    1.300886 A    
N22   O5    1.300610 A    
N9    Ni1   1.807903 S    
C47   C48   1.389825 A    
C9    C54   1.490981 S    
C33   C40   1.383327 A    
C45   H20   1.084814 S    
C14   C22   1.367738 A    
N11   Ni3   1.879724 S    
N23   H34   1.045011 S    
C7    C10   1.366867 A    
C16   N12   1.343394 A    
C7    N7    1.333046 A    
N12   N13   1.390613 A    
N20   H31   1.045819 S    
C14   N10   1.324480 A    
N22   O6    1.302422 A    
C3    C11   1.394154 A    
C6    H5    1.074074 S    
N17   H28   1.045429 S    
C28   C29   1.399011 A    
C1    N1    1.357679 A    
C38   C39   1.422569 A    
C34   C36   1.392678 A    
C18   C23   1.392835 A    
N4    Ni4   1.832194 S    
N7    Ni4   1.879727 S    
C19   C21   1.380561 A    
N16   Ni3   1.832192 S    
C16   H9    1.078856 S    
N25   H36   1.045071 S    
C32   H15   1.113480 S    
N1    N8    1.390612 A    
N23   H35   1.044964 S    
C8    C9    1.379402 A    
C25   C30   1.366545 A    
C35   C36   1.379579 A    
C4    H3    1.072953 S    
C15   C23   1.376871 A    
C53   C58   1.394748 A    
C43   C51   1.419616 A    
C46   N27   1.429896 S    
C27   C28   1.401105 A    
C27   N20   1.422032 S    
C11   C43   1.483137 S    
C2    C10   1.373659 A    
C59   N28   1.463442 S    
C36   H17   1.084884 S    
C55   C56   1.409137 A    
N21   H33   1.046725 S    
C10   C34   1.423123 S    
C55   H23   1.080466 S    
C17   H10   1.076143 S    
C20   N16   1.339838 A    
C39   C40   1.373304 A    
N26   H38   1.045701 S    
C41   C42   1.407769 A    
N18   O2    1.301306 A    
C48   C52   1.398879 A    
N6    Ni1   1.887134 S    
N12   Ni4   1.830675 S    
C23   C33   1.435226 S    
C48   C49   1.402194 A    
N29   H42   1.044647 S    
C6    C12   1.387372 A    
C3    N3    1.341834 A    
C22   C29   1.435568 S    
N15   Ni4   1.878720 S    
C26   C27   1.408371 A    
C35   N24   1.436904 S    
N9    N15   1.378786 A    
C21   C44   1.484457 S    
C42   N25   1.435810 S    
C31   H14   1.113719 S    
C34   C37   1.387219 A    
C19   H11   1.075746 S    
C35   C39   1.410303 A    
C29   C30   1.396872 A    
N1    Ni1   1.806892 S    
C19   N15   1.333763 A    
C47   H22   1.079169 S    
C45   C46   1.395173 A    
C50   H19   1.079141 S    
C54   C55   1.418438 A    
C20   C22   1.384142 A    
C59   H25   1.113301 S    
C8    H6    1.076614 S    
C12   C26   1.446100 S    
N3    Ni3   1.878723 S    
N27   H41   1.045679 S    
N29   H43   1.045427 S    
C56   C57   1.400843 A    
C5    N5    1.331241 A    
C1    C9    1.406959 A    
C44   C46   1.420909 A    
N10   N16   1.378668 A    
C4    N4    1.319911 A    
N2    Ni2   1.887514 S    
C8    N8    1.336651 A    
N10   Ni2   1.887136 S    
C2    H1    1.081250 S    
C59   C60   1.520783 S    
C53   C60   1.487930 S    
C52   H21   1.084177 S    
N24   O7    1.301267 A    
N26   H39   1.045680 S    
C20   H12   1.081179 S    
N4    N6    1.378669 A    
N3    N5    1.378787 A    
N18   O1    1.300138 A    
C16   C24   1.389626 A    
C25   C32   1.503981 S    
C37   C38   1.389096 A    
C2    N2    1.333820 A    
N19   O4    1.301092 A    
C13   C21   1.390911 A    
C6    N6    1.345000 A    
C3    H2    1.069334 S    
N2    N7    1.390611 A    
C33   C41   1.399378 A    
C44   C47   1.409069 A    
C5    C11   1.392663 A    
C31   N21   1.466404 S    
C56   H24   1.081964 S    
C14   N18   1.440791 S    
C31   C32   1.516230 S    
N28   O10   1.302266 A    
C37   H18   1.084386 S    
N20   H30   1.045519 S    
C15   H8    1.080366 S    
C17   N13   1.344905 A    
C25   C26   1.394424 A    
N5    Ni2   1.807904 S    
N13   Ni2   1.806890 S    
C7    N29   1.431700 S    
N17   H29   1.045595 S    
C32   N22   1.466419 S    
C58   C59   1.487306 S    
C40   H16   1.081322 S    
C43   C50   1.404537 A    
N27   H40   1.045816 S    
N14   Ni1   1.887517 S    
C30   C31   1.512153 S    
C17   C24   1.391780 A    
C5    H4    1.074079 S    
N25   H37   1.045008 S    
C13   H7    1.072603 S    
C38   C42   1.412724 A    
N21   H32   1.041854 S    
C28   H13   1.083425 S    
C51   C52   1.403317 A    
N28   O9    1.300365 A    
C60   H27   1.110258 S    
C15   N11   1.333714 A    
N8    Ni3   1.830675 S    
N24   O8    1.301363 A    
