data_mof_unit_39605.cif
_audit_creation_date              2013-03-05T15:45:11-0500
_audit_creation_method            fapswitch 2.2
_symmetry_space_group_name_H-M    P1
_symmetry_Int_Tables_number       1
_space_group_crystal_system       triclinic
_cell_length_a                    10.798441
_cell_length_b                    11.053812
_cell_length_c                    9.850279
_cell_angle_alpha                 111.273909
_cell_angle_beta                  98.442443
_cell_angle_gamma                 90.664069
_cell_volume                      1081.08831619

loop_
_atom_site_label
_atom_site_type_symbol
_atom_site_description
_atom_site_fract_x
_atom_site_fract_y
_atom_site_fract_z
_atom_type_partial_charge
O1    O     O_R   0.511700 0.332330 0.577400 -0.573909
O2    O     O_R   0.474680 0.295500 0.332650 -0.592444
C1    C     C_R   0.490701 0.254104 0.440579 0.858269
O3    O     O_R   0.338160 0.518420 0.622400 -0.587296
O4    O     O_R   0.301140 0.481590 0.377650 -0.579588
C2    C     C_R   0.263031 0.504102 0.502136 0.799834
Cu1   Cu    Cu3+1 0.521920 0.521810 0.644910 0.924742
Cu2   Cu    Cu3+1 0.478080 0.478190 0.355090 0.928280
O5    O     O_R   0.525320 0.704500 0.667350 -0.587497
O6    O     O_R   0.488300 0.667670 0.422600 -0.575913
O7    O     O_R   0.698860 0.518410 0.622350 -0.574383
O8    O     O_R   0.661840 0.481580 0.377600 -0.579707
C3    C     C_R   0.509169 0.745898 0.559407 0.846041
C4    C     C_R   0.737396 0.501965 0.499343 0.786324
H1    H     H_    0.092867 0.328319 0.321133 0.147585
C5    C     C_R   0.157793 0.721344 0.715257 -0.195924
H2    H     H_    0.258508 0.724915 0.722466 0.163420
C6    C     C_R   0.106908 0.825840 0.815547 0.223345
C7    C     C_R   0.976756 0.828074 0.805877 -0.181353
H3    H     H_    0.935230 0.909284 0.880396 0.130350
C8    C     C_R   0.898641 0.725753 0.699918 -0.200994
H4    H     H_    0.798739 0.734897 0.694923 0.157054
C9    C     C_R   0.948916 0.615851 0.602943 0.064731
C10   C     C_R   0.080229 0.615367 0.608787 0.049298
C11   C     C_R   0.129994 0.510150 0.505470 -0.126415
C12   C     C_R   0.052134 0.407942 0.399423 -0.226541
C13   C     C_R   0.923397 0.403301 0.396228 0.140074
C14   C     C_R   0.871388 0.507571 0.498696 -0.128623
H5    H     H_    0.476301 0.864458 0.368678 0.180519
H6    H     H_    0.519373 0.135500 0.631418 0.180477
C15   C     C_2   0.484944 0.114699 0.407133 -0.369394
C16   C     C_2   0.501427 0.069565 0.516483 -0.151698
H7    H     H_    0.534538 0.951518 0.707443 0.147101
C17   C     C_2   0.514784 0.885284 0.592789 -0.374049
C18   C     C_2   0.495900 0.930404 0.483537 -0.144917
H8    H     H_    0.467087 0.048506 0.292366 0.147811
H9    H     H_    0.418283 0.416917 0.838095 0.178238
H10   H     H_    0.590481 0.571407 0.147635 0.126064
N1    N     N_2   0.445130 0.445430 0.137370 -0.143219
C19   C     C_2   0.512289 0.505105 0.077016 0.002865
H11   H     H_    0.624275 0.620971 0.935451 0.191161
N2    N     N_2   0.554930 0.554500 0.862630 -0.294731
C20   C     C_2   0.490113 0.487483 0.915147 -0.090328
C21   C     C_3   0.332576 0.363726 0.052827 -0.131849
C22   C     C_3   0.223324 0.445078 0.030272 -0.833109
H12   H     H_    0.204840 0.514635 0.138030 0.271620
H13   H     H_    0.243387 0.500688 0.961274 0.240628
H14   H     H_    0.137421 0.379694 0.973812 0.220009
H15   H     H_    0.350956 0.292867 0.945751 0.127276
H16   H     H_    0.304180 0.305107 0.115132 0.205118
C23   C     C_3   0.192385 0.932529 0.934907 -0.417189
C24   C     C_3   0.265952 0.011777 0.870906 -0.856958
H17   H     H_    0.317601 0.948116 0.785616 0.253920
H18   H     H_    0.201434 0.067674 0.821393 0.255507
H19   H     H_    0.335834 0.080291 0.960590 0.232695
H20   H     H_    0.137996 0.999691 0.014764 0.194699
H21   H     H_    0.259168 0.888259 0.997485 0.201140
C25   C     C_3   0.846577 0.282533 0.286094 -0.386541
C26   C     C_3   0.820925 0.289626 0.132645 -0.793135
H22   H     H_    0.763230 0.201197 0.054835 0.228951
H23   H     H_    0.769139 0.376466 0.135438 0.263873
H24   H     H_    0.910516 0.294899 0.091513 0.239148
H25   H     H_    0.898474 0.194824 0.279789 0.184510
H26   H     H_    0.756523 0.266628 0.320748 0.205027

loop_
_geom_bond_atom_site_label_1
_geom_bond_atom_site_label_2
_geom_bond_distance
_ccdc_geom_bond_type
C21   H15   1.109470 S    
H9    C20   1.081495 S    
O4    Cu2   1.954931 S    
H10   C19   1.084980 S    
C9    C10   1.410823 A    
N1    C21   1.455323 S    
C23   H21   1.111771 S    
Cu2   N1    2.016546 S    
H6    C16   1.088138 S    
H11   N2    1.030633 S    
H5    C18   1.088052 S    
C15   C16   1.332856 D    
C7    H3    1.083298 S    
C24   H19   1.108580 S    
Cu2   O8    1.962437 S    
C8    C9    1.417218 A    
O2    C1    1.292439 A    
C11   C12   1.392187 A    
C26   H22   1.110446 S    
C5    C10   1.414750 A    
C5    C6    1.399326 A    
O1    Cu1   1.950287 S    
C8    H4    1.080256 S    
C10   C11   1.411857 A    
C1    C15   1.452693 S    
Cu1   O7    1.954931 S    
C12   C13   1.385809 A    
C24   H17   1.108943 S    
O3    Cu1   1.962437 S    
O3    C2    1.290478 A    
C7    C8    1.393879 A    
C24   H18   1.110811 S    
C6    C23   1.508326 S    
H7    C17   1.087491 S    
O1    C1    1.294426 A    
C22   H13   1.109069 S    
C25   H26   1.109104 S    
O4    C2    1.289971 A    
O7    C4    1.290075 A    
C26   H23   1.110283 S    
C2    C11   1.443551 S    
Cu1   Cu2   2.684314 S    
N2    C20   1.295627 D    
C23   C24   1.525627 S    
C26   H24   1.111047 S    
C16   C18   1.450884 S    
C22   H12   1.109601 S    
N1    C19   1.309415 D    
C21   C22   1.530501 S    
Cu2   O6    1.950287 S    
C17   C18   1.332619 D    
Cu1   N2    2.016719 S    
C21   H16   1.108940 S    
C25   H25   1.112214 S    
Cu1   O5    1.949424 S    
O5    C3    1.292607 A    
C15   H8    1.087669 S    
C6    C7    1.395760 A    
H1    C12   1.085762 S    
C3    C17   1.452591 S    
C22   H14   1.110603 S    
C4    C14   1.448561 S    
C25   C26   1.526793 S    
C9    C14   1.421396 A    
C13   C25   1.518645 S    
C19   C20   1.516248 S    
O2    Cu2   1.949424 S    
C23   H20   1.112130 S    
O8    C4    1.291077 A    
C5    H2    1.078747 S    
C13   C14   1.414182 A    
O6    C3    1.294310 A    
