data_mof_unit_7241.cif
_audit_creation_date              2012-12-10T19:09:03-0500
_audit_creation_method            fapswitch 2.2
_symmetry_space_group_name_H-M    P1
_symmetry_Int_Tables_number       1
_space_group_crystal_system       triclinic
_cell_length_a                    17.615453
_cell_length_b                    10.939975
_cell_length_c                    9.624885
_cell_angle_alpha                 91.203481
_cell_angle_beta                  89.380386
_cell_angle_gamma                 92.310323
_cell_volume                      1852.82799118

loop_
_atom_site_label
_atom_site_type_symbol
_atom_type_description
_atom_site_fract_x
_atom_site_fract_y
_atom_site_fract_z
_atom_type_partial_charge
C1    C     C_R   0.499058 0.262763 0.498708 0.900679
C2    C     C_R   0.886090 0.538007 0.518033 -0.070818
C3    C     C_1   0.967939 0.552108 0.512802 0.194928
C4    C     C_1   0.036164 0.556543 0.503639 0.122555
C5    C     C_R   0.165803 0.637455 0.560292 -0.028907
C6    C     C_R   0.243637 0.617668 0.566827 -0.131652
C7    C     C_R   0.274118 0.516013 0.500377 -0.056042
C8    C     C_R   0.227348 0.433966 0.424520 -0.183816
C9    C     C_R   0.148922 0.449178 0.418729 -0.015074
C10   C     C_R   0.117537 0.550624 0.489984 -0.035797
C11   C     C_R   0.534280 0.068746 0.600927 0.005095
C12   C     C_R   0.356021 0.502115 0.500441 0.843315
C13   C     C_R   0.498718 0.129381 0.494752 -0.168872
C14   C     C_R   0.462535 0.060013 0.386482 -0.092359
C15   C     C_R   0.459991 0.930929 0.390051 -0.080054
C16   C     C_R   0.494017 0.870982 0.501348 -0.082296
C17   C     C_R   0.529565 0.942053 0.606791 0.032921
C18   C     C_3   0.514637 0.946502 0.761885 0.087983
C19   C     C_3   0.523796 0.086472 0.754416 0.131410
C20   C     C_R   0.566276 0.498694 0.072051 0.299957
C21   C     C_R   0.434988 0.481866 0.077218 -0.103642
C22   C     C_R   0.434997 0.469750 0.930337 0.505463
C23   C     C_R   0.496948 0.737215 0.501265 0.858233
C24   C     C_R   0.566229 0.497777 0.926005 0.260109
C25   C     C_3   0.633520 0.582453 0.919399 -0.463161
C26   C     C_3   0.632286 0.588059 0.077636 -0.454295
C27   C     C_R   0.644114 0.500152 0.498999 0.888322
C28   C     C_R   0.842000 0.642599 0.518320 0.357434
C29   C     C_R   0.763386 0.628671 0.494593 -0.264133
C30   C     C_R   0.727494 0.510943 0.496853 -0.220229
C31   C     C_R   0.771116 0.405319 0.500413 -0.118203
C32   C     C_R   0.851316 0.419270 0.506988 -0.112963
Cu1   Cu    Cu3+1 0.500000 0.499980 0.640670 1.105608
Cu2   Cu    Cu3+1 0.500000 0.500020 0.359330 1.036213
H1    H     H_    0.470983 0.134384 0.780667 0.178647
H2    H     H_    0.382700 0.467279 0.134934 0.193808
H3    H     H_    0.684286 0.538248 0.874984 0.214848
H4    H     H_    0.618006 0.665780 0.868890 0.236364
H5    H     H_    0.683085 0.548527 0.124077 0.214273
H6    H     H_    0.616931 0.678580 0.121830 0.260597
H7    H     H_    0.281263 0.683847 0.619841 0.225510
H8    H     H_    0.252367 0.357889 0.369849 0.204143
N1    N     N_R   0.500470 0.500930 0.147930 -0.225483
N2    N     N_R   0.500480 0.500890 0.852020 -0.241389
O1    O     O_R   0.500000 0.319640 0.618810 -0.523596
O2    O     O_R   0.500010 0.319680 0.381230 -0.558021
O3    O     O_R   0.391250 0.499990 0.618840 -0.497178
O4    O     O_R   0.391260 0.500020 0.381250 -0.609969
O5    O     O_R   0.499990 0.680320 0.618770 -0.549472
O6    O     O_R   0.500000 0.680360 0.381190 -0.574933
O7    O     O_R   0.608740 0.499980 0.618750 -0.555766
O8    O     O_R   0.608750 0.500010 0.381160 -0.572479
S1    S     S_3+6 0.885266 0.789141 0.558311 0.041639
O9    O     O_2   0.930837 0.832766 0.434811 -0.226717
O10   O     O_2   0.827376 0.881788 0.596477 -0.231281
O11   O     O_3   0.943238 0.775151 0.694331 -0.517472
H9    H     H_    0.950684 0.859029 0.733924 0.389562
C33   C     C_2   0.411440 0.860216 0.289756 0.910035
O12   O     O_2   0.343919 0.841897 0.315856 -0.558682
O13   O     O_R   0.443255 0.813076 0.167522 -0.646190
H10   H     H_    0.405108 0.761343 0.111530 0.368706
S2    S     S_3+6 0.418547 0.896412 0.808174 0.043303
O14   O     O_2   0.414990 0.761747 0.836106 -0.262382
O15   O     O_2   0.393316 0.963940 0.936819 -0.181961
O16   O     O_3   0.358132 0.923680 0.679225 -0.508047
H11   H     H_    0.357157 0.013964 0.674716 0.367810
C34   C     C_2   0.574829 0.888056 0.845009 0.948714
O17   O     O_2   0.565743 0.874651 0.969936 -0.502453
O18   O     O_R   0.644083 0.860472 0.781425 -0.702155
H12   H     H_    0.684744 0.841496 0.850704 0.357980
S3    S     S_3+6 0.605768 0.161845 0.837410 0.055788
O19   O     O_2   0.587576 0.182295 0.988781 -0.218651
O20   O     O_2   0.676280 0.089785 0.824204 -0.231025
O21   O     O_3   0.625422 0.297111 0.764838 -0.530897
H13   H     H_    0.676829 0.322392 0.798048 0.364869
S4    S     S_3+6 0.352168 0.387511 0.868459 0.046470
O22   O     O_2   0.368638 0.302381 0.748662 -0.291904
O23   O     O_2   0.318219 0.311154 0.983271 -0.301568
O24   O     O_3   0.287313 0.487899 0.824376 -0.508766
H14   H     H_    0.240579 0.437410 0.804556 0.381324
C35   C     C_2   0.719555 0.735927 0.455927 0.968111
O25   O     O_2   0.663384 0.762334 0.522980 -0.538084
O26   O     O_R   0.741580 0.807521 0.342664 -0.665756
H15   H     H_    0.786840 0.774769 0.290103 0.321577
C36   C     C_2   0.733198 0.280841 0.493788 0.913159
O27   O     O_2   0.680354 0.259247 0.414459 -0.558881
O28   O     O_R   0.758677 0.187819 0.576825 -0.672916
H16   H     H_    0.729652 0.107025 0.559937 0.398904
C37   C     C_2   0.899496 0.310495 0.497678 0.959702
O29   O     O_2   0.888889 0.233388 0.405317 -0.502210
O30   O     O_R   0.957492 0.297313 0.593627 -0.741684
H17   H     H_    0.986738 0.220535 0.575544 0.356252
C38   C     C_2   0.137627 0.752436 0.621664 0.920784
O31   O     O_2   0.164053 0.793836 0.730680 -0.510425
O32   O     O_R   0.084109 0.817296 0.550528 -0.677881
H18   H     H_    0.072821 0.898091 0.598366 0.362782
C39   C     C_2   0.102186 0.357454 0.336881 0.876978
O33   O     O_2   0.042223 0.385200 0.285583 -0.566058
O34   O     O_R   0.128115 0.239306 0.315165 -0.716159
H19   H     H_    0.091836 0.185373 0.257505 0.374372
C40   C     C_2   0.420032 0.121116 0.277712 0.935439
O35   O     O_2   0.440406 0.112912 0.156308 -0.468582
O36   O     O_R   0.357256 0.188919 0.315181 -0.758205
H20   H     H_    0.332757 0.225876 0.232071 0.364917

loop_
_geom_bond_atom_site_label_1
_geom_bond_atom_site_label_2
_ccdc_geom_bond_type
C8    C9    A    
O28   H16   S    
C38   O31   D    
C31   C36   S    
Cu1   O1    S    
C19   S3    S    
O32   H18   S    
S4    O24   S    
C22   S4    S    
C12   O4    A    
C1    O1    A    
C35   O25   D    
C7    C8    A    
C21   H2    S    
S1    O9    D    
C11   C19   S    
S2    O14   D    
O26   H15   S    
C28   C29   A    
C8    H8    S    
C30   C31   A    
C1    O2    A    
C23   O5    A    
C33   O13   S    
C15   C16   A    
O11   H9    S    
C2    C32   A    
C18   C19   S    
S2    O15   D    
C39   O34   S    
C21   N1    A    
C22   N2    A    
C32   C37   S    
C16   C17   A    
C6    H7    S    
Cu2   O2    S    
C37   O30   S    
C9    C10   A    
C25   H3    S    
C36   O28   S    
C38   O32   S    
C21   C22   A    
C27   C30   S    
C12   O3    A    
C35   O26   S    
C27   O7    A    
C39   O33   D    
S1    O10   D    
C7    C12   S    
Cu2   O6    S    
O21   H13   S    
C34   O17   D    
C40   O35   D    
C20   C24   A    
C24   C25   S    
O30   H17   S    
S3    O20   D    
C18   S2    S    
C23   O6    A    
C25   C26   S    
C36   O27   D    
O13   H10   S    
C34   O18   S    
C29   C35   S    
C29   C30   A    
C25   H4    S    
O34   H19   S    
C17   C18   S    
S4    O22   D    
C16   C23   S    
C24   N2    A    
C15   C33   S    
C33   O12   D    
C1    C13   S    
C4    C10   S    
C3    C4    T    
C20   N1    A    
C27   O8    A    
S1    O11   S    
C11   C17   A    
C9    C39   S    
S2    O16   S    
Cu1   N2    S    
C31   C32   A    
Cu2   N1    S    
S4    O23   D    
C14   C40   S    
S3    O21   S    
C5    C38   S    
C28   S1    S    
C6    C7    A    
Cu1   O7    S    
Cu2   O8    S    
C2    C3    S    
C18   C34   S    
C5    C10   A    
C19   H1    S    
C11   C13   A    
C26   H6    S    
C5    C6    A    
C20   C26   S    
Cu1   O3    S    
Cu1   Cu2   S    
O18   H12   S    
C26   H5    S    
O24   H14   S    
S3    O19   D    
Cu2   O4    S    
C40   O36   S    
O16   H11   S    
O36   H20   S    
C14   C15   A    
C2    C28   A    
C37   O29   D    
C13   C14   A    
Cu1   O5    S    
