data_mof_unit_53474.cif
_audit_creation_date              2012-12-10T17:19:10-0500
_audit_creation_method            fapswitch 2.2
_symmetry_space_group_name_H-M    P1
_symmetry_Int_Tables_number       1
_space_group_crystal_system       triclinic
_cell_length_a                    18.261139
_cell_length_b                    18.251406
_cell_length_c                    34.632463
_cell_angle_alpha                 90.066695
_cell_angle_beta                  89.853834
_cell_angle_gamma                 90.047999
_cell_volume                      11542.654821

loop_
_atom_site_label
_atom_site_type_symbol
_atom_type_description
_atom_site_fract_x
_atom_site_fract_y
_atom_site_fract_z
_atom_type_partial_charge
C1    C     C_R   0.547988 0.124431 0.519674 -0.179987
C2    C     C_R   0.455263 0.874500 0.479639 -0.179344
C3    C     C_R   0.127003 0.540761 0.520184 -0.171312
C4    C     C_R   0.871359 0.465777 0.480380 -0.176524
C5    C     C_R   0.458000 0.873537 0.519710 -0.177778
C6    C     C_R   0.551407 0.123137 0.479568 -0.173430
C7    C     C_R   0.872103 0.463149 0.520441 -0.172627
C8    C     C_R   0.127737 0.538235 0.480104 -0.176092
C9    C     C_R   0.044168 0.625673 0.019706 -0.179631
C10   C     C_R   0.957616 0.373556 0.979638 -0.179668
C11   C     C_R   0.625032 0.046946 0.020268 -0.169150
C12   C     C_R   0.371877 0.964101 0.980373 -0.176508
C13   C     C_R   0.960247 0.372681 0.019710 -0.177796
C14   C     C_R   0.047577 0.624491 0.979612 -0.175655
C15   C     C_R   0.372657 0.961454 0.020433 -0.172401
C16   C     C_R   0.626039 0.043957 0.980170 -0.177349
C17   C     C_R   0.322719 0.731612 0.761734 0.072831
C18   C     C_R   0.676529 0.269311 0.241247 0.083658
C19   C     C_R   0.203817 0.257889 0.717312 0.086335
C20   C     C_R   0.797699 0.743711 0.282166 0.086882
C21   C     C_R   0.681587 0.264304 0.768593 0.075690
C22   C     C_R   0.318662 0.735545 0.232221 0.083289
C23   C     C_R   0.795491 0.740650 0.717032 0.084556
C24   C     C_R   0.204005 0.258920 0.282779 0.082170
C25   C     C_R   0.259168 0.205292 0.283153 0.086519
C26   C     C_R   0.740611 0.794575 0.716746 0.083225
C27   C     C_R   0.263515 0.681852 0.231600 0.075361
C28   C     C_R   0.736289 0.318500 0.768596 0.079233
C29   C     C_R   0.743637 0.798484 0.281928 0.078365
C30   C     C_R   0.258292 0.203544 0.717335 0.081951
C31   C     C_R   0.731176 0.323517 0.241029 0.071123
C32   C     C_R   0.268403 0.677008 0.761564 0.077825
C33   C     C_R   0.823494 0.230590 0.258748 0.073847
C34   C     C_R   0.179015 0.766363 0.736641 0.086270
C35   C     C_R   0.702687 0.756583 0.217740 0.086629
C36   C     C_R   0.296768 0.242700 0.782452 0.086408
C37   C     C_R   0.181625 0.764306 0.268013 0.077314
C38   C     C_R   0.818183 0.236000 0.732245 0.083731
C39   C     C_R   0.295722 0.240875 0.217088 0.082715
C40   C     C_R   0.704426 0.759344 0.782928 0.084218
C41   C     C_R   0.759502 0.705626 0.783271 0.084852
C42   C     C_R   0.240836 0.294793 0.216798 0.086549
C43   C     C_R   0.763089 0.182231 0.731800 0.075289
C44   C     C_R   0.236243 0.818563 0.267942 0.079098
C45   C     C_R   0.242534 0.297293 0.782336 0.079540
C46   C     C_R   0.756674 0.701746 0.218008 0.077202
C47   C     C_R   0.233357 0.820912 0.736684 0.073980
C48   C     C_R   0.768975 0.176252 0.258596 0.078557
C49   C     C_R   0.304383 0.803554 0.750029 -0.131387
C50   C     C_R   0.695885 0.196055 0.249960 -0.139246
C51   C     C_R   0.196162 0.304178 0.749879 -0.127872
C52   C     C_R   0.803918 0.695862 0.250153 -0.124005
C53   C     C_R   0.695401 0.196569 0.750128 -0.128232
C54   C     C_R   0.304323 0.803793 0.250053 -0.136310
C55   C     C_R   0.804250 0.696265 0.750182 -0.125921
C56   C     C_R   0.195695 0.303743 0.249769 -0.122008
C57   C     C_R   0.304273 0.196285 0.250174 -0.125171
C58   C     C_R   0.695715 0.803766 0.749793 -0.123738
C59   C     C_R   0.195720 0.696276 0.249884 -0.127151
C60   C     C_R   0.804031 0.304082 0.750241 -0.136737
C61   C     C_R   0.696249 0.804241 0.249830 -0.127619
C62   C     C_R   0.304063 0.196040 0.750007 -0.124019
C63   C     C_R   0.804152 0.303843 0.249994 -0.133759
C64   C     C_R   0.196500 0.695350 0.749955 -0.139128
C65   C     C_R   0.485736 0.934204 0.580797 0.345603
C66   C     C_R   0.531568 0.059433 0.418520 0.352606
C67   C     C_R   0.937531 0.476008 0.581376 0.357137
C68   C     C_R   0.065889 0.513035 0.419110 0.347335
C69   C     C_R   0.517307 0.064828 0.580735 0.345544
C70   C     C_R   0.472080 0.939158 0.418614 0.353917
C71   C     C_R   0.062146 0.525803 0.581299 0.356272
C72   C     C_R   0.933608 0.489563 0.419250 0.347109
C73   C     C_R   0.986594 0.433936 0.080809 0.345772
C74   C     C_R   0.029817 0.560167 0.918574 0.352274
C75   C     C_R   0.437822 0.975541 0.081384 0.357511
C76   C     C_R   0.565312 0.015774 0.919167 0.347017
C77   C     C_R   0.015303 0.565235 0.080744 0.345923
C78   C     C_R   0.973101 0.438558 0.918620 0.353299
C79   C     C_R   0.560869 0.029102 0.081377 0.356463
C80   C     C_R   0.433666 0.989106 0.919253 0.346608
C81   C     C_R   0.500977 0.999698 0.601278 -0.280513
C82   C     C_R   0.500978 0.999659 0.398265 -0.275567
C83   C     C_R   0.999986 0.500479 0.601679 -0.273632
C84   C     C_R   0.999819 0.500872 0.398678 -0.277022
C85   C     C_R   0.000602 0.499722 0.101288 -0.280585
C86   C     C_R   0.000759 0.499678 0.898283 -0.275446
C87   C     C_R   0.499716 0.001320 0.101706 -0.274025
C88   C     C_R   0.499676 0.001609 0.898700 -0.277322
C89   C     C_R   0.522935 0.063048 0.540283 0.006891
C90   C     C_R   0.476831 0.937130 0.459063 0.001727
C91   C     C_R   0.063394 0.522383 0.540821 0.006706
C92   C     C_R   0.934646 0.485339 0.459713 0.010216
C93   C     C_R   0.481781 0.935403 0.540311 0.007956
C94   C     C_R   0.528226 0.061071 0.459007 0.003370
C95   C     C_R   0.936021 0.480454 0.540934 0.006242
C96   C     C_R   0.064674 0.517911 0.459572 0.011228
C97   C     C_R   0.020800 0.563628 0.040302 0.006960
C98   C     C_R   0.977768 0.436663 0.959073 0.001659
C99   C     C_R   0.562164 0.026125 0.040892 0.007608
C100  C     C_R   0.434697 0.985168 0.959726 0.010528
C101  C     C_R   0.982630 0.435056 0.040322 0.007831
C102  C     C_R   0.026149 0.561798 0.959050 0.002672
C103  C     C_R   0.436128 0.980269 0.040949 0.006654
C104  C     C_R   0.563774 0.021292 0.959622 0.011009
C105  C     C_R   0.000044 0.500031 0.644132 0.852336
C106  C     C_R   0.999932 0.500193 0.355996 0.872516
C107  C     C_R   0.500133 0.999942 0.643985 0.879564
C108  C     C_R   0.500042 0.999967 0.355851 0.857816
C109  C     C_R   0.500001 0.000126 0.144142 0.852405
C110  C     C_R   0.499916 0.000325 0.856004 0.873979
C111  C     C_R   0.000035 0.499942 0.143988 0.878424
C112  C     C_R   0.000052 0.499966 0.855858 0.856792
C113  C     C_R   0.860121 0.639759 0.750141 0.785761
C114  C     C_R   0.139883 0.360265 0.249837 0.796131
C115  C     C_R   0.360381 0.859944 0.750131 0.807578
C116  C     C_R   0.639690 0.139958 0.249906 0.783428
C117  C     C_R   0.139797 0.360153 0.749926 0.786758
C118  C     C_R   0.860271 0.639902 0.250125 0.799103
C119  C     C_R   0.639328 0.140235 0.750261 0.806384
C120  C     C_R   0.360468 0.859985 0.249882 0.780847
C121  C     C_R   0.860332 0.360000 0.250103 0.806921
C122  C     C_R   0.140164 0.639432 0.750196 0.783503
C123  C     C_R   0.360136 0.139773 0.250133 0.783693
C124  C     C_R   0.639876 0.860259 0.749848 0.796460
C125  C     C_R   0.139567 0.640017 0.250096 0.805294
C126  C     C_R   0.860274 0.360177 0.750015 0.781923
C127  C     C_R   0.639771 0.860118 0.249882 0.786869
C128  C     C_R   0.360204 0.139849 0.750038 0.798996
C129  C     C_R   0.286995 0.605218 0.773451 -0.287600
C130  C     C_R   0.712080 0.396049 0.230582 -0.276525
C131  C     C_R   0.264711 0.156502 0.684996 -0.326155
C132  C     C_R   0.739476 0.847962 0.313335 -0.296334
C133  C     C_R   0.722642 0.385762 0.787539 -0.277520
C134  C     C_R   0.276913 0.614901 0.212298 -0.278238
C135  C     C_R   0.732922 0.839441 0.683683 -0.322994
C136  C     C_R   0.266927 0.160479 0.316223 -0.285174
C137  C     C_R   0.157703 0.266273 0.315387 -0.335899
C138  C     C_R   0.841266 0.732748 0.684253 -0.294584
C139  C     C_R   0.386558 0.720486 0.214186 -0.283972
C140  C     C_R   0.614759 0.278269 0.787915 -0.279218
C141  C     C_R   0.844655 0.738027 0.314453 -0.339445
C142  C     C_R   0.157728 0.264621 0.684721 -0.292901
C143  C     C_R   0.603664 0.289468 0.232195 -0.298419
C144  C     C_R   0.394579 0.712920 0.773302 -0.292761
C145  C     C_R   0.788335 0.103451 0.268382 -0.287189
C146  C     C_R   0.216134 0.891266 0.722224 -0.285336
C147  C     C_R   0.761046 0.652473 0.186524 -0.330572
C148  C     C_R   0.237236 0.345523 0.814239 -0.295721
C149  C     C_R   0.222089 0.886368 0.286252 -0.277866
C150  C     C_R   0.776625 0.115005 0.712879 -0.281131
C151  C     C_R   0.233252 0.339760 0.183770 -0.318913
C152  C     C_R   0.767566 0.661125 0.816441 -0.283645
C153  C     C_R   0.658639 0.767211 0.815705 -0.333711
C154  C     C_R   0.341598 0.233065 0.184345 -0.293029
C155  C     C_R   0.885918 0.221065 0.713986 -0.285078
C156  C     C_R   0.114486 0.778636 0.286973 -0.280792
C157  C     C_R   0.343096 0.236269 0.814962 -0.338427
C158  C     C_R   0.655958 0.762471 0.185369 -0.299808
C159  C     C_R   0.109234 0.782831 0.721286 -0.284807
C160  C     C_R   0.896305 0.210508 0.267972 -0.294785
C161  C     C_R   0.358610 0.586530 0.783900 0.017537
C162  C     C_R   0.639832 0.415873 0.222227 0.023889
C163  C     C_R   0.219101 0.163412 0.652742 0.008466
C164  C     C_R   0.786780 0.842870 0.344982 0.033890
C165  C     C_R   0.656522 0.399580 0.806862 -0.010540
C166  C     C_R   0.343892 0.600209 0.194038 0.006251
C167  C     C_R   0.777543 0.830623 0.651015 0.013195
C168  C     C_R   0.221885 0.168819 0.348752 0.031330
C169  C     C_R   0.167417 0.223853 0.348641 0.016734
C170  C     C_R   0.831719 0.775298 0.651044 0.020304
C171  C     C_R   0.399468 0.654352 0.194750 -0.001481
C172  C     C_R   0.602304 0.344050 0.807745 0.006029
C173  C     C_R   0.838054 0.784902 0.346332 0.002642
C174  C     C_R   0.166049 0.219802 0.652153 0.014314
C175  C     C_R   0.584340 0.362110 0.224426 0.003298
C176  C     C_R   0.413707 0.640857 0.782535 0.012708
C177  C     C_R   0.860619 0.083611 0.276634 0.021714
C178  C     C_R   0.146871 0.907513 0.707313 0.011983
C179  C     C_R   0.714098 0.657879 0.154745 0.010419
C180  C     C_R   0.283734 0.339539 0.846177 0.030630
C181  C     C_R   0.155425 0.900774 0.304876 -0.005382
C182  C     C_R   0.843887 0.099976 0.695194 0.002831
C183  C     C_R   0.277814 0.330880 0.151081 0.010798
C184  C     C_R   0.723063 0.670013 0.849137 0.032278
C185  C     C_R   0.668771 0.725217 0.849070 0.015199
C186  C     C_R   0.331979 0.275534 0.151112 0.022307
C187  C     C_R   0.899071 0.154434 0.695090 -0.005825
C188  C     C_R   0.101460 0.845078 0.306081 0.005359
C189  C     C_R   0.335548 0.282031 0.847225 0.003002
C190  C     C_R   0.662525 0.715597 0.153491 0.008334
C191  C     C_R   0.093529 0.851529 0.705513 -0.007334
C192  C     C_R   0.915889 0.137672 0.275048 0.013029
C193  C     C_R   0.502475 0.999174 0.520034 -0.000291
C194  C     C_R   0.502456 0.999154 0.479317 -0.002573
C195  C     C_R   0.999707 0.501447 0.520606 0.001476
C196  C     C_R   0.999677 0.501563 0.479899 0.003860
C197  C     C_R   0.001873 0.499285 0.020053 -0.000417
C198  C     C_R   0.001868 0.499275 0.979341 -0.001959
C199  C     C_R   0.499203 0.003137 0.020646 0.000454
C200  C     C_R   0.499223 0.003216 0.979934 0.003989
H1    H     H_    0.245646 0.562859 0.775402 0.131205
H2    H     H_    0.753517 0.438108 0.227752 0.133744
H3    H     H_    0.304363 0.112435 0.684803 0.126171
H4    H     H_    0.700716 0.892835 0.313020 0.116240
H5    H     H_    0.763920 0.428394 0.787754 0.119592
H6    H     H_    0.235035 0.572893 0.211310 0.120467
H7    H     H_    0.692753 0.883000 0.683097 0.127689
H8    H     H_    0.307246 0.117061 0.316839 0.122288
H9    H     H_    0.114396 0.306720 0.315825 0.129136
H10   H     H_    0.884536 0.692265 0.683790 0.122977
H11   H     H_    0.429661 0.761296 0.213812 0.117999
H12   H     H_    0.572282 0.236832 0.788977 0.117319
H13   H     H_    0.885933 0.695570 0.315740 0.126250
H14   H     H_    0.115332 0.305996 0.683876 0.122234
H15   H     H_    0.560214 0.249227 0.231607 0.140681
H16   H     H_    0.437666 0.753637 0.773867 0.133388
H17   H     H_    0.747059 0.061201 0.270976 0.136654
H18   H     H_    0.256617 0.934610 0.722166 0.129529
H19   H     H_    0.799996 0.607770 0.186754 0.124847
H20   H     H_    0.198253 0.390196 0.814116 0.118196
H21   H     H_    0.263224 0.929132 0.286368 0.121158
H22   H     H_    0.735091 0.072626 0.712180 0.121580
H23   H     H_    0.193057 0.383297 0.183185 0.127071
H24   H     H_    0.807740 0.617575 0.817031 0.122115
H25   H     H_    0.615382 0.807705 0.816182 0.129380
H26   H     H_    0.384844 0.192555 0.183886 0.124018
H27   H     H_    0.928708 0.262171 0.713143 0.118639
H28   H     H_    0.072130 0.737102 0.288251 0.117768
H29   H     H_    0.384780 0.194200 0.816074 0.127230
H30   H     H_    0.614472 0.804729 0.184153 0.122580
H31   H     H_    0.067405 0.740947 0.719143 0.125203
H32   H     H_    0.939613 0.250895 0.268867 0.138819
H33   H     H_    0.565742 0.173629 0.534457 0.179014
H34   H     H_    0.436464 0.825685 0.464857 0.179967
H35   H     H_    0.176816 0.556601 0.534921 0.179796
H36   H     H_    0.820970 0.451716 0.465702 0.177519
H37   H     H_    0.440529 0.824215 0.534454 0.178272
H38   H     H_    0.571339 0.171432 0.464725 0.182094
H39   H     H_    0.822106 0.447835 0.535271 0.179508
H40   H     H_    0.177983 0.552795 0.465307 0.177142
H41   H     H_    0.060621 0.675324 0.034490 0.179139
H42   H     H_    0.940017 0.324300 0.964852 0.179758
H43   H     H_    0.674124 0.064804 0.035043 0.180858
H44   H     H_    0.321879 0.948761 0.965675 0.177447
H45   H     H_    0.943847 0.322979 0.034437 0.178089
H46   H     H_    0.066175 0.673322 0.964778 0.181552
H47   H     H_    0.323051 0.944851 0.035241 0.179296
H48   H     H_    0.675811 0.060026 0.965359 0.177428
O1    O     O_3   1.000000 0.500000 0.750000 -0.502082
O2    O     O_3   1.000000 0.500000 0.250000 -0.490160
O3    O     O_3   0.500000 0.000000 0.750000 -0.489779
O4    O     O_3   0.500000 0.000000 0.250000 -0.501635
O5    O     O_R   0.060740 0.500000 0.662560 -0.603233
O6    O     O_R   0.939260 0.500000 0.337440 -0.617595
O7    O     O_R   0.500000 0.060740 0.662560 -0.621022
O8    O     O_R   0.500000 0.939260 0.337440 -0.600691
O9    O     O_R   0.939260 0.500000 0.662560 -0.601610
O10   O     O_R   0.060740 0.500000 0.337440 -0.618552
O11   O     O_R   0.500000 0.939260 0.662560 -0.621152
O12   O     O_R   0.500000 0.060740 0.337440 -0.605532
O13   O     O_R   0.560740 0.000000 0.162560 -0.604479
O14   O     O_R   0.439260 0.000000 0.837440 -0.618605
O15   O     O_R   1.000000 0.560740 0.162560 -0.619625
O16   O     O_R   0.000000 0.439260 0.837440 -0.601083
O17   O     O_R   0.439260 0.000000 0.162560 -0.601095
O18   O     O_R   0.560740 0.000000 0.837440 -0.619918
O19   O     O_R   0.000000 0.439260 0.162560 -0.620210
O20   O     O_R   0.000000 0.560740 0.837440 -0.605437
O21   O     O_R   0.853850 0.585450 0.727070 -0.631825
O22   O     O_R   0.146150 0.414550 0.272930 -0.646964
O23   O     O_R   0.414550 0.853850 0.727070 -0.645272
O24   O     O_R   0.585450 0.146150 0.272930 -0.646339
O25   O     O_R   0.146150 0.414550 0.727070 -0.640133
O26   O     O_R   0.853850 0.585450 0.272930 -0.656624
O27   O     O_R   0.585450 0.146150 0.727070 -0.642260
O28   O     O_R   0.414550 0.853850 0.272930 -0.639924
O29   O     O_R   0.853850 0.414550 0.272930 -0.642377
O30   O     O_R   0.146150 0.585450 0.727070 -0.647998
O31   O     O_R   0.414550 0.146150 0.272930 -0.642007
O32   O     O_R   0.585450 0.853850 0.727070 -0.653694
O33   O     O_R   0.146150 0.585450 0.272930 -0.637790
O34   O     O_R   0.853850 0.414550 0.727070 -0.642650
O35   O     O_R   0.585450 0.853850 0.272930 -0.632746
O36   O     O_R   0.414550 0.146150 0.727070 -0.649889
O37   O     O_R   0.353850 0.085450 0.227070 -0.631102
O38   O     O_R   0.646150 0.914550 0.772930 -0.649493
O39   O     O_R   0.914550 0.353850 0.227070 -0.646039
O40   O     O_R   0.085450 0.646150 0.772930 -0.642336
O41   O     O_R   0.646150 0.914550 0.227070 -0.641563
O42   O     O_R   0.353850 0.085450 0.772930 -0.653630
O43   O     O_R   0.085450 0.646150 0.227070 -0.641988
O44   O     O_R   0.914550 0.353850 0.772930 -0.640946
O45   O     O_R   0.353850 0.914550 0.772930 -0.641916
O46   O     O_R   0.646150 0.085450 0.227070 -0.647917
O47   O     O_R   0.914550 0.646150 0.772930 -0.639869
O48   O     O_R   0.085450 0.353850 0.227070 -0.656136
O49   O     O_R   0.646150 0.085450 0.772930 -0.640291
O50   O     O_R   0.353850 0.914550 0.227070 -0.641802
O51   O     O_R   0.085450 0.353850 0.772930 -0.632988
O52   O     O_R   0.914550 0.646150 0.227070 -0.648576
Zn1   Zn    Zn3+2 0.000000 0.586740 0.782740 0.960066
Zn2   Zn    Zn3+2 1.000000 0.413260 0.217260 0.942058
Zn3   Zn    Zn3+2 0.413260 1.000000 0.782740 0.945241
Zn4   Zn    Zn3+2 0.586740 0.000000 0.217260 0.956147
Zn5   Zn    Zn3+2 1.000000 0.413260 0.782740 0.964914
Zn6   Zn    Zn3+2 1.000000 0.586740 0.217260 0.946951
Zn7   Zn    Zn3+2 0.586740 1.000000 0.782740 0.946930
Zn8   Zn    Zn3+2 0.413260 0.000000 0.217260 0.965975
Zn9   Zn    Zn3+2 0.500000 0.086740 0.282740 0.957986
Zn10  Zn    Zn3+2 0.500000 0.913260 0.717260 0.942859
Zn11  Zn    Zn3+2 0.913260 0.500000 0.282740 0.943817
Zn12  Zn    Zn3+2 0.086740 0.500000 0.717260 0.957049
Zn13  Zn    Zn3+2 0.500000 0.913260 0.282740 0.966396
Zn14  Zn    Zn3+2 0.500000 0.086740 0.717260 0.945822
Zn15  Zn    Zn3+2 0.086740 0.500000 0.282740 0.950449
Zn16  Zn    Zn3+2 0.913260 0.500000 0.717260 0.964680
C201  C     C_2   0.023432 0.859328 0.684585 0.494040
H49   H     H_    0.975148 0.830326 0.694685 0.028635
O53   O     O_2   0.020188 0.893696 0.654424 -0.447924
C202  C     C_2   0.994993 0.120970 0.278362 0.529638
H50   H     H_    0.032116 0.161622 0.290232 0.033156
O54   O     O_2   0.020239 0.064026 0.265504 -0.524636
C203  C     C_2   0.380724 0.264649 0.881566 0.502251
H51   H     H_    0.432073 0.235442 0.877956 0.023984
O55   O     O_2   0.359488 0.278410 0.914217 -0.498216
C204  C     C_2   0.616247 0.731754 0.119382 0.542035
H52   H     H_    0.565033 0.761146 0.123155 0.001990
O56   O     O_2   0.636308 0.716604 0.086695 -0.499204
C205  C     C_2   0.969352 0.147172 0.673933 0.508450
H53   H     H_    0.017406 0.176056 0.684299 0.023468
O57   O     O_2   0.973515 0.113007 0.643689 -0.459640
C206  C     C_2   0.032001 0.851329 0.327896 0.540824
H54   H     H_    0.982435 0.827592 0.316048 0.023369
O58   O     O_2   0.030260 0.878183 0.360177 -0.467273
C207  C     C_2   0.623547 0.744334 0.883261 0.468429
H55   H     H_    0.569896 0.768724 0.879234 0.026573
O59   O     O_2   0.647080 0.737717 0.916023 -0.505580
C208  C     C_2   0.378051 0.257151 0.117110 0.514256
H56   H     H_    0.431795 0.233079 0.121364 0.000878
O60   O     O_2   0.355224 0.264142 0.084230 -0.501430
C209  C     C_2   0.266991 0.382958 0.118719 0.467882
H57   H     H_    0.213921 0.408562 0.114698 0.003916
O61   O     O_2   0.317603 0.401456 0.097805 -0.469161
C210  C     C_2   0.733854 0.617845 0.881474 0.467719
H58   H     H_    0.786832 0.591937 0.885381 0.011717
O62   O     O_2   0.683310 0.599673 0.902515 -0.470874
C211  C     C_2   0.146106 0.975113 0.321793 0.540012
H59   H     H_    0.193257 0.010982 0.324087 -0.013541
O63   O     O_2   0.086679 0.998469 0.332129 -0.432437
C212  C     C_2   0.853530 0.025542 0.678927 0.529826
H60   H     H_    0.805769 0.994030 0.670584 0.006487
O64   O     O_2   0.913596 0.996828 0.676819 -0.443568
C213  C     C_2   0.719324 0.599680 0.124948 0.495751
H61   H     H_    0.770910 0.571306 0.120499 0.005549
O65   O     O_2   0.665702 0.579625 0.106802 -0.448509
C214  C     C_2   0.278097 0.397216 0.876268 0.491802
H62   H     H_    0.226723 0.426154 0.880359 -0.001245
O66   O     O_2   0.331252 0.416270 0.895079 -0.453870
C215  C     C_2   0.874089 0.006812 0.288697 0.444933
H63   H     H_    0.836718 0.963862 0.279631 0.033157
O67   O     O_2   0.924154 0.991082 0.310415 -0.466302
C216  C     C_2   0.132988 0.984206 0.695326 0.517823
H64   H     H_    0.178774 0.019772 0.688479 0.018430
O68   O     O_2   0.071319 0.009776 0.694987 -0.485798
C217  C     C_2   0.505301 0.378932 0.220835 0.532060
H65   H     H_    0.468103 0.337925 0.209373 0.025870
O69   O     O_2   0.480183 0.436475 0.232998 -0.523050
C218  C     C_2   0.492478 0.624868 0.787867 0.532249
H66   H     H_    0.528172 0.665934 0.800514 0.028862
O70   O     O_2   0.519207 0.568068 0.775703 -0.521899
C219  C     C_2   0.883529 0.768169 0.380656 0.502673
H67   H     H_    0.934266 0.737869 0.377155 0.021646
O71   O     O_2   0.863179 0.783774 0.413234 -0.497292
C220  C     C_2   0.119859 0.236703 0.618113 0.536277
H68   H     H_    0.067414 0.263692 0.622174 -0.001427
O72   O     O_2   0.141230 0.224965 0.585267 -0.498225
C221  C     C_2   0.470360 0.647300 0.174271 0.507622
H69   H     H_    0.519456 0.669957 0.187217 0.032104
O73   O     O_2   0.474006 0.621116 0.141881 -0.472318
C222  C     C_2   0.533067 0.349756 0.829825 0.535974
H70   H     H_    0.483018 0.327716 0.817611 0.021819
O74   O     O_2   0.532024 0.373954 0.862689 -0.467146
C223  C     C_2   0.121667 0.242441 0.382719 0.469917
H71   H     H_    0.068080 0.266894 0.378568 0.028105
O75   O     O_2   0.144689 0.235315 0.415552 -0.504653
C224  C     C_2   0.878043 0.757190 0.617095 0.536282
H72   H     H_    0.931777 0.733130 0.621411 0.002084
O76   O     O_2   0.855477 0.764478 0.584184 -0.503024
C225  C     C_2   0.766875 0.882835 0.618708 0.467623
H73   H     H_    0.713716 0.908166 0.614527 0.003457
O77   O     O_2   0.817695 0.901751 0.598038 -0.461369
C226  C     C_2   0.232286 0.116229 0.380935 0.466910
H74   H     H_    0.285303 0.090508 0.385027 0.011371
O78   O     O_2   0.181407 0.097505 0.401613 -0.471782
C227  C     C_2   0.648149 0.473117 0.824884 0.537102
H75   H     H_    0.695121 0.509398 0.826308 -0.012248
O79   O     O_2   0.589721 0.495291 0.837319 -0.425919
C228  C     C_2   0.352144 0.526745 0.175985 0.560267
H76   H     H_    0.304005 0.492876 0.171819 -0.009561
O80   O     O_2   0.411626 0.501719 0.166909 -0.434606
C229  C     C_2   0.227255 0.107943 0.621690 0.468931
H77   H     H_    0.279851 0.081527 0.617185 0.010496
O81   O     O_2   0.174979 0.087753 0.602526 -0.457724
C230  C     C_2   0.782515 0.901804 0.374440 0.496177
H78   H     H_    0.731479 0.931247 0.378671 -0.004805
O82   O     O_2   0.836432 0.921259 0.392524 -0.453834
C231  C     C_2   0.371609 0.510638 0.797609 0.443758
H79   H     H_    0.334667 0.467053 0.788921 0.030813
O83   O     O_2   0.420870 0.496405 0.820122 -0.459695
C232  C     C_2   0.626542 0.492332 0.209562 0.458509
H80   H     H_    0.663821 0.535509 0.218430 0.030787
O84   O     O_2   0.576725 0.507460 0.187570 -0.461798
O85   O     O_3   0.469397 0.870139 0.600472 -0.616540
C233  C     C_3   0.533708 0.827225 0.603197 0.112590
H81   H     H_    0.579981 0.859400 0.615627 0.133370
H82   H     H_    0.550295 0.806523 0.574224 0.132097
C234  C     C_3   0.518497 0.761848 0.629577 -0.303584
H83   H     H_    0.501821 0.781906 0.658619 0.263393
H84   H     H_    0.472771 0.728883 0.617458 0.217853
C235  C     C_3   0.585895 0.713144 0.633722 -0.924605
H85   H     H_    0.602911 0.691380 0.605113 0.267315
H86   H     H_    0.572919 0.666344 0.653025 0.275845
H87   H     H_    0.631867 0.744591 0.646498 0.275967
O86   O     O_3   0.564334 0.116674 0.398680 -0.609499
C236  C     C_3   0.639345 0.099879 0.393671 0.094515
H88   H     H_    0.646172 0.047974 0.377035 0.112357
H89   H     H_    0.666952 0.094226 0.422190 0.149793
C237  C     C_3   0.676460 0.161673 0.371225 -0.334730
H90   H     H_    0.650756 0.166667 0.342321 0.249203
H91   H     H_    0.668828 0.214300 0.386907 0.229748
C238  C     C_3   0.758244 0.147183 0.366204 -0.899877
H92   H     H_    0.785723 0.145937 0.394769 0.282936
H93   H     H_    0.783194 0.191475 0.348569 0.272063
H94   H     H_    0.767221 0.093956 0.351365 0.261022
O87   O     O_3   0.876772 0.450223 0.601213 -0.605793
C239  C     C_3   0.880943 0.372987 0.603278 0.092539
H95   H     H_    0.930828 0.355648 0.619360 0.114384
H96   H     H_    0.882438 0.348385 0.573815 0.149733
C240  C     C_3   0.813486 0.343999 0.624592 -0.326725
H97   H     H_    0.817006 0.359460 0.655569 0.244828
H98   H     H_    0.763243 0.369116 0.612311 0.234169
C241  C     C_3   0.807460 0.260862 0.621166 -0.912211
H99   H     H_    0.795018 0.245108 0.590896 0.273486
H100  H     H_    0.762744 0.240621 0.640165 0.274355
H101  H     H_    0.859575 0.234604 0.629863 0.273159
O88   O     O_3   0.130846 0.525562 0.399416 -0.618699
C242  C     C_3   0.170580 0.459144 0.397127 0.120972
H102  H     H_    0.137266 0.415059 0.383376 0.139352
H103  H     H_    0.187500 0.440557 0.426384 0.141888
C243  C     C_3   0.239184 0.471785 0.372649 -0.311299
H104  H     H_    0.222879 0.488657 0.343055 0.260348
H105  H     H_    0.272194 0.516649 0.385636 0.220054
C244  C     C_3   0.286155 0.402851 0.370059 -0.911544
H106  H     H_    0.303878 0.385427 0.399297 0.268952
H107  H     H_    0.335551 0.414179 0.352277 0.274078
H108  H     H_    0.254956 0.357768 0.356300 0.277352
O89   O     O_3   0.531881 0.129409 0.600348 -0.617584
C245  C     C_3   0.466801 0.171369 0.602231 0.112984
H109  H     H_    0.420115 0.138424 0.613770 0.133870
H110  H     H_    0.451983 0.192145 0.573072 0.133553
C246  C     C_3   0.479179 0.236675 0.629104 -0.302286
H111  H     H_    0.494757 0.216579 0.658238 0.264196
H112  H     H_    0.524782 0.270818 0.617703 0.217485
C247  C     C_3   0.410464 0.283758 0.632677 -0.928150
H113  H     H_    0.394546 0.305644 0.603989 0.268020
H114  H     H_    0.421283 0.330493 0.652413 0.272599
H115  H     H_    0.364514 0.251035 0.644670 0.275962
O90   O     O_3   0.441516 0.880747 0.398759 -0.606352
C248  C     C_3   0.364738 0.890261 0.397573 0.088379
H116  H     H_    0.350332 0.941044 0.381424 0.110127
H117  H     H_    0.341446 0.893977 0.427293 0.152969
C249  C     C_3   0.330258 0.824654 0.376986 -0.335276
H118  H     H_    0.342664 0.827910 0.345599 0.237329
H119  H     H_    0.354012 0.772962 0.388367 0.237507
C250  C     C_3   0.247456 0.822683 0.382947 -0.889697
H120  H     H_    0.234403 0.810071 0.413569 0.274349
H121  H     H_    0.223011 0.779547 0.364355 0.273610
H122  H     H_    0.222929 0.876367 0.375455 0.267653
O91   O     O_3   0.122639 0.552121 0.601029 -0.607340
C251  C     C_3   0.115933 0.628981 0.604694 0.095081
H123  H     H_    0.065586 0.643545 0.621295 0.115326
H124  H     H_    0.113580 0.655487 0.575742 0.148729
C252  C     C_3   0.182454 0.658760 0.626338 -0.332539
H125  H     H_    0.182062 0.637385 0.656351 0.250214
H126  H     H_    0.233490 0.639842 0.611895 0.230212
C253  C     C_3   0.182165 0.742335 0.627428 -0.905191
H127  H     H_    0.189667 0.764710 0.597870 0.277149
H128  H     H_    0.227608 0.762228 0.645948 0.273067
H129  H     H_    0.129545 0.762675 0.639356 0.269258
O92   O     O_3   0.868571 0.477528 0.399704 -0.617545
C254  C     C_3   0.829941 0.544532 0.397082 0.120019
H130  H     H_    0.864428 0.588148 0.383659 0.134798
H131  H     H_    0.812113 0.563352 0.426215 0.139891
C255  C     C_3   0.762192 0.532917 0.371976 -0.309964
H132  H     H_    0.779477 0.515960 0.342486 0.259471
H133  H     H_    0.728029 0.488454 0.384545 0.220742
C256  C     C_3   0.716307 0.602523 0.369161 -0.924495
H134  H     H_    0.696937 0.619542 0.398244 0.270038
H135  H     H_    0.667942 0.592224 0.350557 0.270984
H136  H     H_    0.748962 0.647513 0.356240 0.277052
O93   O     O_3   0.971093 0.369660 0.100482 -0.615819
C257  C     C_3   0.035935 0.327585 0.103287 0.112677
H137  H     H_    0.081501 0.360176 0.116116 0.132953
H138  H     H_    0.053344 0.307655 0.074296 0.132452
C258  C     C_3   0.021123 0.261517 0.129251 -0.304685
H139  H     H_    0.004224 0.280826 0.158400 0.262069
H140  H     H_    0.975660 0.228507 0.116895 0.218883
C259  C     C_3   0.088812 0.213150 0.133143 -0.923157
H141  H     H_    0.105994 0.192069 0.104419 0.268112
H142  H     H_    0.076106 0.165883 0.152179 0.276591
H143  H     H_    0.134564 0.244608 0.146106 0.275614
O94   O     O_3   0.061422 0.618086 0.898763 -0.609363
C260  C     C_3   0.137185 0.603878 0.894801 0.094541
H144  H     H_    0.146602 0.551929 0.878547 0.112722
H145  H     H_    0.163663 0.599726 0.923687 0.150409
C261  C     C_3   0.173115 0.666547 0.872495 -0.334137
H146  H     H_    0.149974 0.668818 0.842893 0.246852
H147  H     H_    0.161285 0.719394 0.887218 0.230369
C262  C     C_3   0.255913 0.656269 0.869839 -0.902904
H148  H     H_    0.280702 0.658818 0.899063 0.280066
H149  H     H_    0.280082 0.700447 0.851828 0.272418
H150  H     H_    0.269094 0.602487 0.856524 0.265180
O95   O     O_3   0.377567 0.948626 0.101227 -0.605630
C263  C     C_3   0.382899 0.871462 0.103147 0.091793
H151  H     H_    0.432931 0.854782 0.119291 0.114410
H152  H     H_    0.384987 0.847073 0.073646 0.150510
C264  C     C_3   0.315715 0.841377 0.124286 -0.327356
H153  H     H_    0.319191 0.856039 0.155376 0.243131
H154  H     H_    0.265239 0.866423 0.112230 0.235611
C265  C     C_3   0.310287 0.758312 0.120233 -0.908892
H155  H     H_    0.297737 0.743300 0.089872 0.273516
H156  H     H_    0.265877 0.737206 0.139169 0.273148
H157  H     H_    0.362671 0.732251 0.128610 0.278228
O96   O     O_3   0.630088 0.029210 0.899481 -0.619567
C266  C     C_3   0.671045 0.963493 0.897614 0.123534
H158  H     H_    0.638155 0.918063 0.884802 0.139562
H159  H     H_    0.689403 0.946731 0.926933 0.140832
C267  C     C_3   0.738460 0.976219 0.872249 -0.312070
H160  H     H_    0.720746 0.992059 0.842724 0.260802
H161  H     H_    0.771500 0.021803 0.884497 0.218815
C268  C     C_3   0.786023 0.907689 0.869634 -0.919390
H162  H     H_    0.805215 0.891327 0.898783 0.269779
H163  H     H_    0.834500 0.918985 0.851157 0.269517
H164  H     H_    0.754675 0.861871 0.856637 0.277933
O97   O     O_3   0.028259 0.630194 0.100329 -0.617104
C269  C     C_3   0.962038 0.670298 0.102407 0.111816
H165  H     H_    0.916460 0.636088 0.114161 0.134303
H166  H     H_    0.946252 0.690508 0.073277 0.133883
C270  C     C_3   0.972918 0.736057 0.129155 -0.301447
H167  H     H_    0.989337 0.716540 0.158269 0.264205
H168  H     H_    0.017462 0.771363 0.117578 0.217914
C271  C     C_3   0.902992 0.781290 0.132862 -0.926720
H169  H     H_    0.886299 0.802731 0.104205 0.267987
H170  H     H_    0.912690 0.828300 0.152580 0.273033
H171  H     H_    0.858014 0.747357 0.144937 0.276023
O98   O     O_3   0.944029 0.379395 0.898754 -0.606209
C272  C     C_3   0.867022 0.386893 0.897576 0.089650
H172  H     H_    0.851271 0.437451 0.881581 0.110355
H173  H     H_    0.843637 0.389682 0.927301 0.152197
C273  C     C_3   0.834295 0.320616 0.876776 -0.335095
H174  H     H_    0.846251 0.324781 0.845374 0.238003
H175  H     H_    0.859725 0.269467 0.887828 0.236931
C274  C     C_3   0.751650 0.316007 0.882960 -0.892292
H176  H     H_    0.739340 0.302053 0.913504 0.273236
H177  H     H_    0.728255 0.272776 0.864054 0.274110
H178  H     H_    0.725455 0.369164 0.876034 0.268729
O99   O     O_3   0.620159 0.058029 0.101113 -0.609289
C275  C     C_3   0.608044 0.133831 0.106651 0.094688
H179  H     H_    0.557248 0.143328 0.123876 0.115449
H180  H     H_    0.603049 0.162442 0.078354 0.146918
C276  C     C_3   0.672816 0.166580 0.128569 -0.326637
H181  H     H_    0.678080 0.139039 0.156997 0.253920
H182  H     H_    0.724076 0.157111 0.111926 0.226198
C277  C     C_3   0.662939 0.248731 0.134986 -0.915290
H183  H     H_    0.661550 0.277856 0.106857 0.280631
H184  H     H_    0.709408 0.270352 0.152216 0.274756
H185  H     H_    0.611166 0.259600 0.150861 0.258355
O100  O     O_3   0.368912 0.975742 0.899686 -0.618510
C278  C     C_3   0.329021 0.042001 0.897026 0.121011
H186  H     H_    0.362770 0.086318 0.883717 0.135612
H187  H     H_    0.310603 0.060388 0.926134 0.140125
C279  C     C_3   0.261704 0.029202 0.871762 -0.310624
H188  H     H_    0.279522 0.012250 0.842360 0.260510
H189  H     H_    0.228054 0.984367 0.884346 0.219401
C280  C     C_3   0.214893 0.098145 0.868650 -0.922905
H190  H     H_    0.195207 0.115300 0.897653 0.269405
H191  H     H_    0.166726 0.086941 0.850049 0.270765
H192  H     H_    0.246984 0.143394 0.855577 0.277620

loop_
_geom_bond_atom_site_label_1
_geom_bond_atom_site_label_2
_ccdc_geom_bond_type
C262  H150  S    
O99   C275  S    
C76   C104  A    
C269  C270  S    
C4    H36   S    
C236  H88   S    
C143  C175  A    
C251  H123  S    
C79   C87   A    
C127  O41   A    
C272  H172  S    
C166  C228  S    
C18   C50   A    
C244  H107  S    
C79   C99   A    
C235  H85   S    
C121  O29   A    
C31   C130  A    
C162  C232  S    
C123  O31   A    
C14   C102  A    
C29   C132  A    
C30   C131  A    
C45   C148  A    
C275  H179  S    
C264  H154  S    
C265  H155  S    
O89   C245  S    
C266  C267  S    
C2    C90   A    
C233  C234  S    
C3    H35   S    
C231  H79   S    
C16   C104  A    
C271  H171  S    
O1    Zn1   S    
C1    H33   S    
C247  H113  S    
C6    C94   A    
C179  C213  S    
C105  O9    A    
C139  C171  A    
C204  H52   S    
C105  O5    A    
C238  H94   S    
C112  O20   A    
C130  H2    S    
C156  H28   S    
C48   C50   A    
C229  O81   D    
C47   C146  A    
C199  C200  A    
C67   O87   S    
C80   C88   A    
C75   C103  A    
C254  H131  S    
C36   C62   A    
C218  H66   S    
C213  O65   D    
C255  H133  S    
C16   H48   S    
C257  H138  S    
C258  H140  S    
C39   C154  A    
C274  H176  S    
C117  O25   A    
C3    C8    A    
C207  O59   D    
C40   C41   A    
C261  H146  S    
C248  H116  S    
C22   C139  A    
C83   C105  S    
C159  H31   S    
C181  C211  S    
C244  H108  S    
C224  O76   D    
C242  H103  S    
C69   O89   S    
C277  H183  S    
C97   C197  A    
C57   C123  S    
C256  H136  S    
C91   C195  A    
C187  C205  S    
C263  C264  S    
C89   C193  A    
O94   C260  S    
C279  C280  S    
C276  H182  S    
C164  C173  A    
C61   C127  S    
C280  H190  S    
C206  H54   S    
C174  C220  S    
C72   C84   A    
C112  O16   A    
C273  H174  S    
C49   C115  S    
C21   C28   A    
C248  H117  S    
C22   C27   A    
C77   O97   S    
C225  H73   S    
C280  H192  S    
O92   C254  S    
C223  H71   S    
C251  C252  S    
C239  H95   S    
C143  H15   S    
C165  C227  S    
C272  C273  S    
C153  H25   S    
C189  C203  S    
C33   C160  A    
C94   C194  A    
C27   C134  A    
C180  C214  S    
C235  H87   S    
O20   Zn1   S    
C92   C196  A    
O1    Zn5   S    
C23   C55   A    
C24   C56   A    
C55   C113  S    
C117  O51   A    
C275  C276  S    
C118  O52   A    
C37   C44   A    
C78   O98   S    
C111  O19   A    
C38   C43   A    
C270  H168  S    
C155  C187  A    
C217  H65   S    
C168  C226  S    
C247  H115  S    
C279  H188  S    
C278  H186  S    
C253  H127  S    
C70   C82   A    
C35   C158  A    
C195  C196  A    
C146  H18   S    
C147  C179  A    
C252  C253  S    
C65   O85   S    
C193  C194  A    
C215  H63   S    
C17   C32   A    
O96   C266  S    
C18   C31   A    
C15   C103  A    
O28   Zn13  S    
C19   C30   A    
O29   Zn11  S    
O16   Zn5   S    
O44   Zn5   S    
C222  H70   S    
C250  H122  S    
O37   Zn8   S    
C264  C265  S    
C243  H105  S    
O38   Zn7   S    
C67   C83   A    
C11   H43   S    
O40   Zn1   S    
C86   C112  S    
C9    H41   S    
C71   C91   A    
C229  H77   S    
C124  O32   A    
C157  H29   S    
C238  H93   S    
O21   Zn16  S    
C246  H111  S    
O48   Zn2   S    
O22   Zn15  S    
C154  C186  A    
C155  H27   S    
C17   C144  A    
C18   C143  A    
C113  O21   A    
C180  C189  A    
C240  H98   S    
O41   Zn4   S    
C101  C197  A    
C243  C244  S    
C216  H64   S    
C184  C185  A    
C146  C178  A    
C253  H129  S    
C11   C99   A    
C79   O99   S    
C220  H68   S    
C273  C274  S    
C238  H92   S    
C12   H44   S    
O3    Zn3   S    
C160  H32   S    
C77   C97   A    
O4    Zn4   S    
C82   C108  S    
C169  C223  S    
C239  C240  S    
C66   O86   S    
C129  H1    S    
C34   C159  A    
C130  C162  A    
C271  H170  S    
C77   C85   A    
C203  H51   S    
C170  C224  S    
O93   C257  S    
C192  C202  S    
C67   C95   A    
C205  O57   D    
C37   C156  A    
C212  H60   S    
C25   C57   A    
C38   C155  A    
C4    C7    A    
C69   C89   A    
C122  O30   A    
C214  O66   D    
C32   C129  A    
C234  H84   S    
C2    H34   S    
C120  O28   A    
C71   C83   A    
C8    H40   S    
C217  O69   D    
C29   C61   A    
C184  C210  S    
C245  H109  S    
C129  C161  A    
O23   Zn10  S    
C31   C63   A    
C249  H118  S    
C32   C64   A    
C109  O17   A    
C167  C225  S    
C183  C186  A    
C17   C49   A    
C144  H16   S    
C161  C176  A    
O51   Zn5   S    
O30   Zn12  S    
C162  C175  A    
O2    Zn2   S    
C138  H10   S    
C74   C86   A    
C207  H55   S    
C203  O55   D    
C202  O54   D    
C268  H162  S    
C252  H125  S    
O25   Zn12  S    
C33   C63   A    
C120  O50   A    
C48   C145  A    
C144  C176  A    
O43   Zn6   S    
C34   C64   A    
C107  O7    A    
C35   C61   A    
C75   O95   S    
C42   C151  A    
C73   C85   A    
C232  H80   S    
C37   C59   A    
C43   C150  A    
C36   C157  A    
O1    Zn12  S    
C38   C60   A    
C100  C200  A    
C75   C87   A    
O2    Zn11  S    
C263  H152  S    
C208  O60   D    
C228  O80   D    
C40   C153  A    
C2    C5    A    
C128  O36   A    
C118  O26   A    
O7    Zn14  S    
C237  H90   S    
C135  H7    S    
C246  C247  S    
C262  H149  S    
O86   C236  S    
C276  C277  S    
C19   C142  A    
C277  H185  S    
C175  C217  S    
C20   C141  A    
C172  C222  S    
C125  O33   A    
C251  H124  S    
C183  C209  S    
O95   C263  S    
C151  C183  A    
O42   Zn3   S    
C24   C137  A    
C59   C125  S    
O47   Zn1   S    
C278  C279  S    
C235  H86   S    
C73   C101  A    
C176  C218  S    
C151  H23   S    
C265  H156  S    
C231  O83   D    
C197  C198  A    
C221  O73   D    
C71   O91   S    
C44   C54   A    
O4    Zn9   S    
C210  H58   S    
C247  H114  S    
C163  C229  S    
C135  C167  A    
C204  O56   D    
C241  H99   S    
C13   C101  A    
O49   Zn7   S    
C259  H141  S    
C124  O38   A    
C113  O47   A    
C13   H45   S    
C81   C107  S    
C114  O48   A    
O85   C233  S    
C115  O45   A    
C265  H157  S    
C280  H191  S    
C106  O6    A    
C23   C138  A    
O91   C251  S    
C249  C250  S    
C218  O70   D    
C213  H61   S    
C150  C182  A    
C116  O46   A    
C267  H160  S    
C68   C96   A    
C5    H37   S    
C154  H26   S    
C268  H164  S    
C72   C92   A    
O11   Zn10  S    
C134  H6    S    
O32   Zn10  S    
C219  H67   S    
C3    C91   A    
C269  H165  S    
C23   C26   A    
C201  O53   D    
C41   C55   A    
C277  H184  S    
C8    C96   A    
C42   C56   A    
C248  C249  S    
C43   C53   A    
C239  H96   S    
O39   Zn2   S    
C10   H42   S    
C84   C106  S    
C134  C166  A    
O45   Zn3   S    
C131  H3    S    
O46   Zn4   S    
C237  C238  S    
C74   C102  A    
C88   C110  S    
O3    Zn14  S    
C186  C208  S    
C276  H181  S    
C148  C180  A    
C177  C192  A    
C108  O8    A    
O5    Zn12  S    
C149  C181  A    
C236  H89   S    
O6    Zn11  S    
O17   Zn8   S    
C119  O49   A    
O3    Zn7   S    
O18   Zn7   S    
C114  O22   A    
O13   Zn4   S    
C181  C188  A    
C72   O92   S    
O31   Zn9   S    
C39   C42   A    
C272  H173  S    
O27   Zn14  S    
C260  H145  S    
C132  H4    S    
O14   Zn3   S    
C126  O44   A    
C242  H102  S    
C68   C84   A    
C159  C191  A    
C40   C58   A    
C160  C192  A    
C22   C54   A    
O35   Zn13  S    
O9    Zn16  S    
C211  H59   S    
C136  H8    S    
O10   Zn15  S    
C74   O94   S    
C28   C133  A    
C137  H9    S    
C9    C14   A    
C132  C164  A    
C270  H167  S    
C133  C165  A    
C70   O90   S    
C11   C16   A    
C171  C221  S    
C65   C81   A    
C46   C147  A    
C90   C194  A    
C12   C15   A    
C131  C163  A    
C50   C116  S    
C253  H128  S    
C148  H20   S    
C142  H14   S    
C150  H22   S    
C259  H143  S    
C261  H147  S    
C252  H126  S    
C15   H47   S    
O3    Zn10  S    
C30   C62   A    
C233  H81   S    
C254  C255  S    
C73   O93   S    
C109  O13   A    
C110  O18   A    
O98   C272  S    
C140  H12   S    
C222  O74   D    
O52   Zn6   S    
O2    Zn6   S    
C257  H137  S    
C95   C195  A    
C58   C124  S    
C93   C193  A    
O15   Zn6   S    
C206  O58   D    
C226  H74   S    
C85   C111  S    
C227  H75   S    
C87   C109  S    
O36   Zn14  S    
C6    H38   S    
C173  C219  S    
C44   C149  A    
C256  H135  S    
C249  H119  S    
C260  C261  S    
C158  C190  A    
C224  H72   S    
C242  C243  S    
O1    Zn16  S    
C261  C262  S    
O2    Zn15  S    
C216  O68   D    
C126  O34   A    
C60   C126  S    
C65   C93   A    
C115  O23   A    
C220  O72   D    
C12   C100  A    
C69   C81   A    
C119  O27   A    
O8    Zn13  S    
C96   C196  A    
C145  H17   S    
C268  H163  S    
C99   C199  A    
C225  O77   D    
C33   C48   A    
O19   Zn2   S    
C34   C47   A    
C21   C140  A    
C116  O24   A    
C35   C46   A    
O50   Zn8   S    
C4    C92   A    
C257  C258  S    
C52   C118  S    
C177  C215  S    
C62   C128  S    
O88   C242  S    
C54   C120  S    
O12   Zn9   S    
C138  C170  A    
C205  H53   S    
C233  H82   S    
C240  H97   S    
C158  H30   S    
C234  H83   S    
C262  H148  S    
C142  C174  A    
C41   C152  A    
C209  H57   S    
C255  C256  S    
C258  H139  S    
C245  H110  S    
C201  H49   S    
C107  O11   A    
C230  O82   D    
C256  H134  S    
C270  C271  S    
C102  C198  A    
C121  O39   A    
C182  C212  S    
C66   C82   A    
C45   C51   A    
C133  H5    S    
C264  H153  S    
C39   C57   A    
C46   C52   A    
C10   C98   A    
C260  H144  S    
C161  C231  S    
C156  C188  A    
C127  O35   A    
C178  C216  S    
C25   C136  A    
C122  O40   A    
C26   C135  A    
C123  O37   A    
C51   C117  S    
O24   Zn9   S    
C209  O61   D    
C26   C58   A    
C275  H180  S    
C219  O71   D    
C245  C246  S    
C78   C98   A    
C254  H130  S    
C152  C184  A    
C76   C88   A    
C232  O84   D    
C76   O96   S    
C66   C94   A    
C5    C93   A    
C78   C86   A    
C165  C172  A    
C266  H159  S    
O100  C278  S    
C166  C171  A    
C140  C172  A    
C80   C100  A    
C141  C173  A    
C70   C90   A    
C149  H21   S    
C63   C121  S    
C237  H91   S    
C167  C170  A    
C274  H177  S    
C20   C29   A    
C246  H112  S    
O4    Zn8   S    
C98   C198  A    
C24   C25   A    
C190  C204  S    
C104  C200  A    
C240  C241  S    
C141  H13   S    
C250  H120  S    
C136  C168  A    
C139  H11   S    
C191  C201  S    
C278  H187  S    
C212  O64   D    
C223  O75   D    
C211  O63   D    
C80   O100  S    
C266  H158  S    
O97   C269  S    
C36   C45   A    
C215  O67   D    
C103  C199  A    
O90   C248  S    
C226  O78   D    
C111  O15   A    
C221  H69   S    
C28   C60   A    
O26   Zn11  S    
C9    C97   A    
C271  H169  S    
C7    H39   S    
C108  O12   A    
C241  H100  S    
C234  C235  S    
C125  O43   A    
C259  H142  S    
C230  H78   S    
C185  C207  S    
C255  H132  S    
C168  C169  A    
C258  C259  S    
C1    C89   A    
C137  C169  A    
C188  C206  S    
C68   O88   S    
C10   C13   A    
C279  H189  S    
C53   C119  S    
C273  H175  S    
C47   C49   A    
C7    C95   A    
C267  H161  S    
C250  H121  S    
C274  H178  S    
C202  H50   S    
C241  H101  S    
C152  H24   S    
C20   C52   A    
C27   C59   A    
C21   C53   A    
C178  C191  A    
C227  O79   D    
O4    Zn13  S    
C179  C190  A    
C153  C185  A    
C64   C122  S    
C128  O42   A    
C214  H62   S    
C236  C237  S    
C164  C230  S    
C243  H104  S    
C269  H166  S    
C182  C187  A    
C244  H106  S    
C157  C189  A    
C110  O14   A    
C147  H19   S    
O87   C239  S    
C19   C51   A    
C263  H151  S    
C267  C268  S    
C208  H56   S    
C210  O62   D    
C145  C177  A    
C1    C6    A    
C106  O10   A    
C56   C114  S    
C228  H76   S    
O33   Zn15  S    
C163  C174  A    
O34   Zn16  S    
C14   H46   S    
