data_mof_unit_36762.cif
_audit_creation_date              2012-12-10T17:12:04-0500
_audit_creation_method            fapswitch 2.2
_symmetry_space_group_name_H-M    P1
_symmetry_Int_Tables_number       1
_space_group_crystal_system       triclinic
_cell_length_a                    11.864738
_cell_length_b                    13.076145
_cell_length_c                    15.950836
_cell_angle_alpha                 96.882453
_cell_angle_beta                  73.271241
_cell_angle_gamma                 100.244963
_cell_volume                      2325.97969822

loop_
_atom_site_label
_atom_site_type_symbol
_atom_type_description
_atom_site_fract_x
_atom_site_fract_y
_atom_site_fract_z
_atom_type_partial_charge
C1    C     C_R   0.525259 0.700029 0.493518 0.804333
C2    C     C_R   0.475012 0.299898 0.506842 0.803800
C3    C     C_R   0.353999 0.444704 0.083996 -0.167464
C4    C     C_R   0.639290 0.479939 0.908938 -0.173944
C5    C     C_R   0.271945 0.450967 0.038819 -0.218348
C6    C     C_R   0.721651 0.486483 0.956723 -0.222424
C7    C     C_R   0.457190 0.185759 0.517731 -0.086697
C8    C     C_R   0.545263 0.813951 0.482496 -0.088059
C9    C     C_R   0.650182 0.986339 0.509302 -0.199737
C10   C     C_R   0.354351 0.012861 0.488695 -0.201147
C11   C     C_R   0.649816 0.879242 0.494164 0.127985
C12   C     C_R   0.352677 0.119543 0.507177 0.110137
C13   C     C_R   0.456810 0.860990 0.464018 0.092537
C14   C     C_R   0.548541 0.139046 0.533124 0.101935
C15   C     C_R   0.454334 0.968439 0.486292 0.071712
C16   C     C_R   0.550814 0.031454 0.510774 0.070710
C17   C     C_R   0.945511 0.618108 0.566161 0.090008
C18   C     C_R   0.050361 0.377847 0.440966 0.078632
C19   C     C_R   0.823978 0.594667 0.571990 0.268967
C20   C     C_R   0.171911 0.399532 0.434011 0.329130
C21   C     C_R   0.857779 0.449145 0.468396 0.310143
C22   C     C_R   0.142538 0.551722 0.530703 0.290652
C23   C     C_R   0.426335 0.491733 0.668345 0.791390
C24   C     C_R   0.573396 0.508790 0.331739 0.786524
C25   C     C_R   0.975689 0.455204 0.477913 -0.117075
C26   C     C_R   0.022974 0.544238 0.523571 -0.054195
C27   C     C_R   0.381702 0.479976 0.765627 -0.117102
C28   C     C_R   0.616211 0.513413 0.233725 -0.119742
C29   C     C_R   0.228809 0.481513 0.906139 -0.188697
C30   C     C_R   0.770807 0.508872 0.094726 -0.192388
C31   C     C_R   0.265280 0.496890 0.816365 0.157950
C32   C     C_R   0.738569 0.520709 0.186554 0.142112
C33   C     C_R   0.457486 0.449477 0.810136 0.046003
C34   C     C_R   0.531931 0.511441 0.185023 0.055290
C35   C     C_R   0.429774 0.461539 0.902610 0.096289
C36   C     C_R   0.563007 0.485856 0.093170 0.084880
C37   C     C_R   0.310029 0.465575 0.949395 0.069334
C38   C     C_R   0.684985 0.490477 0.048247 0.072422
C39   C     C_R   0.515927 0.466540 0.950395 0.078054
C40   C     C_R   0.477360 0.466016 0.043563 0.078905
Cu1   Cu    Cu3+1 0.386820 0.492450 0.493500 0.910238
Cu2   Cu    Cu3+1 0.613180 0.507550 0.506500 0.906201
H1    H     H_    0.178235 0.443717 0.073938 0.141017
H2    H     H_    0.815536 0.495091 0.921915 0.140779
H3    H     H_    0.137952 0.487946 0.943837 0.135894
H4    H     H_    0.864279 0.515771 0.058774 0.135446
H5    H     H_    0.319027 0.424325 0.151060 0.151734
H6    H     H_    0.674960 0.489627 0.839708 0.160969
H7    H     H_    0.729739 0.034063 0.520134 0.158414
H8    H     H_    0.274998 0.964283 0.478043 0.162301
N1    N     N_R   0.216750 0.481110 0.483710 -0.223268
N2    N     N_R   0.783250 0.518890 0.516290 -0.205019
O1    O     O_R   0.419950 0.645670 0.495380 -0.579744
O2    O     O_R   0.580050 0.354330 0.504620 -0.579902
O3    O     O_R   0.611110 0.658410 0.506370 -0.589560
O4    O     O_R   0.388890 0.341590 0.493630 -0.579415
O5    O     O_R   0.350820 0.490050 0.621260 -0.583596
O6    O     O_R   0.649180 0.509950 0.378740 -0.581141
O7    O     O_R   0.541970 0.502800 0.632250 -0.601016
O8    O     O_R   0.458030 0.497200 0.367750 -0.611039
N3    N     N_3   0.244356 0.329569 0.375148 -0.580028
H9    H     H_    0.236149 0.334123 0.312194 0.181198
H10   H     H_    0.333704 0.349435 0.369810 0.274713
N4    N     N_3   0.744717 0.644473 0.644485 -0.621876
H11   H     H_    0.706867 0.591271 0.692411 0.218539
H12   H     H_    0.677572 0.669677 0.626817 0.269538
N5    N     N_3   0.987584 0.718246 0.603016 -0.614477
H13   H     H_    0.964641 0.775893 0.573602 0.228821
H14   H     H_    0.945723 0.724481 0.670365 0.241338
N6    N     N_3   0.006221 0.270852 0.420864 -0.591765
H15   H     H_    0.991574 0.258491 0.358799 0.228107
H16   H     H_    0.933666 0.242819 0.471668 0.220702
N7    N     N_3   0.428474 0.561775 0.222514 -0.596615
H17   H     H_    0.453748 0.634135 0.252437 0.227549
H18   H     H_    0.362511 0.516206 0.267005 0.238385
N8    N     N_3   0.540711 0.380161 0.766352 -0.608024
H19   H     H_    0.612691 0.417267 0.720145 0.235647
H20   H     H_    0.495033 0.317196 0.736752 0.224607
C41   C     C_3   0.837435 0.551192 0.230485 -0.823573
H21   H     H_    0.821759 0.621346 0.276380 0.241785
H22   H     H_    0.843168 0.485808 0.265509 0.240547
H23   H     H_    0.925536 0.570341 0.182427 0.212189
C42   C     C_3   0.178416 0.533783 0.779191 -0.865272
H24   H     H_    0.157023 0.477769 0.726007 0.259766
H25   H     H_    0.092595 0.541991 0.829163 0.215137
H26   H     H_    0.217564 0.612360 0.756654 0.226807
C43   C     C_3   0.634333 0.197312 0.583434 -0.852953
H27   H     H_    0.614830 0.274905 0.611412 0.254112
H28   H     H_    0.628594 0.153362 0.640331 0.228639
H29   H     H_    0.726896 0.205576 0.541611 0.215598
C44   C     C_3   0.376869 0.802652 0.409362 -0.837816
H30   H     H_    0.406279 0.728824 0.377445 0.243221
H31   H     H_    0.283291 0.787360 0.449132 0.232197
H32   H     H_    0.381016 0.849857 0.354804 0.223766
C45   C     C_3   0.235079 0.156720 0.520508 -0.780948
H33   H     H_    0.159682 0.094584 0.545781 0.207768
H34   H     H_    0.223361 0.223445 0.570590 0.247030
H35   H     H_    0.227594 0.176079 0.457052 0.272719
C46   C     C_3   0.764872 0.839873 0.486447 -0.821138
H36   H     H_    0.842206 0.903391 0.473955 0.211340
H37   H     H_    0.760821 0.807944 0.548411 0.242214
H38   H     H_    0.783616 0.780784 0.430131 0.244300
C47   C     C_3   0.181956 0.632693 0.596140 -0.731983
H39   H     H_    0.261362 0.621849 0.611872 0.266858
H40   H     H_    0.199517 0.711517 0.572564 0.233631
H41   H     H_    0.112459 0.629604 0.659745 0.205799
C48   C     C_3   0.820227 0.370271 0.400391 -0.785471
H42   H     H_    0.742232 0.381707 0.382933 0.276589
H43   H     H_    0.892058 0.373143 0.338013 0.178860
H44   H     H_    0.797524 0.290987 0.422746 0.209815

loop_
_geom_bond_atom_site_label_1
_geom_bond_atom_site_label_2
_ccdc_geom_bond_type
C18   N6    S    
C43   H27   S    
C8    C13   A    
C5    C37   A    
C1    C8    S    
N7    H18   S    
Cu1   Cu2   S    
C2    C7    S    
Cu2   O6    S    
C45   H35   S    
C27   C33   A    
C23   O7    A    
C17   C26   A    
C35   C37   A    
C9    C16   A    
N8    H20   S    
C14   C43   S    
C20   N1    A    
C10   C15   A    
C15   C16   A    
C31   C42   S    
C30   C38   A    
C11   C46   S    
N7    H17   S    
C20   N3    S    
N3    H10   S    
C1    O1    A    
C33   C35   A    
C19   N2    A    
C7    C14   A    
C45   H33   S    
C48   H42   S    
C6    C38   A    
C12   C45   S    
N6    H15   S    
C23   C27   S    
C34   C36   A    
C5    H1    S    
C28   C34   A    
C6    H2    S    
C13   C44   S    
C48   H43   S    
C18   C25   A    
C7    C12   A    
C17   N5    S    
C27   C31   A    
N5    H13   S    
C36   C40   A    
C9    H7    S    
N8    H19   S    
C4    C6    A    
C2    O2    A    
C44   H30   S    
C41   H22   S    
C25   C26   A    
C22   C47   S    
C29   H3    S    
N5    H14   S    
N4    H12   S    
C35   C39   A    
Cu1   O4    S    
Cu2   O3    S    
C44   H31   S    
C33   N8    S    
C42   H24   S    
C4    C39   A    
C28   C32   A    
C19   N4    S    
C24   O8    A    
C46   H38   S    
C47   H40   S    
C9    C11   A    
Cu1   O1    S    
C21   C48   S    
C10   C12   A    
C46   H37   S    
C3    C40   A    
C13   C15   A    
C48   H44   S    
C14   C16   A    
C10   H8    S    
C39   C40   A    
C4    H6    S    
C23   O5    A    
C21   C25   A    
C42   H25   S    
C30   H4    S    
C24   C28   S    
Cu1   O8    S    
C3    C5    A    
Cu2   O7    S    
C41   H23   S    
C45   H34   S    
C46   H36   S    
N4    H11   S    
C36   C38   A    
C1    O3    A    
Cu1   O5    S    
C29   C31   A    
C2    O4    A    
Cu2   O2    S    
C32   C41   S    
C30   C32   A    
C8    C11   A    
C3    H5    S    
C17   C19   A    
C47   H41   S    
C18   C20   A    
N3    H9    S    
C34   N7    S    
C41   H21   S    
C42   H26   S    
C24   O6    A    
C22   C26   A    
C43   H29   S    
C29   C37   A    
C47   H39   S    
C43   H28   S    
N6    H16   S    
Cu1   N1    S    
C21   N2    A    
Cu2   N2    S    
C22   N1    A    
C44   H32   S    
