data_mof_unit_26112.cif
_audit_creation_date              2012-12-11T14:39:28-0500
_audit_creation_method            fapswitch 2.2
_symmetry_space_group_name_H-M    P1
_symmetry_Int_Tables_number       1
_space_group_crystal_system       monoclinic
_cell_length_a                    7.19345
_cell_length_b                    14.705764
_cell_length_c                    16.358266
_cell_angle_alpha                 90.0
_cell_angle_beta                  98.454785
_cell_angle_gamma                 90.0
_cell_volume                      1711.65576428

loop_
_atom_site_label
_atom_site_type_symbol
_atom_type_description
_atom_site_fract_x
_atom_site_fract_y
_atom_site_fract_z
_atom_type_partial_charge
O1    O     O_R   0.525340 0.338340 0.164530 -0.543966
O2    O     O_R   0.474660 0.661660 0.835470 -0.543966
O3    O     O_R   0.974660 0.838340 0.835470 -0.543968
O4    O     O_R   0.025340 0.161660 0.164530 -0.543966
O5    O     O_R   0.253520 0.352000 0.336710 -0.544049
O6    O     O_R   0.746480 0.648000 0.663290 -0.544053
O7    O     O_R   0.246480 0.852000 0.663290 -0.544050
O8    O     O_R   0.753520 0.148000 0.336710 -0.544055
O9    O     O_R   0.083330 0.168380 0.337300 -0.532815
O10   O     O_R   0.916670 0.831620 0.662700 -0.532816
O11   O     O_R   0.416670 0.668380 0.662700 -0.532817
O12   O     O_R   0.583330 0.331620 0.337300 -0.532817
C1    C     C_R   0.434175 0.370238 0.362747 0.690558
C2    C     C_R   0.565828 0.629760 0.637256 0.690566
C3    C     C_R   0.065826 0.870237 0.637253 0.690557
C4    C     C_R   0.934172 0.129760 0.362744 0.690564
O13   O     O_R   0.195840 0.349670 0.165140 -0.553179
O14   O     O_R   0.804160 0.650330 0.834860 -0.553173
O15   O     O_R   0.304160 0.849670 0.834860 -0.553184
O16   O     O_R   0.695840 0.150330 0.165140 -0.553173
C5    C     C_R   0.359013 0.370230 0.137927 0.728111
C6    C     C_R   0.640984 0.629766 0.862069 0.728127
C7    C     C_R   0.140986 0.870231 0.862072 0.728119
C8    C     C_R   0.859015 0.129768 0.137929 0.728121
O17   O     O_3   0.387830 0.193120 0.250910 -0.387143
O18   O     O_3   0.612170 0.806880 0.749090 -0.387137
O19   O     O_3   0.112170 0.693120 0.749090 -0.387144
O20   O     O_3   0.887830 0.306880 0.250910 -0.387138
V1    V     V_3+5 0.113010 0.264540 0.250910 1.363369
V2    V     V_3+5 0.886990 0.735460 0.749090 1.363361
V3    V     V_3+5 0.386990 0.764540 0.749090 1.363367
V4    V     V_3+5 0.613010 0.235460 0.250910 1.363358
C9    C     C_R   0.013017 0.188876 0.532158 -0.166855
C10   C     C_R   0.986970 0.811123 0.467841 -0.166859
C11   C     C_R   0.486987 0.688876 0.467842 -0.166855
C12   C     C_R   0.513084 0.311124 0.532159 -0.166860
C13   C     C_R   0.031460 0.220938 0.612773 -0.143855
C14   C     C_R   0.968511 0.779061 0.387227 -0.143855
C15   C     C_R   0.468538 0.720938 0.387227 -0.143853
C16   C     C_R   0.531551 0.279060 0.612774 -0.143855
C17   C     C_R   0.042745 0.160546 0.679284 0.131041
C18   C     C_R   0.957201 0.839453 0.320717 0.131047
C19   C     C_R   0.457249 0.660544 0.320717 0.131041
C20   C     C_R   0.542835 0.339452 0.679284 0.131049
C21   C     C_R   0.047106 0.066608 0.664081 -0.161337
C22   C     C_R   0.952840 0.933391 0.335919 -0.161355
C23   C     C_R   0.452884 0.566607 0.335919 -0.161338
C24   C     C_R   0.547181 0.433392 0.664081 -0.161362
C25   C     C_R   0.028980 0.032171 0.582608 0.039521
C26   C     C_R   0.971000 0.967827 0.417390 0.039521
C27   C     C_R   0.471023 0.532171 0.417392 0.039521
C28   C     C_R   0.529019 0.467828 0.582610 0.039522
C29   C     C_R   0.005685 0.094743 0.515156 0.060984
C30   C     C_R   0.994306 0.905256 0.484842 0.060987
C31   C     C_R   0.494320 0.594743 0.484844 0.060985
C32   C     C_R   0.505722 0.405257 0.515158 0.060987
C33   C     C_R   0.026606 0.937013 0.567585 -0.155752
C34   C     C_R   0.973389 0.062985 0.432412 -0.155752
C35   C     C_R   0.473400 0.437014 0.432415 -0.155755
C36   C     C_R   0.526617 0.562986 0.567587 -0.155752
H1    H     H_    0.999591 0.239094 0.483295 0.123359
H2    H     H_    0.000405 0.760905 0.516704 0.123356
H3    H     H_    0.500410 0.739095 0.516706 0.123357
H4    H     H_    0.499660 0.260905 0.483297 0.123360
H5    H     H_    0.027693 0.293718 0.622805 0.123160
H6    H     H_    0.972281 0.706281 0.377197 0.123156
H7    H     H_    0.472301 0.793717 0.377196 0.123160
H8    H     H_    0.527797 0.206279 0.622805 0.123154
H9    H     H_    0.058626 0.020400 0.715770 0.085397
H10   H     H_    0.941295 0.979599 0.284230 0.085404
H11   H     H_    0.441350 0.520400 0.284232 0.085397
H12   H     H_    0.558710 0.479600 0.715770 0.085409
C37   C     C_2   0.142263 0.930489 0.933957 -0.380452
C38   C     C_2   0.857747 0.069514 0.066039 -0.380497
C39   C     C_2   0.357736 0.430484 0.066038 -0.380447
C40   C     C_2   0.642250 0.569505 0.933953 -0.380499
C41   C     C_2   0.986843 0.968730 0.962381 0.099241
C42   C     C_2   0.013170 0.031249 0.037635 0.099232
C43   C     C_2   0.513156 0.468725 0.037616 0.099264
C44   C     C_2   0.486828 0.531242 0.962359 0.099253
H13   H     H_    0.717219 0.063605 0.033933 0.114749
H14   H     H_    0.282805 0.936434 0.966034 0.114743
H15   H     H_    0.782779 0.563587 0.966052 0.114742
H16   H     H_    0.217197 0.436424 0.033959 0.114742
C45   C     C_3   0.979477 0.802200 0.236754 -0.386466
C46   C     C_3   0.840999 0.840055 0.164962 -0.331454
C47   C     C_3   0.861019 0.792107 0.083916 -0.766557
H17   H     H_    0.855286 0.717345 0.090813 0.224814
H18   H     H_    0.744247 0.812922 0.035616 0.207566
H19   H     H_    0.996386 0.810077 0.063451 0.236219
H20   H     H_    0.696269 0.830216 0.177559 0.208685
H21   H     H_    0.865155 0.913593 0.157489 0.196467
H22   H     H_    0.125107 0.816291 0.226206 0.184736
H23   H     H_    0.961040 0.727589 0.237354 0.168667
C48   C     C_3   0.020467 0.197794 0.763247 -0.386468
C49   C     C_3   0.158969 0.159947 0.835032 -0.331494
C50   C     C_3   0.138937 0.207868 0.916086 -0.766610
H24   H     H_    0.144583 0.282636 0.909203 0.224805
H25   H     H_    0.003604 0.189854 0.936557 0.236233
H26   H     H_    0.255743 0.187070 0.964376 0.207575
H27   H     H_    0.134864 0.086404 0.842493 0.196473
H28   H     H_    0.303682 0.169811 0.822428 0.208704
H29   H     H_    0.038882 0.272406 0.762646 0.168671
H30   H     H_    0.874847 0.183693 0.773798 0.184744
C51   C     C_3   0.520515 0.302199 0.763241 -0.386459
C52   C     C_3   0.658972 0.340046 0.835045 -0.331487
C53   C     C_3   0.638894 0.292100 0.916085 -0.766577
H31   H     H_    0.644670 0.217339 0.909192 0.224813
H32   H     H_    0.755607 0.312931 0.964406 0.207576
H33   H     H_    0.503485 0.310054 0.936517 0.236226
H34   H     H_    0.803713 0.330196 0.822467 0.208696
H35   H     H_    0.634829 0.413585 0.842514 0.196484
H36   H     H_    0.374877 0.316296 0.773776 0.184732
H37   H     H_    0.538932 0.227586 0.762640 0.168667
C54   C     C_3   0.479508 0.697791 0.236750 -0.386460
C55   C     C_3   0.340996 0.659935 0.164974 -0.331498
C56   C     C_3   0.360978 0.707855 0.083917 -0.766698
H38   H     H_    0.355261 0.782613 0.090800 0.224834
H39   H     H_    0.496313 0.689871 0.063441 0.236247
H40   H     H_    0.244192 0.687035 0.035632 0.207590
H41   H     H_    0.365120 0.586393 0.157511 0.196476
H42   H     H_    0.196289 0.669789 0.177587 0.208706
H43   H     H_    0.461081 0.772402 0.237348 0.168675
H44   H     H_    0.625126 0.683695 0.226193 0.184745
C57   C     C_3   0.215624 0.046198 0.082852 -0.262023
C58   C     C_3   0.257002 0.980233 0.155567 -0.313909
C59   C     C_3   0.461761 0.980800 0.195211 -0.756582
H45   H     H_    0.554573 0.973566 0.147256 0.214234
H46   H     H_    0.496114 0.043725 0.230409 0.280523
H47   H     H_    0.487520 0.924517 0.240331 0.190106
H48   H     H_    0.168385 0.997026 0.203274 0.201286
H49   H     H_    0.222328 0.910894 0.132370 0.189961
H50   H     H_    0.324270 0.040516 0.042537 0.125935
H51   H     H_    0.250802 0.117000 0.100491 0.197761
C60   C     C_3   0.784388 0.953774 0.917172 -0.262015
C61   C     C_3   0.743023 0.019734 0.844451 -0.313887
C62   C     C_3   0.538256 0.019201 0.804826 -0.756684
H52   H     H_    0.503825 0.956260 0.769656 0.280558
H53   H     H_    0.445479 0.026492 0.852789 0.214228
H54   H     H_    0.512545 0.075463 0.759683 0.190137
H55   H     H_    0.777754 0.089070 0.867637 0.189970
H56   H     H_    0.831601 0.002913 0.796737 0.201312
H57   H     H_    0.749211 0.882969 0.899542 0.197723
H58   H     H_    0.675749 0.959463 0.957491 0.125950
C63   C     C_3   0.284373 0.546191 0.917143 -0.262034
C64   C     C_3   0.242982 0.480220 0.844434 -0.313939
C65   C     C_3   0.038222 0.480790 0.804793 -0.756551
H59   H     H_    0.945409 0.473564 0.852752 0.214225
H60   H     H_    0.003882 0.543716 0.769591 0.280518
H61   H     H_    0.012450 0.424497 0.759675 0.190101
H62   H     H_    0.331597 0.497005 0.796724 0.201284
H63   H     H_    0.277648 0.410880 0.867633 0.189972
H64   H     H_    0.175732 0.540511 0.957461 0.125936
H65   H     H_    0.249191 0.616991 0.899500 0.197769
C66   C     C_3   0.715611 0.453776 0.082830 -0.262029
C67   C     C_3   0.756960 0.519737 0.155550 -0.313863
C68   C     C_3   0.961721 0.519201 0.195188 -0.756659
H66   H     H_    0.996138 0.456264 0.230365 0.280545
H67   H     H_    0.054516 0.526483 0.147231 0.214231
H68   H     H_    0.987425 0.575468 0.240327 0.190123
H69   H     H_    0.722236 0.589074 0.132361 0.189963
H70   H     H_    0.668366 0.502918 0.203259 0.201304
H71   H     H_    0.750790 0.382971 0.100461 0.197721
H72   H     H_    0.824259 0.459469 0.042516 0.125942

loop_
_geom_bond_atom_site_label_1
_geom_bond_atom_site_label_2
_ccdc_geom_bond_type
C57   H51   S    
C49   H27   S    
C47   H17   S    
O1    C5    A    
C68   H66   S    
C49   H28   S    
O13   V1    S    
O3    C7    A    
C48   C49   S    
C6    C40   S    
O15   V3    S    
C50   H24   S    
C60   C61   S    
C52   H35   S    
C41   C42   S    
C62   H53   S    
O20   V1    S    
C58   C59   S    
C55   H42   S    
C51   H36   S    
C67   C68   S    
C65   H60   S    
O9    C4    A    
C24   H12   S    
C14   C18   A    
O10   C3    A    
C56   H39   S    
O4    C8    A    
O11   C2    A    
C39   H16   S    
O8    C4    A    
C52   C53   S    
C54   C55   S    
C10   H2    S    
C25   C33   A    
C55   C56   S    
C18   C22   A    
C61   H56   S    
C28   C36   A    
C65   H59   S    
C19   C54   S    
C45   H22   S    
O16   C8    A    
C13   H5    S    
O2    C6    A    
C53   H31   S    
O14   V2    S    
C21   C25   A    
C16   C20   A    
O5    C1    A    
O4    V1    S    
O11   V3    S    
O9    V1    S    
C63   H64   S    
C53   H32   S    
O17   V4    S    
C60   H57   S    
C62   H52   S    
C67   H70   S    
O18   V3    S    
C68   H67   S    
C10   C14   A    
C31   C36   A    
O12   V4    S    
O19   V2    S    
C3    C33   S    
C7    C37   S    
C40   H15   S    
C50   H25   S    
C48   H29   S    
C63   C64   S    
O5    V1    S    
C52   H34   S    
C9    C29   A    
C62   H54   S    
C54   H43   S    
C55   H41   S    
C11   C31   A    
O8    V4    S    
C14   H6    S    
C51   H37   S    
C12   C16   A    
C65   H61   S    
O7    V3    S    
C56   H40   S    
C46   C47   S    
C23   C27   A    
C66   H71   S    
C45   C46   S    
C21   H9    S    
O1    V4    S    
O13   C5    A    
C64   H62   S    
O2    V3    S    
C26   C34   A    
O3    V2    S    
C11   C15   A    
C59   H46   S    
C61   H55   S    
C12   C32   A    
O6    C2    A    
C45   H23   S    
O10   V2    S    
C58   H49   S    
C49   C50   S    
C18   C45   S    
C4    C34   S    
C23   H11   S    
C64   H63   S    
C63   H65   S    
C44   C63   S    
O6    V2    S    
C67   H69   S    
C10   C30   A    
C68   H68   S    
C47   H18   S    
C16   H8    S    
C57   C58   S    
C53   H33   S    
C27   C35   A    
C38   H13   S    
C59   H45   S    
C37   H14   S    
C50   H26   S    
C48   H30   S    
O15   C7    A    
C20   C51   S    
C64   C65   S    
O16   V4    S    
C57   H50   S    
C5    C39   S    
C60   H58   S    
C37   C41   D    
C54   H44   S    
O14   C6    A    
C15   H7    S    
C40   C44   D    
C61   C62   S    
C15   C19   A    
C29   C34   A    
C1    C35   S    
C66   H72   S    
C2    C36   S    
C51   C52   S    
C22   C26   A    
C32   C35   A    
C46   H20   S    
C59   H47   S    
C26   C30   A    
C46   H21   S    
C56   H38   S    
C8    C38   S    
C17   C48   S    
C19   C23   A    
C58   H48   S    
C25   C29   A    
O7    C3    A    
C27   C31   A    
C13   C17   A    
C9    C13   A    
C22   H10   S    
C43   C66   S    
C43   C44   S    
C20   C24   A    
C24   C28   A    
O12   C1    A    
C9    H1    S    
C38   C42   D    
C47   H19   S    
C66   C67   S    
C17   C21   A    
C11   H3    S    
C41   C60   S    
C12   H4    S    
C42   C57   S    
C39   C43   D    
C28   C32   A    
C30   C33   A    
