data_mof_unit_5188.cif
_audit_creation_date              2012-10-26T20:59:00-0400
_audit_creation_method            fapswitch 2.2
_symmetry_space_group_name_H-M    P1
_symmetry_Int_Tables_number       1
_space_group_crystal_system       triclinic
_cell_length_a                    27.636229
_cell_length_b                    10.613946
_cell_length_c                    9.481627
_cell_angle_alpha                 89.941755
_cell_angle_beta                  89.01543
_cell_angle_gamma                 89.879632
_cell_volume                      2780.82226063

loop_
_atom_site_label
_atom_site_type_symbol
_atom_type_description
_atom_site_fract_x
_atom_site_fract_y
_atom_site_fract_z
_atom_type_partial_charge
C1    C     C_R   0.500123 0.259836 0.499824 0.615646
C2    C     C_R   0.873791 0.372359 0.501650 -0.014078
C3    C     C_R   0.354895 0.499556 0.505501 0.048687
C4    C     C_R   0.645101 0.500438 0.494367 0.033937
C5    C     C_R   0.975705 0.385668 0.464636 0.055210
C6    C     C_R   0.024259 0.614619 0.537247 0.055299
C7    C     C_R   0.973892 0.600119 0.567168 0.038623
C8    C     C_R   0.026039 0.400261 0.434462 0.039433
C9    C     C_R   0.949586 0.489549 0.522419 -0.018097
C10   C     C_R   0.050361 0.510759 0.479308 -0.017215
C11   C     C_R   0.950732 0.269032 0.447855 0.228925
C12   C     C_R   0.499895 0.740163 0.500176 0.614253
C13   C     C_R   0.049294 0.731136 0.554376 0.228071
C14   C     C_R   0.900038 0.265628 0.460961 -0.094645
C15   C     C_R   0.099997 0.734367 0.541477 -0.090649
C16   C     C_R   0.407786 0.500490 0.501176 0.657080
C17   C     C_R   0.592214 0.499564 0.498810 0.650504
C18   C     C_R   0.052621 0.312410 0.351584 -0.084299
C19   C     C_R   0.947244 0.688123 0.649678 -0.085708
C20   C     C_3   0.539678 0.041511 0.568236 -0.133453
C21   C     C_3   0.460367 0.958489 0.431771 -0.137538
C22   C     C_3   0.539272 0.958268 0.435668 0.230062
C23   C     C_R   0.101332 0.518681 0.461631 -0.043376
C24   C     C_3   0.460775 0.041724 0.564340 0.229625
C25   C     C_3   0.499545 0.876813 0.501112 0.031636
C26   C     C_3   0.500498 0.123184 0.498893 0.031350
C27   C     C_3   0.498963 0.958928 0.635485 -0.109512
C28   C     C_3   0.501084 0.041066 0.364520 -0.111532
C29   C     C_3   0.495513 0.613947 0.051302 0.023911
C30   C     C_3   0.504485 0.386050 0.948700 0.024206
C31   C     C_3   0.460435 0.546531 0.952715 0.055863
C32   C     C_3   0.539562 0.453463 0.047288 0.055900
C33   C     C_3   0.535130 0.566116 0.948676 0.060837
C34   C     C_R   0.898613 0.481569 0.540000 -0.042461
C35   C     C_3   0.464867 0.433878 0.051333 0.060402
C36   C     C_R   0.178213 0.429118 0.386835 0.450339
C37   C     C_R   0.821672 0.571331 0.613954 0.377015
C38   C     C_R   0.177039 0.629001 0.489928 0.470070
C39   C     C_R   0.822960 0.370899 0.512179 0.483345
C40   C     C_R   0.278729 0.594877 0.580812 0.267957
C41   C     C_R   0.721290 0.404406 0.420548 0.273334
C42   C     C_R   0.329855 0.599680 0.569626 0.140783
C43   C     C_R   0.670132 0.400079 0.430709 0.147560
C44   C     C_R   0.330038 0.391663 0.462668 0.118160
C45   C     C_R   0.127487 0.421605 0.394696 0.046632
C46   C     C_R   0.670024 0.608200 0.537224 0.177609
C47   C     C_R   0.279122 0.387686 0.479393 -0.001129
C48   C     C_R   0.720990 0.612245 0.519717 -0.000896
C49   C     C_R   0.253356 0.502498 0.503262 0.199874
C50   C     C_R   0.746589 0.497042 0.498028 0.129246
C51   C     C_2   0.414255 0.601154 0.899744 0.282500
C52   C     C_2   0.585742 0.398832 0.100265 0.283646
C53   C     C_2   0.575930 0.643060 0.889106 0.283843
C54   C     C_2   0.424084 0.356873 0.110948 0.283611
C55   C     C_2   0.256368 0.263746 0.513240 0.325373
C56   C     C_R   0.872405 0.578842 0.606391 0.029122
C57   C     C_2   0.745033 0.733760 0.480983 0.324357
C58   C     C_R   0.102527 0.321725 0.334242 -0.100837
C59   C     C_R   0.897320 0.678892 0.666648 -0.114742
C60   C     C_R   0.126203 0.627677 0.500420 -0.012382
Cu1   Cu    Cu3+1 0.500010 0.499990 0.643150 1.045110
Cu2   Cu    Cu3+1 0.499990 0.500010 0.356850 1.045177
H1    H     H_    0.572409 0.077526 0.621050 0.164860
H2    H     H_    0.118844 0.821830 0.561269 0.167369
H3    H     H_    0.035549 0.238135 0.293394 0.194296
H4    H     H_    0.964254 0.762481 0.707870 0.195436
H5    H     H_    0.336113 0.237378 0.354654 0.335311
H6    H     H_    0.664255 0.757966 0.652146 0.379898
H7    H     H_    0.386914 0.539870 0.856516 0.134168
H8    H     H_    0.613077 0.460107 0.143536 0.133034
H9    H     H_    0.607145 0.596790 0.841485 0.129907
H10   H     H_    0.392897 0.403067 0.158823 0.132522
H11   H     H_    0.272863 0.176100 0.478763 0.135759
H12   H     H_    0.427636 0.922475 0.378955 0.157048
H13   H     H_    0.782074 0.733694 0.441238 0.123934
H14   H     H_    0.665439 0.224211 0.375662 0.360232
H15   H     H_    0.334442 0.775416 0.625254 0.350873
H16   H     H_    0.723476 0.305118 0.247351 0.347525
H17   H     H_    0.276814 0.693527 0.754469 0.346598
H18   H     H_    0.953244 0.085820 0.424923 0.344069
H19   H     H_    0.046888 0.914323 0.577684 0.347277
H20   H     H_    0.599732 0.983620 0.338068 0.357645
H21   H     H_    0.400383 0.016341 0.662289 0.348678
H22   H     H_    0.497040 0.923766 0.745771 0.192453
H23   H     H_    0.503006 0.076228 0.254233 0.192415
H24   H     H_    0.491692 0.709541 0.097676 0.170324
H25   H     H_    0.508308 0.290457 0.902325 0.170726
H26   H     H_    0.121476 0.249638 0.274095 0.176661
H27   H     H_    0.878328 0.751125 0.726457 0.175658
H28   H     H_    0.881229 0.178046 0.441501 0.162928
N1    N     N_R   0.202237 0.518936 0.463638 -0.355304
N2    N     N_R   0.797715 0.481019 0.537690 -0.378430
N3    N     N_3   0.500040 0.499970 0.858290 -0.292222
N4    N     N_3   0.499960 0.500030 0.141710 -0.292399
O1    O     O_R   0.500020 0.316850 0.620870 -0.502208
O2    O     O_2   0.797184 0.650082 0.701050 -0.488281
O3    O     O_2   0.799942 0.259207 0.507614 -0.408723
O4    O     O_2   0.200107 0.740585 0.495287 -0.425852
O5    O     O_3   0.356667 0.288865 0.416672 -0.661925
O6    O     O_3   0.643579 0.709784 0.587135 -0.624351
O7    O     O_2   0.406705 0.714230 0.907847 -0.475594
O8    O     O_2   0.593297 0.285762 0.092118 -0.472023
O9    O     O_2   0.574677 0.757786 0.896178 -0.475925
O10   O     O_2   0.425324 0.242157 0.103650 -0.479511
O11   O     O_2   0.219757 0.257858 0.586964 -0.464263
O12   O     O_R   0.499980 0.683150 0.379130 -0.502911
O13   O     O_2   0.723578 0.834362 0.485795 -0.440506
O14   O     O_3   0.643937 0.298914 0.381489 -0.688880
O15   O     O_3   0.356029 0.700915 0.618756 -0.693252
O16   O     O_3   0.746163 0.334083 0.320241 -0.631677
O17   O     O_3   0.253989 0.664591 0.681932 -0.628069
O18   O     O_3   0.976089 0.157415 0.431770 -0.704535
O19   O     O_3   0.024004 0.842836 0.570602 -0.706633
O20   O     O_3   0.580521 0.909227 0.368092 -0.610946
O21   O     O_3   0.419526 0.090747 0.631936 -0.627127
O22   O     O_R   0.500000 0.316860 0.379090 -0.470965
O23   O     O_R   0.500000 0.683140 0.620910 -0.471478
O24   O     O_R   0.430270 0.500020 0.620880 -0.486731
O25   O     O_R   0.569730 0.499980 0.379120 -0.486186
O26   O     O_R   0.430250 0.500030 0.379090 -0.515843
O27   O     O_R   0.569750 0.499970 0.620910 -0.516409
O28   O     O_2   0.202605 0.350914 0.298933 -0.490021

loop_
_geom_bond_atom_site_label_1
_geom_bond_atom_site_label_2
_ccdc_geom_bond_type
C32   N4    S    
C3    C42   A    
C34   C56   A    
C23   C45   A    
C15   C60   A    
C41   C50   A    
C24   C27   S    
C38   O4    S    
C48   C57   S    
C47   C49   A    
C4    C46   A    
C18   H3    S    
C5    C9    A    
C52   O8    D    
C30   C35   S    
C55   O11   D    
C54   O10   D    
C27   H22   S    
C42   O15   S    
C24   C26   S    
C5    C11   A    
C30   N3    S    
C16   O26   A    
C29   N4    S    
C44   O5    S    
Cu1   N3    S    
C39   O3    S    
C40   C49   A    
C29   C33   S    
C19   H4    S    
Cu1   O27   S    
C59   H27   S    
C32   C52   S    
C21   C25   S    
C37   C56   A    
C2    C39   A    
C18   C58   A    
C14   H28   S    
C22   C25   S    
C15   H2    S    
C1    O22   A    
C30   C32   S    
Cu2   O26   S    
C44   C47   A    
H5    O5    S    
C2    C34   A    
C48   C50   A    
Cu1   O24   S    
H14   O14   S    
C22   C28   S    
C35   C54   S    
C41   C43   A    
C49   N1    S    
C40   O17   S    
C33   C53   S    
C23   C60   A    
C45   C58   A    
C46   C48   A    
C3    C44   A    
Cu1   O23   S    
H21   O21   S    
H20   O20   S    
C19   C59   A    
C31   N3    S    
C38   N1    A    
C8    C18   A    
C37   O2    S    
C33   N3    S    
C36   O28   S    
H6    O6    S    
Cu2   O22   S    
C16   O24   A    
C1    O1    A    
H18   O18   S    
C20   C27   S    
C29   H24   S    
C36   C45   A    
H16   O16   S    
H15   O15   S    
Cu2   O25   S    
C38   C60   A    
C4    C17   S    
C36   N1    A    
C50   N2    S    
C57   O13   D    
C21   C28   S    
C20   C22   S    
C7    C19   A    
C41   O16   S    
Cu2   N4    S    
C9    C34   A    
C31   C35   S    
C51   O7    D    
C53   H9    S    
C39   N2    A    
C47   C55   S    
C35   N4    S    
C17   O27   A    
C7    C9    A    
C46   O6    S    
C37   N2    A    
C11   O18   S    
C31   C51   S    
C58   H26   S    
C6    C10   A    
C5    C8    A    
Cu1   O1    S    
C6    C7    A    
Cu2   O12   S    
C4    C43   A    
C10   C23   A    
C25   C27   S    
C26   C28   S    
C56   C59   A    
H17   O17   S    
C12   C25   S    
C32   C33   S    
C57   H13   S    
C20   H1    S    
C13   C15   A    
C29   C31   S    
C6    C13   A    
C12   O12   A    
C1    C26   S    
C20   C26   S    
C53   O9    D    
C21   H12   S    
C40   C42   A    
C11   C14   A    
C43   O14   S    
Cu1   Cu2   S    
C2    C14   A    
C52   H8    S    
C17   O25   A    
C12   O23   A    
C55   H11   S    
C22   O20   S    
C54   H10   S    
C24   O21   S    
C8    C10   A    
C21   C24   S    
H19   O19   S    
C28   H23   S    
C51   H7    S    
C30   H25   S    
C13   O19   S    
C3    C16   S    
