data_mof_unit_10406.cif
_audit_creation_date              2012-12-10T17:45:28-0500
_audit_creation_method            fapswitch 2.2
_symmetry_space_group_name_H-M    P1
_symmetry_Int_Tables_number       1
_space_group_crystal_system       triclinic
_cell_length_a                    11.538328
_cell_length_b                    10.634743
_cell_length_c                    9.933283
_cell_angle_alpha                 88.019029
_cell_angle_beta                  89.709815
_cell_angle_gamma                 88.700224
_cell_volume                      1217.83181452

loop_
_atom_site_label
_atom_site_type_symbol
_atom_type_description
_atom_site_fract_x
_atom_site_fract_y
_atom_site_fract_z
_atom_type_partial_charge
C1    C     C_R   0.490688 0.260921 0.503192 0.879684
C2    C     C_R   0.493610 0.871981 0.490479 -0.127691
C3    C     C_R   0.352196 0.665384 0.135073 -0.191888
C4    C     C_R   0.282087 0.500184 0.500252 0.863938
C5    C     C_R   0.278361 0.748131 0.063019 0.016143
C6    C     C_R   0.276555 0.746420 0.923548 -0.232082
C7    C     C_R   0.348825 0.663031 0.855931 -0.152860
C8    C     C_R   0.425957 0.579240 0.925471 0.175643
C9    C     C_R   0.426738 0.579866 0.069786 0.148202
C10   C     C_R   0.570230 0.418801 0.073977 -0.093184
C11   C     C_R   0.570354 0.418911 0.930957 -0.099061
C12   C     C_R   0.184622 0.045603 0.621408 -0.162616
C13   C     C_R   0.501334 0.739211 0.497332 0.861887
C14   C     C_R   0.717923 0.499883 0.499730 0.910068
C15   C     C_1   0.161599 0.500758 0.500693 -0.175949
C16   C     C_1   0.059385 0.501035 0.500394 0.005876
C17   C     C_1   0.940670 0.500892 0.499660 0.010748
C18   C     C_1   0.838447 0.500449 0.499302 -0.171201
C19   C     C_R   0.287320 0.113369 0.614344 -0.029889
C20   C     C_1   0.291378 0.217806 0.702483 0.173904
C21   C     C_1   0.701498 0.877543 0.421255 0.168294
C22   C     C_1   0.203862 0.834894 0.133135 0.168251
C23   C     C_R   0.182148 0.923153 0.577879 -0.143932
C24   C     C_R   0.283787 0.864767 0.534602 -0.182418
C25   C     C_R   0.388129 0.931713 0.524768 0.081096
C26   C     C_R   0.387982 0.060541 0.551357 0.047127
C27   C     C_R   0.488594 0.127695 0.511881 -0.113254
C28   C     C_R   0.589021 0.067527 0.466068 -0.233389
C29   C     C_R   0.593691 0.938916 0.459788 -0.016070
H1    H     H_    0.664657 0.121475 0.437423 0.146517
H2    H     H_    0.218946 0.809806 0.866451 0.163609
H3    H     H_    0.341106 0.667239 0.749403 0.209292
H4    H     H_    0.628063 0.354844 0.879386 0.147531
H5    H     H_    0.107388 0.085299 0.667682 0.143447
H6    H     H_    0.102793 0.870897 0.585056 0.153416
H7    H     H_    0.279862 0.767383 0.507504 0.115020
H8    H     H_    0.627864 0.354611 0.129555 0.148978
H9    H     H_    0.348961 0.670673 0.241684 0.204044
N1    N     N_R   0.498930 0.498800 0.142780 -0.115898
N2    N     N_R   0.498900 0.498720 0.857170 -0.114199
N3    N     N_1   0.292579 0.298215 0.777967 -0.154108
N4    N     N_1   0.787671 0.828434 0.390464 -0.199135
N5    N     N_1   0.144136 0.904490 0.189664 -0.186166
O1    O     O_R   0.500000 0.316780 0.614690 -0.612291
O2    O     O_R   0.499990 0.316750 0.385360 -0.606997
O3    O     O_R   0.334450 0.500030 0.614670 -0.625383
O4    O     O_R   0.334440 0.500000 0.385330 -0.628754
O5    O     O_R   0.500010 0.683250 0.614640 -0.631408
O6    O     O_R   0.500000 0.683220 0.385310 -0.634647
O7    O     O_R   0.665560 0.500000 0.614670 -0.609524
O8    O     O_R   0.665550 0.499970 0.385330 -0.604276
Zn1   Zn    Zn3+2 0.500010 0.500020 0.653130 0.953041
Zn2   Zn    Zn3+2 0.499990 0.499980 0.346870 0.952515

loop_
_geom_bond_atom_site_label_1
_geom_bond_atom_site_label_2
_ccdc_geom_bond_type
C19   C20   S    
C13   O5    A    
O7    Zn1   S    
C23   C24   A    
C6    C7    A    
C3    C9    A    
C11   H4    S    
C14   C18   S    
C1    O1    A    
C22   N5    T    
C9    N1    A    
O4    Zn2   S    
O1    Zn1   S    
C4    C15   S    
C28   H1    S    
C17   C18   T    
O2    Zn2   S    
C7    C8    A    
C24   H7    S    
C2    C13   S    
C12   C23   A    
C1    O2    A    
C26   C27   A    
N1    Zn2   S    
C10   H8    S    
C13   O6    A    
C5    C6    A    
C12   C19   A    
C28   C29   A    
C6    H2    S    
C2    C25   A    
C23   H6    S    
C2    C29   A    
C11   N2    A    
O6    Zn2   S    
C16   C17   S    
C10   C11   A    
C14   O7    A    
C12   H5    S    
C15   C16   T    
O3    Zn1   S    
O5    Zn1   S    
C24   C25   A    
C27   C28   A    
C1    C27   S    
C19   C26   A    
C10   N1    A    
C4    O3    A    
C7    H3    S    
C8    N2    A    
C3    C5    A    
C25   C26   A    
N2    Zn1   S    
C21   C29   S    
C21   N4    T    
C5    C22   S    
C14   O8    A    
C3    H9    S    
C20   N3    T    
C8    C9    A    
O8    Zn2   S    
C4    O4    A    
