data_mof_unit_53555.cif
_audit_creation_date              2012-12-11T15:50:34-0500
_audit_creation_method            fapswitch 2.2
_symmetry_space_group_name_H-M    P1
_symmetry_Int_Tables_number       1
_space_group_crystal_system       triclinic
_cell_length_a                    6.939843
_cell_length_b                    14.435827
_cell_length_c                    16.286501
_cell_angle_alpha                 89.92528
_cell_angle_beta                  90.065013
_cell_angle_gamma                 89.963595
_cell_volume                      1631.6175486

loop_
_atom_site_label
_atom_site_type_symbol
_atom_type_description
_atom_site_fract_x
_atom_site_fract_y
_atom_site_fract_z
_atom_type_partial_charge
O1    O     O_R   0.638140 0.833910 0.163320 -0.546377
O2    O     O_R   0.361860 0.166090 0.836680 -0.544778
O3    O     O_R   0.361860 0.166090 0.663320 -0.543910
O4    O     O_R   0.638140 0.833910 0.336680 -0.542326
O5    O     O_R   0.138140 0.666090 0.336680 -0.545464
O6    O     O_R   0.861860 0.333910 0.663320 -0.545053
O7    O     O_R   0.861860 0.333910 0.836680 -0.544783
O8    O     O_R   0.138140 0.666090 0.163320 -0.544392
O9    O     O_R   0.308390 0.844930 0.336080 -0.542049
O10   O     O_R   0.691610 0.155070 0.663920 -0.530968
O11   O     O_R   0.691610 0.155070 0.836080 -0.542735
O12   O     O_R   0.308390 0.844930 0.163920 -0.531550
O13   O     O_R   0.808390 0.655070 0.163920 -0.540273
O14   O     O_R   0.191610 0.344930 0.836080 -0.540173
O15   O     O_R   0.191610 0.344930 0.663920 -0.518004
O16   O     O_R   0.808390 0.655070 0.336080 -0.517905
C1    C     C_R   0.476421 0.868017 0.364405 0.711997
C2    C     C_R   0.523429 0.132163 0.635546 0.725033
C3    C     C_R   0.523688 0.132010 0.864413 0.702617
C4    C     C_R   0.476456 0.867785 0.135519 0.715821
C5    C     C_R   0.975797 0.633951 0.134109 0.713284
C6    C     C_R   0.024211 0.366010 0.865916 0.709910
C7    C     C_R   0.022775 0.368808 0.636337 0.733547
C8    C     C_R   0.977209 0.631245 0.363705 0.730136
O17   O     O_3   0.471620 0.691320 0.250000 -0.367142
O18   O     O_3   0.528380 0.308680 0.750000 -0.367164
O19   O     O_3   0.971620 0.808680 0.250000 -0.370203
O20   O     O_3   0.028380 0.191320 0.750000 -0.370203
V1    V     V_3+5 0.196770 0.760880 0.250000 1.400072
V2    V     V_3+5 0.803230 0.239120 0.750000 1.399860
V3    V     V_3+5 0.696770 0.739120 0.250000 1.411823
V4    V     V_3+5 0.303230 0.260880 0.750000 1.411728
C9    C     C_R   0.835328 0.499836 0.449588 0.297827
C10   C     C_R   0.164520 0.500345 0.550554 0.298147
C11   C     C_R   0.178150 0.486998 0.961245 0.309518
C12   C     C_R   0.821895 0.512892 0.038826 0.309893
C13   C     C_R   0.330975 0.997922 0.048534 0.306904
C14   C     C_R   0.669339 0.001699 0.952461 0.291231
C15   C     C_R   0.669102 0.002168 0.548637 0.306206
C16   C     C_R   0.330522 0.998112 0.452440 0.290482
C17   C     C_R   0.848730 0.439741 0.517406 -0.295691
C18   C     C_R   0.151151 0.560419 0.482717 -0.297415
C19   C     C_R   0.156765 0.553769 0.022860 -0.219582
C20   C     C_R   0.843288 0.446112 0.977219 -0.221544
C21   C     C_R   0.348572 0.059830 0.981882 -0.226385
C22   C     C_R   0.650404 0.939111 0.017628 -0.221614
C23   C     C_R   0.651689 0.940379 0.481949 -0.223538
C24   C     C_R   0.349298 0.060614 0.517616 -0.219141
H1    H     H_    0.731433 0.391882 0.528720 0.144244
H2    H     H_    0.268407 0.608307 0.471417 0.143811
H3    H     H_    0.279116 0.595855 0.038938 0.161430
H4    H     H_    0.720940 0.404021 0.961142 0.161244
H5    H     H_    0.230585 0.105982 0.967542 0.139521
H6    H     H_    0.767373 0.891186 0.029334 0.143055
H7    H     H_    0.769886 0.894423 0.467661 0.140522
H8    H     H_    0.232094 0.108347 0.529262 0.144336
C25   C     C_R   0.012647 0.437908 0.568017 -0.111532
C26   C     C_R   0.987279 0.562213 0.432078 -0.110945
C27   C     C_R   0.982423 0.566613 0.064298 -0.192577
C28   C     C_R   0.017610 0.433295 0.935762 -0.192290
C29   C     C_R   0.515968 0.063606 0.933442 -0.164813
C30   C     C_R   0.484488 0.936150 0.066611 -0.168161
C31   C     C_R   0.484189 0.936429 0.433426 -0.168317
C32   C     C_R   0.515331 0.063756 0.566675 -0.171630
N1    N     N_2   0.671517 0.493490 0.397518 -0.496771
H9    H     H_    0.543645 0.492493 0.429607 0.246198
C33   C     C_3   0.682344 0.417624 0.339838 -0.569616
H10   H     H_    0.703112 0.350702 0.372562 0.188171
H11   H     H_    0.803446 0.428890 0.296393 0.197518
H12   H     H_    0.545426 0.413034 0.304915 0.187472
N2    N     N_2   0.328133 0.506819 0.602724 -0.496794
H13   H     H_    0.456118 0.507836 0.570717 0.246197
C34   C     C_3   0.316938 0.582756 0.660322 -0.571380
H14   H     H_    0.296119 0.649630 0.627522 0.186794
H15   H     H_    0.453719 0.587462 0.695330 0.187813
H16   H     H_    0.195717 0.571481 0.703705 0.197822
N3    N     N_2   0.366439 0.471585 0.930647 -0.497476
H17   H     H_    0.413472 0.404029 0.929121 0.260821
C35   C     C_3   0.431699 0.531514 0.865259 -0.526520
H18   H     H_    0.570977 0.563398 0.883018 0.197745
H19   H     H_    0.326684 0.587891 0.852191 0.177165
H20   H     H_    0.454079 0.489845 0.808926 0.215088
N4    N     N_2   0.633598 0.528316 0.069404 -0.497228
H21   H     H_    0.586566 0.595871 0.070926 0.260937
C36   C     C_3   0.568243 0.468368 0.134761 -0.528276
H22   H     H_    0.429155 0.436362 0.116899 0.197560
H23   H     H_    0.545453 0.510059 0.191051 0.215195
H24   H     H_    0.673398 0.412082 0.147945 0.176632
N5    N     N_2   0.157867 0.995092 0.095745 -0.496819
H25   H     H_    0.068593 0.940788 0.080544 0.268762
C37   C     C_3   0.057223 0.081013 0.111968 -0.577808
H26   H     H_    0.979959 0.105365 0.056289 0.188612
H27   H     H_    0.159686 0.134836 0.133616 0.197611
H28   H     H_    0.948040 0.069178 0.160548 0.197562
N6    N     N_2   0.844622 0.999030 0.907448 -0.525145
H29   H     H_    0.917993 0.060712 0.902545 0.268913
C38   C     C_3   0.839574 0.944109 0.833386 -0.506432
H30   H     H_    0.987157 0.939278 0.807618 0.189839
H31   H     H_    0.743116 0.976511 0.787045 0.205343
H32   H     H_    0.788429 0.872850 0.847225 0.184219
N7    N     N_2   0.842287 0.005037 0.595953 -0.497433
H33   H     H_    0.931259 0.059510 0.580830 0.268800
C39   C     C_3   0.943388 0.919168 0.612222 -0.576820
H34   H     H_    0.020626 0.895062 0.556576 0.189056
H35   H     H_    0.841228 0.865165 0.633825 0.198824
H36   H     H_    0.052662 0.930973 0.660856 0.197003
N8    N     N_2   0.155004 0.000631 0.407417 -0.525262
H37   H     H_    0.082010 0.938854 0.402527 0.268920
C40   C     C_3   0.159306 0.055760 0.333348 -0.506700
H38   H     H_    0.209981 0.127067 0.347183 0.185483
H39   H     H_    0.011572 0.060407 0.307556 0.189654
H40   H     H_    0.255796 0.023648 0.287030 0.205181

loop_
_geom_bond_atom_site_label_1
_geom_bond_atom_site_label_2
_ccdc_geom_bond_type
O17   V3    S    
O18   V4    S    
C9    C26   A    
O12   V1    S    
O19   V1    S    
N8    C40   S    
C34   H14   S    
O16   C8    A    
N6    H29   S    
C10   C18   A    
C24   H8    S    
C12   C27   A    
C2    C32   S    
C18   C26   A    
C38   H30   S    
C9    N1    S    
O15   V4    S    
C36   H22   S    
O16   V3    S    
C15   C32   A    
O11   C3    A    
N7    H33   S    
C16   C31   A    
C22   C30   A    
O8    V1    S    
C23   H7    S    
C20   C28   A    
C5    C27   S    
C40   H39   S    
C23   C31   A    
C3    C29   S    
C24   C32   A    
C12   N4    S    
O1    V3    S    
O3    C2    A    
O2    V4    S    
C16   C24   A    
O11   V2    S    
N1    C33   S    
C14   N6    S    
C10   C25   A    
N8    H37   S    
N5    C37   S    
C11   C19   A    
C19   C27   A    
C14   C29   A    
C20   H4    S    
O15   C7    A    
C21   H5    S    
N7    C39   S    
O7    V2    S    
C34   H15   S    
C22   H6    S    
C17   H1    S    
C38   H31   S    
C15   N7    S    
O5    V1    S    
N3    C35   S    
O17   V1    S    
C36   H23   S    
O19   V3    S    
C33   H10   S    
O20   V4    S    
C40   H40   S    
C37   H26   S    
N2    C34   S    
N3    H17   S    
C11   N3    S    
C11   C28   A    
C33   H11   S    
C37   H27   S    
O10   V2    S    
N4    H21   S    
O12   C4    A    
O8    C5    A    
O13   C5    A    
C39   H35   S    
C18   H2    S    
C16   N8    S    
O4    C1    A    
O9    C1    A    
O6    V2    S    
O18   V2    S    
C34   H16   S    
C12   C20   A    
C13   C21   A    
C38   H32   S    
C15   C23   A    
C36   H24   S    
C7    C25   S    
O1    C4    A    
N4    C36   S    
O2    C3    A    
O13   V3    S    
O14   V4    S    
C35   H20   S    
N6    C38   S    
O9    V1    S    
O7    C6    A    
C35   H19   S    
C13   N5    S    
C33   H12   S    
C9    C17   A    
O14   C6    A    
O20   V2    S    
C17   C25   A    
N2    H13   S    
C40   H38   S    
C1    C31   S    
C37   H28   S    
C6    C28   S    
C19   H3    S    
O5    C8    A    
O10   C2    A    
O6    C7    A    
C21   C29   A    
C39   H36   S    
C4    C30   S    
O3    V4    S    
C14   C22   A    
O4    V3    S    
C35   H18   S    
C8    C26   S    
N1    H9    S    
C39   H34   S    
C13   C30   A    
N5    H25   S    
C10   N2    S    
