data_mof_unit_57879.cif
_audit_creation_date              2012-10-26T20:20:37-0400
_audit_creation_method            fapswitch 2.2
_symmetry_space_group_name_H-M    P1
_symmetry_Int_Tables_number       1
_space_group_crystal_system       triclinic
_cell_length_a                    8.735492
_cell_length_b                    10.834529
_cell_length_c                    9.523961
_cell_angle_alpha                 90.010584
_cell_angle_beta                  97.935064
_cell_angle_gamma                 90.151326
_cell_volume                      892.760773073

loop_
_atom_site_label
_atom_site_type_symbol
_atom_type_description
_atom_site_fract_x
_atom_site_fract_y
_atom_site_fract_z
_atom_type_partial_charge
C1    C     C_R   0.499893 0.262084 0.499943 0.550922
C2    C     C_R   0.499210 0.063884 0.627479 -0.139529
C3    C     C_R   0.500122 0.871776 0.500042 0.020278
C4    C     C_R   0.499878 0.128224 0.499958 0.020278
C5    C     C_R   0.400345 0.426182 0.061729 0.010889
C6    C     C_R   0.599655 0.573818 0.938271 0.010889
C7    C     C_R   0.400373 0.426221 0.912942 0.009553
C8    C     C_R   0.599627 0.573779 0.087058 0.009553
C9    C     C_R   0.500107 0.737916 0.500057 0.550922
C10   C     C_R   0.203746 0.499968 0.463723 0.552022
C11   C     C_R   0.796254 0.500032 0.536277 0.552021
C12   C     C_2   0.037919 0.500047 0.443748 -0.154643
C13   C     C_2   0.962081 0.499953 0.556252 -0.154643
C14   C     C_R   0.500631 0.063815 0.372474 -0.139476
C15   C     C_R   0.499369 0.936185 0.627526 -0.139476
C16   C     C_R   0.500790 0.936116 0.372521 -0.139529
Cu1   Cu    Cu3+1 0.500000 0.500020 0.640660 0.937444
Cu2   Cu    Cu3+1 0.500000 0.499980 0.359340 0.937444
H1    H     H_    0.977990 0.500222 0.335809 0.125570
H2    H     H_    0.498552 0.111928 0.727153 0.128013
H3    H     H_    0.022010 0.499777 0.664191 0.125570
H4    H     H_    0.501135 0.111804 0.272765 0.128110
H5    H     H_    0.498865 0.888196 0.727235 0.128110
H6    H     H_    0.320665 0.366891 0.107640 0.108616
H7    H     H_    0.679335 0.633109 0.892360 0.108616
H8    H     H_    0.320677 0.366973 0.846774 0.107262
H9    H     H_    0.679323 0.633026 0.153226 0.107262
H10   H     H_    0.501448 0.888072 0.272847 0.128013
N1    N     N_R   0.500040 0.500030 0.852080 -0.225615
N2    N     N_R   0.499960 0.499970 0.147920 -0.225615
O1    O     O_R   0.499990 0.319660 0.618740 -0.508443
O2    O     O_R   0.500010 0.680340 0.381260 -0.508443
O3    O     O_R   0.499990 0.319630 0.381170 -0.508472
O4    O     O_R   0.500010 0.680370 0.618830 -0.508472
O5    O     O_R   0.274840 0.500010 0.591370 -0.501750
O6    O     O_R   0.725160 0.499990 0.408630 -0.501750
O7    O     O_R   0.274830 0.499980 0.353800 -0.500750
O8    O     O_R   0.725170 0.500020 0.646200 -0.500750

loop_
_geom_bond_atom_site_label_1
_geom_bond_atom_site_label_2
_ccdc_geom_bond_type
C16   H10   S    
C11   O8    A    
C2    C4    A    
C10   O5    A    
C3    C9    S    
Cu1   N1    S    
C1    C4    S    
C8    N2    A    
C14   H4    S    
C5    H6    S    
Cu1   Cu2   S    
C13   H3    S    
C2    C15   A    
C11   C13   S    
Cu2   O6    S    
C7    H8    S    
C10   C12   S    
C10   O7    A    
Cu2   N2    S    
C12   H1    S    
C15   H5    S    
C11   O6    A    
Cu2   O7    S    
Cu1   O8    S    
C4    C14   A    
C9    O4    A    
Cu1   O1    S    
Cu2   O3    S    
C14   C16   A    
C6    H7    S    
Cu2   O2    S    
Cu1   O4    S    
C1    O3    A    
C7    N1    A    
C1    O1    A    
C6    N1    A    
C3    C15   A    
C12   C13   D    
C5    N2    A    
C5    C7    A    
C8    H9    S    
C6    C8    A    
Cu1   O5    S    
C9    O2    A    
C2    H2    S    
C3    C16   A    
