data_mof_unit_12829.cif
_audit_creation_date              2013-03-05T16:03:27-0500
_audit_creation_method            fapswitch 2.2
_symmetry_space_group_name_H-M    P1
_symmetry_Int_Tables_number       1
_space_group_crystal_system       triclinic
_cell_length_a                    14.080185
_cell_length_b                    14.915757
_cell_length_c                    17.089509
_cell_angle_alpha                 90.008185
_cell_angle_beta                  81.94555
_cell_angle_gamma                 88.01923
_cell_volume                      3551.50743708

loop_
_atom_site_label
_atom_site_type_symbol
_atom_site_description
_atom_site_fract_x
_atom_site_fract_y
_atom_site_fract_z
_atom_type_partial_charge
O1    O     O_R   0.419720 0.632140 0.499990 -0.544922
O2    O     O_R   0.580280 0.367860 0.500010 -0.544950
O3    O     O_R   0.580270 0.632160 0.499980 -0.645394
O4    O     O_R   0.419730 0.367840 0.500020 -0.642489
C1    C     C_R   0.498570 0.672824 0.499521 0.880696
C2    C     C_R   0.501595 0.326873 0.499485 0.885137
O5    O     O_R   0.410240 0.500000 0.615800 -0.594218
O6    O     O_R   0.589760 0.500000 0.384200 -0.620809
O7    O     O_R   0.570790 0.500020 0.615800 -0.579401
O8    O     O_R   0.429210 0.499980 0.384200 -0.608082
C3    C     C_R   0.483802 0.501112 0.652766 0.870351
C4    C     C_R   0.516135 0.500849 0.347275 0.846892
Zn1   Zn    Zn3+2 0.392800 0.499980 0.500010 1.020109
Zn2   Zn    Zn3+2 0.607200 0.500020 0.499990 1.017640
C5    C     C_R   0.467706 0.500712 0.738871 -0.107473
C6    C     C_R   0.532469 0.499438 0.261269 -0.118391
C7    C     C_R   0.531390 0.544867 0.781507 -0.021300
C8    C     C_R   0.467940 0.546175 0.218464 -0.024097
C9    C     C_R   0.520982 0.536260 0.862844 -0.189855
C10   C     C_R   0.479543 0.537629 0.137035 -0.186617
C11   C     C_R   0.456902 0.475350 0.901223 0.104556
C12   C     C_R   0.545193 0.473791 0.098705 0.101060
C13   C     C_R   0.390608 0.435435 0.860084 -0.220094
C14   C     C_R   0.611985 0.430772 0.140076 -0.219691
C15   C     C_R   0.391802 0.451760 0.780016 -0.029977
C16   C     C_R   0.609888 0.447208 0.220276 -0.030054
C17   C     C_2   0.458756 0.454659 0.985123 -0.083299
C18   C     C_2   0.543996 0.452888 0.014758 -0.081623
H1    H     H_    0.337876 0.391282 0.890148 0.154263
H2    H     H_    0.665987 0.384311 0.110038 0.155078
H3    H     H_    0.433255 0.577518 0.103983 0.143629
H4    H     H_    0.566628 0.574054 0.895787 0.141790
C19   C     C_R   0.490493 0.186532 0.570511 -0.196688
C20   C     C_R   0.524193 0.811364 0.428469 -0.233002
C21   C     C_R   0.505012 0.231284 0.499138 -0.000886
C22   C     C_R   0.495365 0.767855 0.498564 -0.008039
C23   C     C_R   0.519831 0.185892 0.427516 -0.208600
C24   C     C_R   0.466827 0.813856 0.568339 -0.197072
C25   C     C_R   0.520521 0.092393 0.425904 0.073093
C26   C     C_R   0.472732 0.906724 0.570694 0.055934
C27   C     C_R   0.502209 0.046011 0.498792 0.038844
C28   C     C_R   0.499197 0.952707 0.498595 0.039894
C29   C     C_R   0.486631 0.093319 0.571867 0.063354
C30   C     C_R   0.522884 0.904686 0.426337 0.073553
C31   C     C_R   0.538977 0.044672 0.353450 -0.053920
C32   C     C_R   0.455971 0.953506 0.643470 -0.056421
C33   C     C_R   0.543404 0.950320 0.353858 -0.055260
C34   C     C_R   0.466094 0.046968 0.644241 -0.053911
H5    H     H_    0.480565 0.225624 0.624370 0.134293
H6    H     H_    0.546381 0.771162 0.376144 0.131401
H7    H     H_    0.530630 0.224488 0.373670 0.126837
H8    H     H_    0.443291 0.775653 0.620622 0.147314
C35   C     C_R   0.206558 0.421041 0.490740 -0.080677
C36   C     C_R   0.796607 0.578925 0.490722 -0.087836
N1    N     N_R   0.249970 0.499930 0.499970 -0.156151
N2    N     N_R   0.750030 0.500070 0.500030 -0.158409
C37   C     C_R   0.196304 0.579095 0.508545 0.417113
C38   C     C_R   0.800970 0.421138 0.508838 0.421217
C39   C     C_R   0.097802 0.581313 0.498559 -0.136597
C40   C     C_R   0.902743 0.419027 0.500112 -0.134735
C41   C     C_R   0.051912 0.499959 0.492467 0.021480
C42   C     C_R   0.950794 0.500224 0.492750 0.019145
C43   C     C_R   0.106234 0.418293 0.490230 -0.100185
C44   C     C_R   0.897345 0.581763 0.489340 -0.097216
C45   C     C_R   0.043595 0.662363 0.496722 -0.247127
C46   C     C_R   0.957308 0.337973 0.500338 -0.250590
C47   C     C_R   0.945800 0.663530 0.487555 0.287529
C48   C     C_R   0.058102 0.336535 0.491124 0.282022
H9    H     H_    0.249736 0.359866 0.488164 0.214122
H10   H     H_    0.754266 0.640029 0.488088 0.214129
H11   H     H_    0.077444 0.725958 0.498868 0.232092
H12   H     H_    0.922575 0.274388 0.504585 0.234020
C49   C     C_R   0.610088 0.599643 0.743154 0.127530
C50   C     C_R   0.589535 0.682203 0.709313 -0.157961
C51   C     C_R   0.663879 0.733391 0.671902 -0.119482
C52   C     C_R   0.759154 0.702328 0.668663 -0.104768
C53   C     C_R   0.780150 0.619738 0.702083 -0.164647
C54   C     C_R   0.705832 0.568505 0.739383 -0.091662
H13   H     H_    0.515976 0.706527 0.712882 0.132762
H14   H     H_    0.647774 0.797198 0.645724 0.149789
H15   H     H_    0.816692 0.742179 0.640301 0.180130
H16   H     H_    0.853911 0.595349 0.698873 0.138476
H17   H     H_    0.722533 0.504231 0.764323 0.160085
C55   C     C_R   0.387056 0.603784 0.256308 0.130642
C56   C     C_R   0.403351 0.689959 0.282626 -0.184845
C57   C     C_R   0.326273 0.745759 0.315646 -0.066449
C58   C     C_R   0.232567 0.715493 0.322385 -0.052156
C59   C     C_R   0.216003 0.629069 0.296999 -0.179687
C60   C     C_R   0.293014 0.573363 0.263795 -0.107462
H18   H     H_    0.475559 0.713754 0.276215 0.136998
H19   H     H_    0.339069 0.812416 0.335943 0.148557
H20   H     H_    0.172898 0.758699 0.347900 0.158050
H21   H     H_    0.143571 0.605307 0.303039 0.142251
H22   H     H_    0.279687 0.506552 0.244321 0.153527
N3    N     N_R   0.235892 0.656521 0.539216 0.213483
O9    O     O_R   0.256911 0.655320 0.610950 -0.423504
O10   O     O_R   0.248520 0.729064 0.497366 -0.428013
N4    N     N_R   0.751102 0.342645 0.535743 0.214725
O11   O     O_R   0.753123 0.272487 0.490206 -0.424439
O12   O     O_R   0.709507 0.338804 0.608545 -0.404065
N5    N     N_R   0.897592 0.748290 0.476676 0.185957
O13   O     O_R   0.845613 0.757918 0.419789 -0.429262
O14   O     O_R   0.920300 0.819633 0.512776 -0.391135
N6    N     N_R   0.109682 0.251399 0.484687 0.190124
O15   O     O_R   0.178819 0.236441 0.426721 -0.418973
O16   O     O_R   0.076871 0.184154 0.527548 -0.387233
C61   C     C_R   0.689012 0.407058 0.258292 0.140874
C62   C     C_R   0.766483 0.459168 0.271487 -0.095710
C63   C     C_R   0.845037 0.419521 0.301730 -0.182670
C64   C     C_R   0.846849 0.327746 0.318289 -0.080654
C65   C     C_R   0.769642 0.275773 0.305530 -0.056676
C66   C     C_R   0.691037 0.315367 0.275410 -0.189247
H23   H     H_    0.766285 0.530039 0.257646 0.127988
H24   H     H_    0.904689 0.459764 0.311926 0.139926
H25   H     H_    0.907909 0.296949 0.341213 0.151291
H26   H     H_    0.770933 0.204820 0.318692 0.149210
H27   H     H_    0.632105 0.275054 0.264365 0.145711
C67   C     C_R   0.313970 0.414388 0.741896 0.132670
C68   C     C_R   0.232946 0.468243 0.731579 -0.068481
C69   C     C_R   0.157348 0.431672 0.698628 -0.163874
C70   C     C_R   0.162209 0.341261 0.676319 -0.112896
C71   C     C_R   0.243086 0.287633 0.686011 -0.111533
C72   C     C_R   0.318448 0.324070 0.719314 -0.176102
H28   H     H_    0.228291 0.538111 0.749440 0.146559
H29   H     H_    0.094928 0.473249 0.690600 0.137597
H30   H     H_    0.103299 0.312810 0.651582 0.164002
H31   H     H_    0.246973 0.217772 0.668366 0.155883
H32   H     H_    0.380020 0.282446 0.728477 0.146784
C73   C     C_R   0.638007 0.433733 0.963776 0.124440
C74   C     C_R   0.717314 0.487228 0.968982 -0.179413
C75   C     C_R   0.805204 0.467939 0.922021 -0.149012
C76   C     C_R   0.814840 0.395177 0.869659 -0.126098
C77   C     C_R   0.736432 0.341850 0.863902 -0.132862
C78   C     C_R   0.648493 0.360933 0.910825 -0.146494
H33   H     H_    0.710870 0.544126 0.008983 0.131633
H34   H     H_    0.865826 0.509506 0.926137 0.132855
H35   H     H_    0.882858 0.380475 0.833204 0.135930
H36   H     H_    0.743823 0.285792 0.823039 0.148867
H37   H     H_    0.588265 0.319234 0.906363 0.126961
C79   C     C_R   0.365200 0.439912 0.036218 0.126814
C80   C     C_R   0.284588 0.497014 0.031286 -0.178122
C81   C     C_R   0.197352 0.482014 0.078700 -0.140931
C82   C     C_R   0.189656 0.409929 0.131163 -0.123437
C83   C     C_R   0.269355 0.352989 0.136573 -0.150937
C84   C     C_R   0.356660 0.367892 0.089291 -0.146733
H38   H     H_    0.289542 0.553451 0.991231 0.130883
H39   H     H_    0.135724 0.526368 0.074843 0.131035
H40   H     H_    0.122135 0.398531 0.167950 0.133541
H41   H     H_    0.263523 0.297449 0.177513 0.145394
H42   H     H_    0.418048 0.323717 0.093654 0.126588
C85   C     C_R   0.550300 0.091814 0.276421 0.114188
C86   C     C_R   0.468652 0.126317 0.246752 -0.168316
C87   C     C_R   0.476741 0.161554 0.170552 -0.142689
C88   C     C_R   0.566591 0.164827 0.124167 -0.115703
C89   C     C_R   0.648368 0.130858 0.153515 -0.137801
C90   C     C_R   0.640278 0.093643 0.229219 -0.147631
H43   H     H_    0.398458 0.123031 0.281673 0.156610
H44   H     H_    0.412836 0.184468 0.147157 0.124677
H45   H     H_    0.572657 0.192690 0.065247 0.120243
H46   H     H_    0.717829 0.132635 0.117385 0.136334
H47   H     H_    0.703611 0.065628 0.250824 0.136502
C91   C     C_R   0.433470 0.904564 0.719438 0.099314
C92   C     C_R   0.342691 0.868421 0.740474 -0.144919
C93   C     C_R   0.322357 0.821026 0.811099 -0.125926
C94   C     C_R   0.392036 0.810220 0.861448 -0.128037
C95   C     C_R   0.482081 0.847060 0.841383 -0.130770
C96   C     C_R   0.502909 0.894010 0.770585 -0.135695
H48   H     H_    0.288287 0.876303 0.701801 0.166695
H49   H     H_    0.252618 0.792561 0.826751 0.139690
H50   H     H_    0.376274 0.773298 0.915980 0.123122
H51   H     H_    0.536012 0.838584 0.880360 0.131272
H52   H     H_    0.573281 0.921389 0.755204 0.134063
C97   C     C_R   0.565384 0.899992 0.277797 0.111261
C98   C     C_R   0.497317 0.897739 0.225127 -0.138027
C99   C     C_R   0.518106 0.850276 0.153865 -0.134484
C100  C     C_R   0.606652 0.804492 0.134927 -0.121287
C101  C     C_R   0.674915 0.806840 0.186872 -0.139195
C102  C     C_R   0.654693 0.854806 0.257918 -0.164085
H53   H     H_    0.428083 0.932133 0.239582 0.131117
H54   H     H_    0.465267 0.848352 0.113650 0.130834
H55   H     H_    0.622346 0.767184 0.080036 0.122264
H56   H     H_    0.743502 0.771458 0.172088 0.138217
H57   H     H_    0.708086 0.856281 0.297735 0.175113
C103  C     C_R   0.457974 0.094470 0.721407 0.103184
C104  C     C_R   0.369232 0.103518 0.770306 -0.149664
C105  C     C_R   0.363820 0.142582 0.845314 -0.132457
C106  C     C_R   0.447001 0.171428 0.872267 -0.121805
C107  C     C_R   0.535628 0.161116 0.824220 -0.135612
C108  C     C_R   0.541109 0.123629 0.748801 -0.148257
H58   H     H_    0.304685 0.080054 0.750407 0.136734
H59   H     H_    0.295289 0.149991 0.882686 0.136923
H60   H     H_    0.442925 0.200957 0.930577 0.120040
H61   H     H_    0.600534 0.180679 0.845641 0.124424
H62   H     H_    0.610340 0.115119 0.712489 0.158116

loop_
_geom_bond_atom_site_label_1
_geom_bond_atom_site_label_2
_geom_bond_distance
_ccdc_geom_bond_type
C46   C48   1.405229 A    
C58   C59   1.397599 A    
C94   C95   1.397611 A    
C27   C28   1.393830 A    
Zn2   N2    2.011196 S    
N3    O9    1.300787 A    
C38   N4    1.428879 S    
C51   C52   1.397697 A    
C35   H9    1.076231 S    
C15   C67   1.475909 S    
N6    O16   1.301302 A    
C103  C104  1.404821 A    
C104  C105  1.399205 A    
C104  H58   1.082898 S    
C25   C27   1.420995 A    
C97   C98   1.404912 A    
C2    C21   1.424914 S    
C26   C32   1.412622 A    
N5    O13   1.301361 A    
C70   C71   1.397860 A    
O1    C1    1.282572 A    
C13   H1    1.084416 S    
C93   C94   1.398052 A    
C9    C11   1.400237 A    
C14   C16   1.388349 A    
C91   C92   1.404476 A    
C57   H19   1.082176 S    
C56   C57   1.398130 A    
C66   H27   1.078917 S    
C23   H7    1.080890 S    
C5    C15   1.418887 A    
C24   H8    1.078457 S    
C38   C40   1.419029 A    
C101  H56   1.082278 S    
C1    C22   1.416782 S    
C71   H31   1.082164 S    
C62   C63   1.398307 A    
C40   C42   1.404722 A    
C18   C73   1.497829 S    
C49   C50   1.398974 A    
C31   C33   1.406622 A    
C60   H22   1.081385 S    
C41   C43   1.413399 A    
C67   C68   1.403890 A    
C42   C44   1.413497 A    
C7    C9    1.383613 A    
C98   C99   1.398395 A    
C84   H42   1.079595 S    
C3    C5    1.457169 S    
C108  H62   1.083205 S    
C46   H12   1.079828 S    
C92   C93   1.398510 A    
C97   C102  1.404485 A    
C76   C77   1.397236 A    
C45   C47   1.407012 A    
C8    C55   1.476282 S    
C85   C86   1.402169 A    
C65   H26   1.082053 S    
C51   H14   1.082119 S    
C8    C10   1.383546 A    
C102  H57   1.083119 S    
C30   C33   1.412272 A    
C25   C31   1.415668 A    
C26   C28   1.420105 A    
C11   C17   1.470302 S    
C40   C46   1.410156 A    
C95   H51   1.082322 S    
N5    O14   1.301470 A    
C68   H28   1.083091 S    
C58   H20   1.082195 S    
C7    C49   1.477899 S    
C27   C29   1.420515 A    
C93   H49   1.082261 S    
O2    C2    1.284861 A    
C28   C30   1.420208 A    
C9    H4    1.083575 S    
C54   H17   1.081043 S    
N6    O15   1.301296 A    
C12   C18   1.470574 S    
C36   N2    1.364901 A    
C35   N1    1.363741 A    
C6    C16   1.418832 A    
C82   H40   1.082452 S    
C56   H18   1.079531 S    
C32   C34   1.406467 A    
C39   C41   1.404934 A    
C20   H6    1.079528 S    
C50   C51   1.398321 A    
C87   H44   1.079764 S    
C19   C29   1.393359 A    
C44   C47   1.416179 A    
C4    C6    1.455546 S    
C20   C30   1.392014 A    
C52   C53   1.397665 A    
O4    C2    1.284713 A    
C75   H34   1.082285 S    
C78   H37   1.080001 S    
C34   C103  1.485265 S    
C57   C58   1.398754 A    
C76   H35   1.082435 S    
C53   C54   1.397780 A    
C49   C54   1.403420 A    
C91   C96   1.404853 A    
C64   C65   1.398175 A    
C107  C108  1.395968 A    
C31   C85   1.483888 S    
C62   H23   1.083248 S    
C16   C61   1.476046 S    
C100  H55   1.082447 S    
O5    C3    1.287139 A    
O7    Zn2   1.973695 S    
C83   H41   1.082270 S    
C74   C75   1.398310 A    
C99   C100  1.397669 A    
C36   H10   1.076144 S    
O6    C4    1.286622 A    
C29   C34   1.416046 A    
C88   C89   1.398434 A    
C61   C66   1.398787 A    
C85   C90   1.404457 A    
C55   C56   1.398650 A    
C77   H36   1.082182 S    
O7    C3    1.296644 A    
C106  H60   1.082766 S    
C33   C97   1.489911 S    
O3    Zn2   1.994204 S    
O8    C4    1.296543 A    
C63   H24   1.082558 S    
C105  C106  1.398210 A    
C80   H38   1.083008 S    
C100  C101  1.398045 A    
C74   H33   1.083021 S    
C10   C12   1.399818 A    
C107  H61   1.080062 S    
N4    O11   1.301151 A    
N4    O12   1.300896 A    
C50   H13   1.079071 S    
N1    C37   1.376228 A    
C37   N3    1.430152 S    
C77   C78   1.398036 A    
C12   C14   1.393128 A    
O1    Zn1   2.020194 S    
C55   C60   1.403446 A    
C61   C62   1.404395 A    
C75   C76   1.397325 A    
C17   C18   1.365946 D    
C88   H45   1.082759 S    
C69   C70   1.398135 A    
C47   N5    1.438672 S    
C73   C74   1.407459 A    
C105  H59   1.082165 S    
C94   H50   1.082450 S    
C5    C7    1.411542 A    
C59   H21   1.082539 S    
O6    Zn2   2.027832 S    
C65   C66   1.397583 A    
C21   C23   1.385090 A    
C89   H46   1.082151 S    
C69   H29   1.082577 S    
C81   H39   1.082278 S    
C48   N6    1.437333 S    
C83   C84   1.397849 A    
O3    C1    1.282788 A    
O8    Zn1   1.973695 S    
C52   H15   1.080695 S    
C90   H47   1.082903 S    
C68   C69   1.398474 A    
N3    O10   1.300678 A    
C96   H52   1.082900 S    
C43   C48   1.414529 A    
C79   C84   1.403465 A    
C17   C79   1.497949 S    
C11   C13   1.393640 A    
C92   H48   1.083081 S    
C71   C72   1.397944 A    
C70   H30   1.081351 S    
C23   C25   1.394551 A    
C45   H11   1.079077 S    
C80   C81   1.398395 A    
C39   C45   1.409952 A    
C24   C26   1.391470 A    
C35   C43   1.415836 A    
C72   H32   1.078159 S    
C95   C96   1.398323 A    
C36   C44   1.417391 A    
C53   H16   1.082532 S    
C79   C80   1.407423 A    
C64   H25   1.082013 S    
C22   C24   1.378608 A    
C19   C21   1.383799 A    
N2    C38   1.376635 A    
C86   H43   1.083250 S    
C20   C22   1.379499 A    
C67   C72   1.398179 A    
C13   C15   1.387722 A    
C41   C42   1.422953 A    
O2    Zn2   2.020194 S    
C14   H2    1.084439 S    
C37   C39   1.420189 A    
C99   H54   1.082319 S    
C73   C78   1.403898 A    
O5    Zn1   2.027832 S    
C59   C60   1.397607 A    
C6    C8    1.410402 A    
C101  C102  1.398526 A    
C32   C91   1.489880 S    
C89   C90   1.399352 A    
C81   C82   1.397398 A    
C106  C107  1.398082 A    
C86   C87   1.395630 A    
C87   C88   1.398027 A    
C63   C64   1.397978 A    
C19   H5    1.079292 S    
C98   H53   1.082781 S    
C103  C108  1.402573 A    
C82   C83   1.397272 A    
O4    Zn1   1.994202 S    
Zn1   N1    2.011196 S    
C10   H3    1.083639 S    
