data_mof_unit_15093.cif
_audit_creation_date              2012-10-26T18:43:30-0400
_audit_creation_method            fapswitch 2.2
_symmetry_space_group_name_H-M    P1
_symmetry_Int_Tables_number       1
_space_group_crystal_system       triclinic
_cell_length_a                    10.792661
_cell_length_b                    10.872388
_cell_length_c                    9.565294
_cell_angle_alpha                 89.494937
_cell_angle_beta                  89.396602
_cell_angle_gamma                 91.137786
_cell_volume                      1122.0814656

loop_
_atom_site_label
_atom_site_type_symbol
_atom_type_description
_atom_site_fract_x
_atom_site_fract_y
_atom_site_fract_z
_atom_type_partial_charge
C1    C     C_R   0.499579 0.262615 0.500501 0.558334
C2    C     C_R   0.511638 0.935189 0.620567 -0.027148
C3    C     C_3   0.436593 0.932685 0.753529 -0.274532
C4    C     C_R   0.259825 0.491866 0.499995 0.614636
C5    C     C_3   0.450633 0.071024 0.757000 -0.272535
C6    C     C_R   0.518636 0.607221 0.070942 0.194043
C7    C     C_R   0.462537 0.398879 0.075817 -0.013836
C8    C     C_R   0.460918 0.399510 0.927196 -0.008816
C9    C     C_R   0.526501 0.604500 0.924540 0.097696
C10   C     C_3   0.643046 0.679790 0.918632 -0.243680
C11   C     C_3   0.622951 0.700292 0.074036 0.143898
C12   C     C_3   0.877539 0.489884 0.498390 -0.060928
C13   C     C_R   0.493258 0.737536 0.499245 0.553362
C14   C     C_R   0.739830 0.495891 0.499487 0.543198
C15   C     C_3   0.068419 0.389880 0.613747 0.515606
C16   C     C_3   0.922142 0.384448 0.595208 -0.200697
C17   C     C_3   0.074336 0.614085 0.541679 -0.313976
C18   C     C_3   0.069420 0.447931 0.346752 0.485929
C19   C     C_3   0.120791 0.485171 0.498675 0.137373
C20   C     C_3   0.031659 0.429291 0.860324 -0.166730
C21   C     C_3   0.389775 0.946381 0.140287 -0.178258
C22   C     C_3   0.092033 0.182049 0.686198 0.015696
C23   C     C_3   0.932079 0.614302 0.548399 -0.285562
C24   C     C_3   0.116646 0.056275 0.624175 -0.384199
C25   C     C_3   0.786471 0.773818 0.199339 -0.139619
C26   C     C_3   0.085772 0.620757 0.180036 -0.048048
C27   C     C_3   0.186490 0.687628 0.095822 -0.369013
C28   C     C_3   0.086472 0.278637 0.191730 -0.081477
C29   C     C_3   0.925569 0.463434 0.348825 -0.204900
C30   C     C_R   0.519281 0.062249 0.621626 0.001948
C31   C     C_R   0.500450 0.129536 0.499637 -0.028446
C32   C     C_R   0.478714 0.067612 0.374382 -0.152755
C33   C     C_R   0.465908 0.938208 0.371457 0.243282
C34   C     C_R   0.487262 0.871614 0.497055 0.012701
Cu1   Cu    Cu3+1 0.499990 0.499980 0.640670 0.954154
Cu2   Cu    Cu3+1 0.500010 0.500020 0.359330 1.028999
H1    H     H_    0.892560 0.535823 0.278564 0.152854
H2    H     H_    0.429862 0.317919 0.873428 0.117517
H3    H     H_    0.725047 0.622904 0.894494 0.152041
H4    H     H_    0.637698 0.764334 0.854219 0.091556
H5    H     H_    0.586034 0.793333 0.094238 0.134375
H6    H     H_    0.895400 0.295756 0.545439 0.115667
H7    H     H_    0.868092 0.383042 0.693850 0.103983
H8    H     H_    0.110496 0.639967 0.646128 0.160621
H9    H     H_    0.901053 0.631553 0.657642 0.137616
H10   H     H_    0.878844 0.377817 0.311631 0.125040
H11   H     H_    0.964038 0.504430 0.851170 0.114227
H12   H     H_    0.111531 0.687504 0.471349 0.104369
H13   H     H_    0.086399 0.447407 0.955014 0.163280
H14   H     H_    0.985531 0.338278 0.876579 0.079618
H15   H     H_    0.310953 0.004901 0.171639 0.123214
H16   H     H_    0.356542 0.885523 0.055922 0.118220
H17   H     H_    0.468419 0.001401 0.094749 0.099851
H18   H     H_    0.993293 0.181756 0.720141 0.097471
H19   H     H_    0.152311 0.195570 0.778512 0.144584
H20   H     H_    0.212073 0.053552 0.580003 0.170857
H21   H     H_    0.105511 0.983939 0.706290 0.075098
H22   H     H_    0.049952 0.036982 0.539087 0.153192
H23   H     H_    0.897532 0.691360 0.484088 0.115336
H24   H     H_    0.725838 0.830527 0.266909 0.134726
H25   H     H_    0.822146 0.828500 0.107994 0.095319
H26   H     H_    0.866114 0.749460 0.263241 0.101199
H27   H     H_    0.054442 0.683335 0.262046 0.116410
H28   H     H_    0.009085 0.598765 0.107365 0.132514
H29   H     H_    0.216913 0.630545 0.006564 0.159402
H30   H     H_    0.151049 0.775997 0.054971 0.078766
H31   H     H_    0.267078 0.705799 0.164054 0.214413
H32   H     H_    0.172848 0.304656 0.133564 0.150971
H33   H     H_    0.004003 0.313230 0.136602 0.085195
H34   H     H_    0.466076 0.122042 0.280998 0.120354
H35   H     H_    0.079252 0.176729 0.193125 0.103579
H36   H     H_    0.339423 0.900157 0.737760 0.127501
H37   H     H_    0.483348 0.888143 0.842110 0.121602
H38   H     H_    0.361728 0.119742 0.748124 0.140924
H39   H     H_    0.511667 0.104008 0.842334 0.117382
H40   H     H_    0.433708 0.316231 0.131620 0.106122
N1    N     N_R   0.500800 0.500930 0.147930 -0.209718
N2    N     N_R   0.500800 0.500890 0.852020 -0.232751
O1    O     O_R   0.500000 0.319640 0.618810 -0.508379
O2    O     O_3   0.429374 0.872676 0.253067 -0.577916
O3    O     O_3   0.120053 0.273189 0.583774 -0.505322
O4    O     O_3   0.724179 0.665448 0.156062 -0.544965
O5    O     O_3   0.135582 0.512185 0.235553 -0.545491
O6    O     O_3   0.092902 0.319860 0.331311 -0.518912
O7    O     O_R   0.500010 0.319680 0.381230 -0.530369
O8    O     O_R   0.317690 0.499960 0.618790 -0.468236
O9    O     O_R   0.317700 0.500000 0.381210 -0.452672
O10   O     O_R   0.499990 0.680320 0.618770 -0.521300
O11   O     O_R   0.500000 0.680360 0.381190 -0.444041
O12   O     O_R   0.682300 0.500000 0.618790 -0.516954
O13   O     O_R   0.682310 0.500040 0.381210 -0.462828
O14   O     O_3   0.114853 0.431067 0.746069 -0.562811

loop_
_geom_bond_atom_site_label_1
_geom_bond_atom_site_label_2
_ccdc_geom_bond_type
Cu2   O11   S    
C26   O5    S    
C23   H9    S    
C12   C29   S    
C28   O6    S    
C28   H33   S    
C17   H12   S    
C6    C9    A    
C7    C8    A    
C22   H18   S    
C4    O9    A    
C23   H23   S    
C20   O14   S    
C12   C23   S    
C26   C27   S    
C17   C23   S    
C28   H32   S    
Cu2   N1    S    
C30   C31   A    
Cu1   O8    S    
C4    O8    A    
C15   C16   S    
C1    C31   S    
C21   O2    S    
C10   H4    S    
C18   C19   S    
C5    H38   S    
C26   H28   S    
C14   O12   A    
C20   H14   S    
C15   O14   S    
C4    C19   S    
C12   C16   S    
C24   H21   S    
C18   O6    S    
C11   H5    S    
C25   H24   S    
C9    C10   S    
C7    N1    A    
C2    C34   A    
Cu2   O9    S    
C8    N2    A    
C8    H2    S    
C18   O5    S    
C11   O4    S    
C1    O7    A    
C22   O3    S    
C15   O3    S    
C6    C11   S    
C6    N1    A    
C32   H34   S    
C10   H3    S    
Cu1   Cu2   S    
C5    H39   S    
C15   C19   S    
C26   H27   S    
C20   H13   S    
C27   H29   S    
Cu1   O10   S    
C31   C32   A    
C33   C34   A    
C18   C29   S    
C25   H25   S    
C16   H7    S    
C22   H19   S    
Cu2   O13   S    
C12   C14   S    
C25   O4    S    
C1    O1    A    
C22   C24   S    
C28   H35   S    
C16   H6    S    
C21   H15   S    
C5    C30   S    
C13   O11   A    
C3    C5    S    
C33   O2    S    
C7    H40   S    
Cu2   O7    S    
C24   H20   S    
C25   H26   S    
Cu1   N2    S    
C29   H10   S    
C2    C30   A    
C32   C33   A    
C3    H36   S    
C17   H8    S    
C13   C34   S    
C27   H30   S    
C21   H17   S    
C13   O10   A    
Cu1   O1    S    
C17   C19   S    
C2    C3    S    
C9    N2    A    
C3    H37   S    
C14   O13   A    
C20   H11   S    
C27   H31   S    
C10   C11   S    
Cu1   O12   S    
C24   H22   S    
C29   H1    S    
C21   H16   S    
