data_mof_unit_24359.cif
_audit_creation_date              2012-12-10T17:19:55-0500
_audit_creation_method            fapswitch 2.2
_symmetry_space_group_name_H-M    P1
_symmetry_Int_Tables_number       1
_space_group_crystal_system       triclinic
_cell_length_a                    9.574718
_cell_length_b                    10.87335
_cell_length_c                    15.469025
_cell_angle_alpha                 87.427754
_cell_angle_beta                  74.146164
_cell_angle_gamma                 89.346556
_cell_volume                      1547.64774423

loop_
_atom_site_label
_atom_site_type_symbol
_atom_type_description
_atom_site_fract_x
_atom_site_fract_y
_atom_site_fract_z
_atom_type_partial_charge
C1    C     C_R   0.003345 0.261862 0.496600 0.846203
C2    C     C_R   0.667154 0.537101 0.903095 -0.054185
C3    C     C_R   0.761630 0.592294 0.946478 0.100452
C4    C     C_R   0.516745 0.526021 0.948422 0.092754
C5    C     C_R   0.468214 0.547045 0.041863 0.079506
C6    C     C_R   0.567235 0.597871 0.083812 -0.238351
C7    C     C_R   0.710058 0.623163 0.036045 -0.152173
C8    C     C_R   0.412339 0.502110 0.902175 -0.141464
C9    C     C_R   0.267450 0.483683 0.947702 -0.234313
C10   C     C_R   0.220508 0.488582 0.041267 0.078043
C11   C     C_R   0.321052 0.520272 0.089300 0.029058
C12   C     C_R   0.917935 0.501917 0.672047 0.861495
C13   C     C_R   0.074496 0.461573 0.087191 0.435615
C14   C     C_R   0.027710 0.470481 0.180995 -0.314324
C15   C     C_R   0.272116 0.520598 0.183475 -0.268787
C16   C     C_R   0.266703 0.108397 0.507940 -0.255565
C17   C     C_R   0.365457 0.044188 0.544513 -0.249100
C18   C     C_R   0.330845 0.927758 0.584373 0.664897
C19   C     C_R   0.203125 0.871411 0.580599 -0.218530
C20   C     C_R   0.107654 0.931694 0.536733 0.010685
C21   C     C_R   0.128341 0.057895 0.512297 0.042334
C22   C     C_R   0.009801 0.126391 0.494075 -0.196122
C23   C     C_R   0.996450 0.736469 0.507253 0.795113
C24   C     C_R   0.888325 0.063162 0.482293 0.435445
C25   C     C_R   0.883471 0.935533 0.491179 -0.278357
C26   C     C_R   0.993361 0.869455 0.515579 -0.135796
C27   C     C_R   0.695617 0.664203 0.381375 -0.145785
C28   C     C_R   0.648044 0.746751 0.324553 -0.230907
C29   C     C_R   0.503997 0.748205 0.324999 -0.226901
C30   C     C_R   0.406863 0.666652 0.381864 -0.142749
C31   C     C_R   0.450079 0.581671 0.441928 0.228979
C32   C     C_R   0.599881 0.581097 0.441783 0.215243
C33   C     C_R   0.550570 0.422508 0.555216 -0.008249
C34   C     C_R   0.081930 0.499372 0.327828 0.794837
C35   C     C_R   0.402546 0.422549 0.555195 -0.099983
C36   C     C_R   0.871184 0.520871 0.769002 -0.147085
C37   C     C_R   0.126902 0.497496 0.229213 -0.098153
C38   C     C_R   0.907528 0.614471 0.900057 -0.125098
C39   C     C_R   0.961216 0.581293 0.811174 -0.309038
C40   C     C_R   0.727866 0.492138 0.816770 0.522150
Cu1   Cu    Cu3+1 0.140660 0.499990 0.500010 0.923797
Cu2   Cu    Cu3+1 0.859340 0.500010 0.499990 0.978710
H1    H     H_    0.781482 0.664810 0.070114 0.149800
H2    H     H_    0.306065 0.193893 0.472595 0.196613
H3    H     H_    0.468349 0.085732 0.542855 0.192406
H4    H     H_    0.179174 0.781258 0.613490 0.175541
H5    H     H_    0.792006 0.887896 0.479553 0.186141
H6    H     H_    0.586782 0.358859 0.600349 0.190604
H7    H     H_    0.808523 0.669650 0.374879 0.195187
H8    H     H_    0.723898 0.809734 0.279561 0.143033
H9    H     H_    0.346310 0.535784 0.223136 0.163638
H10   H     H_    0.467188 0.812248 0.280229 0.150917
H11   H     H_    0.299902 0.674558 0.374993 0.197331
H12   H     H_    0.327944 0.359070 0.600363 0.153488
H13   H     H_    0.914651 0.454286 0.216158 0.155959
H14   H     H_    0.192398 0.464290 0.908807 0.193782
H15   H     H_    0.979583 0.659032 0.932212 0.162190
H16   H     H_    0.072164 0.604531 0.775084 0.184616
H17   H     H_    0.535956 0.624993 0.152562 0.150073
H18   H     H_    0.438704 0.503228 0.829759 0.217313
N1    N     N_R   0.648320 0.501210 0.499140 -0.208955
N2    N     N_R   0.352470 0.501290 0.499110 -0.203522
O1    O     O_R   0.118810 0.319640 0.500010 -0.604163
O2    O     O_R   0.881240 0.319660 0.500000 -0.523173
O3    O     O_R   0.055570 0.499980 0.629840 -0.596014
O4    O     O_R   0.818000 0.500010 0.629830 -0.519958
O5    O     O_R   0.118760 0.680340 0.500000 -0.610108
O6    O     O_R   0.881190 0.680360 0.499990 -0.594722
O7    O     O_R   0.182000 0.499990 0.370170 -0.605475
O8    O     O_R   0.944430 0.500020 0.370160 -0.614296
O9    O     O_3   0.977990 0.434679 0.038055 -0.629784
C41   C     C_3   0.900939 0.324373 0.070649 0.032476
H19   H     H_    0.797479 0.346826 0.120922 0.166561
H20   H     H_    0.963995 0.257515 0.102090 0.133975
C42   C     C_3   0.866939 0.263220 0.991600 -0.292695
H21   H     H_    0.807375 0.328750 0.957655 0.239864
H22   H     H_    0.970354 0.238660 0.942120 0.221182
C43   C     C_3   0.774980 0.147473 0.021796 -0.914810
H23   H     H_    0.830944 0.080351 0.057133 0.246343
H24   H     H_    0.757238 0.103900 0.962100 0.272916
H25   H     H_    0.667536 0.171394 0.067086 0.263533
O10   O     O_3   0.769870 0.127640 0.468367 -0.590572
C44   C     C_3   0.743291 0.097715 0.386332 0.028091
H26   H     H_    0.671754 0.015283 0.397820 0.166492
H27   H     H_    0.845421 0.079161 0.332960 0.116878
C45   C     C_3   0.666062 0.206304 0.353146 -0.295668
H28   H     H_    0.571941 0.235134 0.408166 0.220041
H29   H     H_    0.742289 0.285474 0.333125 0.217135
C46   C     C_3   0.612292 0.172654 0.273186 -0.974797
H30   H     H_    0.704301 0.139899 0.218562 0.256569
H31   H     H_    0.563327 0.254824 0.247691 0.260872
H32   H     H_    0.528765 0.099005 0.293641 0.268022
F1    F     F_    0.423771 0.867254 0.623626 -0.665421
F2    F     F_    0.653827 0.411711 0.780928 -0.689749

loop_
_geom_bond_atom_site_label_1
_geom_bond_atom_site_label_2
_ccdc_geom_bond_type
C16   C21   A    
C34   C37   S    
Cu1   Cu2   S    
C19   C20   A    
C4    C8    A    
C19   H4    S    
Cu1   O5    S    
C5    C6    A    
C28   C29   A    
C17   H3    S    
C32   N1    A    
C5    C11   A    
C3    C7    A    
C38   C39   A    
C43   H24   S    
Cu2   O8    S    
C18   C19   A    
C23   C26   S    
C23   O5    A    
C24   O10   S    
C15   C37   A    
C28   H8    S    
C44   H26   S    
C3    C38   A    
C8    C9    A    
C15   H9    S    
C12   C36   S    
C9    C10   A    
C25   H5    S    
C14   H13   S    
C1    C22   S    
C21   C22   A    
C35   H12   S    
Cu2   O6    S    
C31   N2    A    
C11   C15   A    
Cu1   N2    S    
C41   C42   S    
C1    O1    A    
C30   H11   S    
C36   C40   A    
C24   C25   A    
C41   H20   S    
C43   H23   S    
C16   C17   A    
Cu1   O3    S    
C13   O9    S    
C25   C26   A    
C39   H16   S    
C12   O4    A    
C10   C13   A    
C23   O6    A    
C2    C4    A    
C42   H21   S    
C29   C30   A    
C38   H15   S    
C31   C32   A    
Cu2   N1    S    
C17   C18   A    
C9    H14   S    
C46   H32   S    
C42   H22   S    
C34   O7    A    
C44   H27   S    
C7    H1    S    
C22   C24   A    
C46   H31   S    
Cu1   O1    S    
C1    O2    A    
Cu2   O2    S    
Cu1   O7    S    
C18   F1    S    
C16   H2    S    
C27   C32   A    
C45   H28   S    
C6    H17   S    
C36   C39   A    
C40   F2    S    
C41   H19   S    
C45   C46   S    
C6    C7    A    
C12   O3    A    
C2    C3    A    
O9    C41   S    
C8    H18   S    
C14   C37   A    
C43   H25   S    
C30   C31   A    
C20   C26   A    
C33   C35   A    
C35   N2    A    
C45   H29   S    
C42   C43   S    
C10   C11   A    
C2    C40   A    
C4    C5    A    
C44   C45   S    
C20   C21   A    
C33   N1    A    
O10   C44   S    
C27   C28   A    
Cu2   O4    S    
C33   H6    S    
C46   H30   S    
C13   C14   A    
C34   O8    A    
C27   H7    S    
C29   H10   S    
