data_mof_unit_32019.cif
_audit_creation_date              2012-10-26T17:12:48-0400
_audit_creation_method            fapswitch 2.2
_symmetry_space_group_name_H-M    P1
_symmetry_Int_Tables_number       1
_space_group_crystal_system       triclinic
_cell_length_a                    27.880559
_cell_length_b                    18.724947
_cell_length_c                    16.664388
_cell_angle_alpha                 89.806004
_cell_angle_beta                  63.240632
_cell_angle_gamma                 89.600823
_cell_volume                      7767.94793299

loop_
_atom_site_label
_atom_site_type_symbol
_atom_type_description
_atom_site_fract_x
_atom_site_fract_y
_atom_site_fract_z
_atom_type_partial_charge
C1    C     C_R   0.296594 0.732170 0.328128 0.871460
C2    C     C_R   0.703176 0.267211 0.672001 0.808036
C3    C     C_R   0.703070 0.732699 0.672068 0.862007
C4    C     C_R   0.295418 0.269962 0.328101 0.795884
C5    C     C_R   0.796897 0.232596 0.327827 0.865903
C6    C     C_R   0.203508 0.767876 0.672019 0.808255
C7    C     C_R   0.203431 0.231912 0.671998 0.849859
C8    C     C_R   0.796311 0.768278 0.328064 0.792698
C9    C     C_R   0.400754 0.000785 0.491350 -0.077887
C10   C     C_R   0.594868 0.999271 0.521884 -0.086109
C11   C     C_R   0.902736 0.501063 0.485239 -0.080133
C12   C     C_R   0.097504 0.498882 0.513971 -0.089802
C13   C     C_R   0.574575 0.880486 0.588164 0.703959
C14   C     C_R   0.421961 0.119539 0.425020 0.701010
C15   C     C_R   0.377926 0.885212 0.565473 0.674799
C16   C     C_R   0.614399 0.117152 0.453612 0.690783
C17   C     C_R   0.074990 0.382474 0.586655 0.712685
C18   C     C_R   0.925217 0.617517 0.412654 0.695817
C19   C     C_R   0.878711 0.387331 0.563761 0.677409
C20   C     C_R   0.121514 0.612674 0.435596 0.681806
C21   C     C_R   0.219407 0.763050 0.955727 0.041785
C22   C     C_R   0.781739 0.237282 0.043952 0.030209
C23   C     C_R   0.764141 0.792159 0.061824 0.034613
C24   C     C_R   0.196687 0.271850 0.973202 0.057186
C25   C     C_R   0.714366 0.253733 0.959450 0.016552
C26   C     C_R   0.286195 0.747281 0.041025 0.037165
C27   C     C_R   0.258163 0.303634 0.064889 0.052748
C28   C     C_R   0.702583 0.763141 0.969637 0.042198
C29   C     C_R   0.267729 0.723481 0.912451 0.065570
C30   C     C_R   0.730756 0.270107 0.091546 0.115729
C31   C     C_R   0.718664 0.747400 0.102867 -0.036097
C32   C     C_R   0.236025 0.325846 0.938027 0.010408
C33   C     C_R   0.762090 0.212888 0.916681 0.067406
C34   C     C_R   0.238164 0.787337 0.084239 0.034952
C35   C     C_R   0.212131 0.260001 0.107171 -0.041526
C36   C     C_R   0.747149 0.809769 0.930465 0.092792
C37   C     C_R   0.303416 0.721868 0.952476 -0.031071
C38   C     C_R   0.698098 0.281350 0.047152 -0.027865
C39   C     C_R   0.685909 0.736252 0.058266 -0.035191
C40   C     C_R   0.267900 0.340968 0.984366 -0.046196
C41   C     C_R   0.798593 0.212089 0.955386 -0.033282
C42   C     C_R   0.202642 0.789801 0.043838 -0.073635
C43   C     C_R   0.180719 0.245145 0.061414 -0.032633
C44   C     C_R   0.773431 0.830420 0.983028 -0.022696
C45   C     C_R   0.138340 0.814268 0.954422 -0.152915
C46   C     C_R   0.863711 0.187856 0.043970 -0.137644
C47   C     C_R   0.836654 0.858606 0.073924 -0.137843
C48   C     C_R   0.128956 0.196315 0.958824 -0.138558
C49   C     C_R   0.636136 0.311220 0.954546 -0.155784
C50   C     C_R   0.365168 0.691062 0.044230 -0.137561
C51   C     C_R   0.335036 0.363213 0.072660 -0.133979
C52   C     C_R   0.630558 0.695040 0.958018 -0.139382
C53   C     C_R   0.113125 0.841617 0.902431 -0.202170
C54   C     C_R   0.888756 0.160407 0.096265 -0.194817
C55   C     C_R   0.874044 0.863538 0.110671 -0.228396
C56   C     C_R   0.111597 0.158739 0.902196 -0.209431
C57   C     C_R   0.611991 0.340180 0.902169 -0.206973
C58   C     C_R   0.388095 0.659714 0.097481 -0.194993
C59   C     C_R   0.372280 0.366729 0.110501 -0.232745
C60   C     C_R   0.610475 0.660865 0.902844 -0.213249
C61   C     C_R   0.133314 0.821082 0.812160 0.549227
C62   C     C_R   0.869024 0.181742 0.186536 0.538941
C63   C     C_R   0.864097 0.825255 0.189083 0.590846
C64   C     C_R   0.137512 0.171446 0.809469 0.562755
C65   C     C_R   0.632444 0.320026 0.811784 0.551273
C66   C     C_R   0.366501 0.677782 0.188791 0.537826
C67   C     C_R   0.361545 0.328627 0.189236 0.581937
C68   C     C_R   0.633298 0.677791 0.811117 0.564589
C69   C     C_R   0.178306 0.776018 0.771615 -0.235685
C70   C     C_R   0.823382 0.225689 0.227717 -0.190890
C71   C     C_R   0.819212 0.781205 0.229447 -0.233321
C72   C     C_R   0.176121 0.225236 0.772229 -0.178336
C73   C     C_R   0.676874 0.273803 0.771764 -0.237128
C74   C     C_R   0.322826 0.725101 0.228589 -0.174258
C75   C     C_R   0.316023 0.286049 0.230181 -0.234317
C76   C     C_R   0.675262 0.727288 0.772492 -0.183505
C77   C     C_R   0.202697 0.747832 0.824532 -0.052857
C78   C     C_R   0.798982 0.252679 0.174862 0.042336
C79   C     C_R   0.790924 0.762286 0.179642 -0.125738
C80   C     C_R   0.190068 0.266885 0.830760 -0.014948
C81   C     C_R   0.699502 0.242659 0.825783 -0.054535
C82   C     C_R   0.300881 0.757291 0.174485 0.014607
C83   C     C_R   0.285708 0.270706 0.182147 -0.129547
C84   C     C_R   0.693424 0.763734 0.829160 0.021794
C85   C     C_R   0.200623 0.630706 0.513926 0.854209
C86   C     C_R   0.799415 0.369303 0.485944 0.903365
C87   C     C_R   0.803846 0.631972 0.470226 0.839109
C88   C     C_R   0.196250 0.368078 0.529373 0.874137
C89   C     C_R   0.700093 0.130707 0.515635 0.848655
C90   C     C_R   0.299238 0.869161 0.486388 0.899999
C91   C     C_R   0.303571 0.131795 0.471190 0.839246
C92   C     C_R   0.696137 0.867969 0.529766 0.888053
C93   C     C_R   0.187113 0.775686 0.911065 -0.009682
C94   C     C_R   0.814831 0.225610 0.087730 -0.030483
C95   C     C_R   0.797630 0.804046 0.104691 0.004797
C96   C     C_R   0.172467 0.244254 0.920414 -0.028665
C97   C     C_R   0.683533 0.269550 0.912904 0.000077
C98   C     C_R   0.317259 0.731544 0.086898 -0.040064
C99   C     C_R   0.293164 0.312554 0.106399 0.000044
C100  C     C_R   0.675886 0.740097 0.918504 -0.030301
C101  C     C_R   0.116146 0.820049 0.048940 0.664857
C102  C     C_R   0.885458 0.181705 0.949411 0.699767
C103  C     C_R   0.834238 0.907916 0.011383 0.642824
C104  C     C_R   0.104964 0.188533 0.052908 0.660472
C105  C     C_R   0.615653 0.323221 0.047271 0.661315
C106  C     C_R   0.388607 0.687182 0.949459 0.700129
C107  C     C_R   0.337527 0.407874 0.002352 0.638530
C108  C     C_R   0.607474 0.686200 0.051786 0.663485
C109  C     C_R   0.148294 0.809581 0.092186 -0.248366
C110  C     C_R   0.853010 0.192579 0.906473 -0.157249
C111  C     C_R   0.804336 0.892787 0.965442 -0.167249
C112  C     C_R   0.133832 0.203642 0.099793 -0.275971
C113  C     C_R   0.649057 0.318804 0.087719 -0.201355
C114  C     C_R   0.357793 0.701843 0.904677 -0.165900
C115  C     C_R   0.309909 0.390997 0.953353 -0.247373
C116  C     C_R   0.637578 0.697762 0.097434 -0.273404
C117  C     C_R   0.239152 0.689210 0.797812 -0.026607
C118  C     C_R   0.756384 0.302356 0.207288 -0.069086
C119  C     C_R   0.752911 0.706869 0.205615 -0.003744
C120  C     C_R   0.215868 0.334049 0.807451 -0.013211
C121  C     C_R   0.734592 0.182469 0.799417 -0.032772
C122  C     C_R   0.265703 0.817321 0.201312 0.016004
C123  C     C_R   0.245809 0.217734 0.209580 0.009574
C124  C     C_R   0.728810 0.822627 0.800346 -0.079375
C125  C     C_R   0.274463 0.679885 0.837728 -0.047163
C126  C     C_R   0.716357 0.294610 0.180064 -0.212272
C127  C     C_R   0.709391 0.714216 0.185527 -0.020959
C128  C     C_R   0.238837 0.363760 0.861008 -0.088881
C129  C     C_R   0.768659 0.170262 0.841350 -0.009297
C130  C     C_R   0.231005 0.828937 0.160715 -0.064732
C131  C     C_R   0.202285 0.227934 0.190404 -0.030077
C132  C     C_R   0.762613 0.835068 0.841198 -0.126526
C133  C     C_R   0.922924 0.908217 0.069491 0.874357
C134  C     C_R   0.071767 0.099880 0.935299 0.857740
C135  C     C_R   0.071640 0.899466 0.935771 0.843421
C136  C     C_R   0.929066 0.101240 0.063680 0.883604
C137  C     C_R   0.422405 0.409202 0.069607 0.868976
C138  C     C_R   0.571180 0.600804 0.935729 0.856182
C139  C     C_R   0.571476 0.399302 0.935642 0.839397
C140  C     C_R   0.428679 0.600843 0.064086 0.879692
C141  C     C_R   0.073369 0.613437 0.427384 -0.245384
C142  C     C_R   0.926933 0.386454 0.571692 -0.236663
C143  C     C_R   0.974922 0.615954 0.415966 -0.260499
C144  C     C_R   0.025370 0.383927 0.583083 -0.263298
C145  C     C_R   0.563967 0.120282 0.455101 -0.239772
C146  C     C_R   0.426225 0.883892 0.573300 -0.232854
C147  C     C_R   0.468180 0.121055 0.438084 -0.271622
C148  C     C_R   0.524828 0.881489 0.584713 -0.259611
C149  C     C_R   0.061420 0.669416 0.382427 0.568989
C150  C     C_R   0.938909 0.330430 0.616554 0.560487
C151  C     C_R   0.012775 0.670880 0.377287 0.589385
C152  C     C_R   0.987551 0.328960 0.621676 0.593962
C153  C     C_R   0.546442 0.182722 0.429459 0.606008
C154  C     C_R   0.439172 0.826490 0.615139 0.554701
C155  C     C_R   0.500139 0.182532 0.417626 0.611209
C156  C     C_R   0.487934 0.825053 0.620162 0.589991
C157  C     C_R   0.987290 0.558260 0.458547 -0.082367
C158  C     C_R   0.013033 0.441586 0.540411 -0.085126
C159  C     C_R   0.036271 0.557337 0.464977 -0.080176
C160  C     C_R   0.964053 0.442512 0.533991 -0.081167
C161  C     C_R   0.482085 0.060878 0.474741 -0.084156
C162  C     C_R   0.511268 0.940427 0.545699 -0.085864
C163  C     C_R   0.530379 0.060383 0.482709 -0.084508
C164  C     C_R   0.462324 0.941248 0.539019 -0.082912
C165  C     C_R   0.448511 0.000786 0.501305 0.109440
C166  C     C_R   0.545703 0.999720 0.516142 0.108316
C167  C     C_R   0.951327 0.500687 0.492746 0.108065
C168  C     C_R   0.048978 0.499183 0.506268 0.108715
C169  C     C_R   0.367686 0.939765 0.515671 -0.147747
C170  C     C_R   0.627916 0.060569 0.496280 -0.143981
C171  C     C_R   0.611617 0.937127 0.551076 -0.156427
C172  C     C_R   0.385626 0.062259 0.458195 -0.149856
C173  C     C_R   0.868850 0.440702 0.512460 -0.147669
C174  C     C_R   0.131340 0.559298 0.486936 -0.142982
C175  C     C_R   0.112742 0.437784 0.547440 -0.154313
C176  C     C_R   0.887452 0.562209 0.451894 -0.145333
C177  C     C_R   0.325306 0.936725 0.489889 -0.199604
C178  C     C_R   0.672829 0.063048 0.515400 -0.214283
C179  C     C_R   0.664617 0.935133 0.543771 -0.161531
C180  C     C_R   0.334254 0.064248 0.459961 -0.191762
C181  C     C_R   0.825907 0.437155 0.488123 -0.205762
C182  C     C_R   0.174202 0.562865 0.511489 -0.206153
C183  C     C_R   0.165131 0.435466 0.542204 -0.154580
C184  C     C_R   0.835014 0.564564 0.457263 -0.190518
C185  C     C_R   0.308163 0.999864 0.465049 0.561736
C186  C     C_R   0.691263 0.999588 0.536816 0.548520
C187  C     C_R   0.808510 0.500196 0.463685 0.559612
C188  C     C_R   0.191617 0.499821 0.535850 0.537534
Cu1   Cu    Cu3+1 0.209920 0.785290 0.495070 1.185663
Cu2   Cu    Cu3+1 0.790080 0.214710 0.504930 1.185486
Cu3   Cu    Cu3+1 0.790080 0.785290 0.504930 1.137498
Cu4   Cu    Cu3+1 0.209920 0.214710 0.495070 1.215202
Cu5   Cu    Cu3+1 0.709920 0.285290 0.495070 1.152649
Cu6   Cu    Cu3+1 0.290080 0.714710 0.504930 1.201423
Cu7   Cu    Cu3+1 0.290080 0.285290 0.504930 1.158789
Cu8   Cu    Cu3+1 0.709920 0.714710 0.495070 1.207749
Cu9   Cu    Cu3+1 0.495240 0.500000 0.924150 1.225802
Cu10  Cu    Cu3+1 0.504760 0.500000 0.075850 1.203575
Cu11  Cu    Cu3+1 0.995240 0.000000 0.924150 1.230031
Cu12  Cu    Cu3+1 0.004760 0.000000 0.075850 1.206597
H1    H     H_    0.129298 0.813313 0.164687 0.245138
H2    H     H_    0.871402 0.187750 0.834061 0.205361
H3    H     H_    0.803376 0.932554 0.919185 0.210063
H4    H     H_    0.116875 0.183300 0.167099 0.178029
H5    H     H_    0.634144 0.344364 0.152105 0.178128
H6    H     H_    0.377160 0.698616 0.832076 0.209483
H7    H     H_    0.322718 0.419718 0.891493 0.219399
H8    H     H_    0.620442 0.676751 0.164323 0.173727
O1    O     O_R   0.255040 0.869590 0.478480 -0.523379
O2    O     O_R   0.744960 0.130410 0.521520 -0.514844
O3    O     O_R   0.744960 0.869590 0.521520 -0.529324
O4    O     O_R   0.255040 0.130410 0.478480 -0.515206
O5    O     O_R   0.755040 0.369590 0.478480 -0.515527
O6    O     O_R   0.244960 0.630410 0.521520 -0.510843
O7    O     O_R   0.244960 0.369590 0.521520 -0.540649
O8    O     O_R   0.755040 0.630410 0.478480 -0.517575
O9    O     O_R   0.182050 0.796550 0.624440 -0.511564
O10   O     O_R   0.817950 0.203450 0.375560 -0.515558
O11   O     O_R   0.817950 0.796550 0.375560 -0.476135
O12   O     O_R   0.182050 0.203450 0.624440 -0.463250
O13   O     O_R   0.682050 0.296550 0.624440 -0.510609
O14   O     O_R   0.317950 0.703450 0.375560 -0.515542
O15   O     O_R   0.317950 0.296550 0.375560 -0.469799
O16   O     O_R   0.682050 0.703450 0.624440 -0.466893
O17   O     O_R   0.250530 0.763330 0.367210 -0.565848
O18   O     O_R   0.749470 0.236670 0.632790 -0.558311
O19   O     O_R   0.749470 0.763330 0.632790 -0.631017
O20   O     O_R   0.250530 0.236670 0.367210 -0.613347
O21   O     O_R   0.750530 0.263330 0.367210 -0.584114
O22   O     O_R   0.249470 0.736670 0.632790 -0.554371
O23   O     O_R   0.249470 0.263330 0.632790 -0.637058
O24   O     O_R   0.750530 0.736670 0.367210 -0.613771
O25   O     O_R   0.177260 0.690030 0.513710 -0.551905
O26   O     O_R   0.822740 0.309970 0.486290 -0.547602
O27   O     O_R   0.822740 0.690030 0.486290 -0.550965
O28   O     O_R   0.177260 0.309970 0.513710 -0.545677
O29   O     O_R   0.677260 0.190030 0.513710 -0.548174
O30   O     O_R   0.322740 0.809970 0.486290 -0.547228
O31   O     O_R   0.322740 0.190030 0.486290 -0.546229
O32   O     O_R   0.677260 0.809970 0.513710 -0.549324
O33   O     O_R   0.051640 0.926880 0.885090 -0.514388
O34   O     O_R   0.948360 0.073120 0.114910 -0.505046
O35   O     O_R   0.948360 0.926880 0.114910 -0.498480
O36   O     O_R   0.051640 0.073120 0.885090 -0.489430
O37   O     O_R   0.551640 0.426880 0.885090 -0.517881
O38   O     O_R   0.448360 0.573120 0.114910 -0.504155
O39   O     O_R   0.448360 0.426880 0.114910 -0.492787
O40   O     O_R   0.551640 0.573120 0.885090 -0.487397
O41   O     O_R   0.940620 0.926560 0.986760 -0.552779
O42   O     O_R   0.059380 0.073440 0.013240 -0.564541
O43   O     O_R   0.059380 0.926560 0.013240 -0.556379
O44   O     O_R   0.940620 0.073440 0.986760 -0.514880
O45   O     O_R   0.440620 0.426560 0.986760 -0.555383
O46   O     O_R   0.559380 0.573440 0.013240 -0.564684
O47   O     O_R   0.559380 0.426560 0.013240 -0.554582
O48   O     O_R   0.440620 0.573440 0.986760 -0.510032
F1    F     F_    0.498926 0.767543 0.659116 -0.525390
F2    F     F_    0.485298 0.243873 0.390866 -0.523428
F3    F     F_    0.405458 0.770215 0.649271 -0.589120
F4    F     F_    0.571446 0.245660 0.423895 -0.592629
F5    F     F_    0.997515 0.272768 0.663854 -0.524205
F6    F     F_    0.002831 0.727048 0.335054 -0.515501
F7    F     F_    0.904289 0.275471 0.653791 -0.582940
F8    F     F_    0.096050 0.724360 0.345155 -0.554362
F9    F     F_    0.265162 0.999242 0.447102 -0.608504
F10   F     F_    0.736257 0.000055 0.549192 -0.603569
F11   F     F_    0.764772 0.499523 0.447741 -0.600535
F12   F     F_    0.235379 0.500482 0.551717 -0.608588
F13   F     F_    0.584369 0.828147 0.635636 -0.568073
F14   F     F_    0.415594 0.170003 0.371660 -0.574382
F15   F     F_    0.338743 0.838188 0.614884 -0.615356
F16   F     F_    0.652615 0.162780 0.397628 -0.624748
F17   F     F_    0.084102 0.331217 0.636193 -0.564507
F18   F     F_    0.915979 0.668957 0.363471 -0.577325
F19   F     F_    0.839174 0.341131 0.614346 -0.613192
F20   F     F_    0.160996 0.659052 0.385339 -0.610248
F21   F     F_    0.109197 0.846101 0.762561 -0.609784
F22   F     F_    0.893596 0.157645 0.235836 -0.596454
F23   F     F_    0.897214 0.832558 0.228453 -0.562521
F24   F     F_    0.126273 0.128878 0.754197 -0.595290
F25   F     F_    0.609606 0.347297 0.761322 -0.613270
F26   F     F_    0.387655 0.647747 0.240279 -0.599416
F27   F     F_    0.395383 0.333590 0.227544 -0.566749
F28   F     F_    0.615712 0.643286 0.757800 -0.578789
F29   F     F_    0.062405 0.826240 0.101494 -0.581044
F30   F     F_    0.939026 0.173796 0.896535 -0.597861
F31   F     F_    0.855518 0.974233 0.000793 -0.645023
F32   F     F_    0.052006 0.174061 0.102497 -0.619133
F33   F     F_    0.562275 0.330584 0.102340 -0.585106
F34   F     F_    0.442198 0.677316 0.898695 -0.596839
F35   F     F_    0.361824 0.472459 0.984903 -0.633702
F36   F     F_    0.554265 0.673789 0.102370 -0.622568
C189  C     C_2   0.229526 0.629860 0.746994 0.422842
H9    H     H_    0.189779 0.623493 0.751187 0.052911
O49   O     O_2   0.265405 0.590096 0.697374 -0.472278
C190  C     C_2   0.757384 0.369010 0.254809 0.460841
H10   H     H_    0.722456 0.403960 0.282631 0.086133
O50   O     O_2   0.797825 0.386794 0.260456 -0.510652
C191  C     C_2   0.762499 0.638021 0.241170 0.536704
H11   H     H_    0.797638 0.631277 0.252613 0.053544
O51   O     O_2   0.732436 0.587356 0.254955 -0.487209
C192  C     C_2   0.207455 0.380325 0.741818 0.421631
H12   H     H_    0.239171 0.414356 0.695605 0.182292
O52   O     O_2   0.164111 0.381461 0.740126 -0.530444
C193  C     C_2   0.725054 0.125551 0.745263 0.434505
H13   H     H_    0.687557 0.125593 0.740225 0.056935
O53   O     O_2   0.758225 0.079423 0.704735 -0.528650
C194  C     C_2   0.274480 0.876006 0.253995 0.429912
H14   H     H_    0.243773 0.915582 0.289475 0.168548
O54   O     O_2   0.317539 0.882040 0.255965 -0.550575
C195  C     C_2   0.254798 0.146340 0.240212 0.513568
H15   H     H_    0.291385 0.135575 0.246135 0.053343
O55   O     O_2   0.222315 0.098273 0.256597 -0.484405
C196  C     C_2   0.722974 0.879464 0.742325 0.441002
H16   H     H_    0.753636 0.919423 0.710326 0.107104
O56   O     O_2   0.681948 0.884472 0.733361 -0.516921
C197  C     C_2   0.311646 0.617548 0.810753 0.459989
H17   H     H_    0.337487 0.606857 0.740290 0.176777
O57   O     O_2   0.313404 0.577414 0.867306 -0.523804
C198  C     C_2   0.661520 0.287506 0.253921 0.521519
H18   H     H_    0.648944 0.319232 0.314477 0.118616
O58   O     O_2   0.630945 0.243091 0.249392 -0.447781
C199  C     C_2   0.655359 0.716162 0.264259 0.396416
H19   H     H_    0.624302 0.751090 0.263576 0.069515
O59   O     O_2   0.645447 0.681538 0.332105 -0.463889
C200  C     C_2   0.254163 0.439912 0.847833 0.328950
H20   H     H_    0.238398 0.475916 0.904973 0.124982
O60   O     O_2   0.286536 0.461923 0.774408 -0.497136
C201  C     C_2   0.804457 0.106581 0.815628 0.404754
H21   H     H_    0.831180 0.095824 0.745531 0.150902
O61   O     O_2   0.803966 0.065379 0.872896 -0.540422
C202  C     C_2   0.194402 0.891945 0.187711 0.344500
H22   H     H_    0.192291 0.926094 0.136616 0.087016
O62   O     O_2   0.164537 0.904037 0.266735 -0.455802
C203  C     C_2   0.148203 0.231623 0.268881 0.404318
H23   H     H_    0.116692 0.263856 0.265347 0.067201
O63   O     O_2   0.138724 0.201293 0.339415 -0.462639
C204  C     C_2   0.817722 0.861503 0.782371 0.371169
H24   H     H_    0.824795 0.901692 0.731469 0.081685
O64   O     O_2   0.856609 0.835514 0.787315 -0.494326

loop_
_geom_bond_atom_site_label_1
_geom_bond_atom_site_label_2
_ccdc_geom_bond_type
C152  F5    S    
C3    O16   A    
C35   C131  A    
C201  O61   D    
Cu6   O22   S    
C9    C169  A    
C34   C42   A    
C181  C187  A    
C27   C99   A    
C85   C182  S    
C188  F12   S    
C85   O25   A    
C175  C183  A    
C42   C109  A    
C24   C96   A    
C1    O17   A    
C87   O27   A    
C30   C38   A    
C66   F26   S    
Cu3   Cu8   S    
Cu1   Cu6   S    
Cu11  O41   S    
C200  H20   S    
C147  C155  A    
C150  F7    S    
Cu6   O14   S    
C143  C151  A    
C90   C177  S    
Cu11  Cu12  S    
C11   C167  A    
C82   C98   A    
C76   C84   A    
C73   C81   A    
C161  C163  A    
Cu1   O9    S    
Cu11  O36   S    
C162  C164  A    
C90   O30   A    
C199  H19   S    
C84   C100  A    
Cu4   Cu7   S    
C67   F27   S    
C111  H3    S    
C203  O63   D    
C155  F2    S    
C37   C114  A    
C27   C35   A    
C196  H16   S    
C55   C133  S    
C21   C29   A    
C2    O13   A    
C117  C189  S    
C23   C31   A    
C24   C32   A    
C5    C70   S    
C6    O9    A    
C17   F17   S    
C146  C154  A    
Cu10  O39   S    
C14   F14   S    
C101  F29   S    
C103  F31   S    
Cu8   O16   S    
C190  H10   S    
C170  C178  A    
C36   C44   A    
C112  H4    S    
C139  O37   A    
Cu12  O34   S    
C2    O18   A    
C12   C174  A    
C58   C140  S    
C176  C184  A    
C8    C71   S    
C121  C193  S    
C48   C96   A    
C56   C134  S    
Cu5   O5    S    
C110  H2    S    
C148  C162  A    
C135  O33   A    
Cu2   O2    S    
C183  C188  A    
C108  C116  A    
C21   C93   A    
C78   C94   A    
C137  O39   A    
Cu9   O37   S    
C23   C95   A    
C105  F33   S    
C49   C97   A    
C21   C42   A    
C22   C41   A    
C51   C107  A    
C24   C43   A    
C136  O44   A    
Cu3   O27   S    
C82   C122  A    
C161  C165  A    
C17   C175  A    
C198  O58   D    
C18   C176  A    
C6    C69   S    
C29   C125  A    
C186  F10   S    
C69   C77   A    
C53   C135  S    
C31   C127  A    
C45   C93   A    
C174  C182  A    
C71   C79   A    
C185  F9    S    
C179  C186  A    
C62   C70   A    
C11   C176  A    
C17   C144  A    
C140  O38   A    
C1    C74   S    
C118  C190  S    
C18   C143  A    
C78   C118  A    
Cu3   O3    S    
C149  C151  A    
Cu12  O43   S    
C109  H1    S    
C66   C74   A    
C49   C57   A    
C124  C132  A    
Cu4   O4    S    
C52   C60   A    
C151  F6    S    
C59   C67   A    
C53   C61   A    
C141  C159  A    
C20   C174  A    
Cu8   O24   S    
C193  O53   D    
C55   C63   A    
C86   C181  S    
C87   O8    A    
C56   C64   A    
C127  C199  S    
Cu1   O25   S    
Cu10  O46   S    
C45   C53   A    
C122  C194  S    
C22   C94   A    
C171  C179  A    
C169  C177  A    
C194  O54   D    
C192  O52   D    
C50   C98   A    
C202  H22   S    
C7    C72   S    
C104  C112  A    
C145  C163  A    
C146  C164  A    
C14   C147  A    
C52   C100  A    
C203  H23   S    
C16   C145  A    
C199  O59   D    
C113  H5    S    
C189  H9    S    
C178  C186  A    
C13   F13   S    
C25   C38   A    
C46   C94   A    
C27   C40   A    
C10   C166  A    
C57   C65   A    
C91   C180  S    
C182  C188  A    
C89   C178  S    
Cu6   O30   S    
C60   C68   A    
C116  H8    S    
C2    C73   S    
C104  F32   S    
C7    O12   A    
C25   C97   A    
C39   C116  A    
C204  O64   D    
C195  O55   D    
C67   C75   A    
C29   C37   A    
C133  O41   A    
C156  F1    S    
C92   O32   A    
C22   C30   A    
Cu2   O18   S    
Cu7   O7    S    
C20   C141  A    
C135  O43   A    
C90   O1    A    
C68   C76   A    
C4    O15   A    
C184  C187  A    
C32   C128  A    
C6    O22   A    
C72   C80   A    
C8    O11   A    
C85   O6    A    
C108  F36   S    
C63   F23   S    
C64   F24   S    
C190  O50   D    
C150  C152  A    
Cu9   Cu10  S    
Cu11  O44   S    
C13   C171  A    
C130  C202  S    
C60   C138  S    
C123  C195  S    
C117  C125  A    
C25   C33   A    
C68   F28   S    
C119  C127  A    
C88   O7    A    
Cu5   O21   S    
C157  C167  A    
C80   C120  A    
C158  C168  A    
C7    O23   A    
C86   O26   A    
C164  C165  A    
C106  F34   S    
Cu8   O8    S    
C40   C115  A    
C101  C109  A    
C177  C185  A    
C57   C139  S    
C103  C111  A    
C196  O56   D    
C197  O57   D    
C4    C75   S    
C125  C197  S    
Cu2   Cu5   S    
Cu12  O42   S    
C162  C166  A    
C75   C83   A    
Cu9   O48   S    
C79   C119  A    
C153  C155  A    
C154  C156  A    
C172  C180  A    
Cu5   O13   S    
C173  C181  A    
C157  C159  A    
C83   C99   A    
C158  C160  A    
C61   F21   S    
C74   C82   A    
Cu2   O10   S    
C120  C192  S    
C16   F16   S    
Cu4   O28   S    
C47   C103  A    
C141  C149  A    
C50   C58   A    
C89   O29   A    
C163  C166  A    
C147  C161  A    
C119  C191  S    
C38   C113  A    
C49   C105  A    
C54   C62   A    
C28   C39   A    
C23   C44   A    
C1    O14   A    
C139  O47   A    
C191  H11   S    
C19   C173  A    
C79   C95   A    
C92   C179  S    
C15   C146  A    
C5    O10   A    
C46   C54   A    
C124  C196  S    
C63   C71   A    
C45   C101  A    
C19   C142  A    
C128  C200  S    
C102  C110  A    
C3    O19   A    
Cu11  O33   S    
C58   C66   A    
Cu7   O31   S    
C36   C132  A    
C123  C131  A    
C121  C129  A    
Cu6   O6    S    
C120  C128  A    
C26   C37   A    
C10   C170  A    
C136  O34   A    
C33   C41   A    
C142  C150  A    
C9    C165  A    
C10   C171  A    
Cu1   O1    S    
C126  C198  S    
C102  F30   S    
Cu10  O38   S    
C77   C93   A    
C107  C115  A    
C4    O20   A    
C44   C111  A    
C16   C170  A    
C28   C36   A    
C144  C152  A    
C193  H13   S    
C134  O36   A    
C81   C121  A    
C50   C106  A    
C9    C172  A    
C65   F25   S    
C148  C156  A    
C83   C123  A    
C138  O46   A    
C153  F4    S    
C154  F3    S    
Cu10  O47   S    
C195  H15   S    
C30   C126  A    
C115  H7    S    
C70   C78   A    
C201  H21   S    
C129  C201  S    
C20   F20   S    
C132  C204  S    
C46   C102  A    
C106  C114  A    
C202  O62   D    
C77   C117  A    
C59   C137  S    
C48   C104  A    
C65   C73   A    
C159  C168  A    
C15   C169  A    
C160  C167  A    
C26   C34   A    
C19   F19   S    
C105  C113  A    
Cu2   O26   S    
C80   C96   A    
C149  F8    S    
C131  C203  S    
C28   C100  A    
C32   C40   A    
C52   C108  A    
Cu9   O45   S    
C15   F15   S    
C107  F35   S    
C143  C157  A    
C51   C99   A    
C88   O28   A    
C11   C173  A    
C14   C172  A    
Cu3   O11   S    
C87   C184  S    
C88   C183  S    
C114  H6    S    
C5    O21   A    
C187  F11   S    
C54   C136  S    
Cu7   O23   S    
C3    C76   S    
C191  O51   D    
Cu12  O35   S    
Cu5   O29   S    
C26   C98   A    
C12   C175  A    
C140  O48   A    
C41   C110  A    
C33   C129  A    
C134  O42   A    
C51   C59   A    
C43   C112  A    
Cu4   O12   S    
C144  C158  A    
C35   C43   A    
C194  H14   S    
C47   C55   A    
Cu8   O32   S    
C61   C69   A    
C48   C56   A    
C192  H12   S    
Cu3   O19   S    
Cu1   O17   S    
C142  C160  A    
C91   O4    A    
C12   C168  A    
C200  O60   D    
C89   O2    A    
C84   C124  A    
C118  C126  A    
Cu9   O40   S    
C198  H18   S    
C86   O5    A    
C145  C153  A    
C189  O49   D    
C133  O35   A    
Cu7   O15   S    
C8    O24   A    
C81   C97   A    
C31   C39   A    
C64   C72   A    
C197  H17   S    
C138  O40   A    
C180  C185  A    
Cu4   O20   S    
C34   C130  A    
C204  H24   S    
C91   O31   A    
C47   C95   A    
C92   O3    A    
C62   F22   S    
C13   C148  A    
C18   F18   S    
C122  C130  A    
C137  O45   A    
