data_mof_unit_52970.cif
_audit_creation_date              2013-03-05T15:56:46-0500
_audit_creation_method            fapswitch 2.2
_symmetry_space_group_name_H-M    P1
_symmetry_Int_Tables_number       1
_space_group_crystal_system       triclinic
_cell_length_a                    20.769966
_cell_length_b                    21.69226
_cell_length_c                    13.840916
_cell_angle_alpha                 89.881556
_cell_angle_beta                  90.040964
_cell_angle_gamma                 89.954626
_cell_volume                      6235.97325716

loop_
_atom_site_label
_atom_site_type_symbol
_atom_site_description
_atom_site_fract_x
_atom_site_fract_y
_atom_site_fract_z
_atom_type_partial_charge
O1    O     O_R   0.064880 0.435140 0.582280 -0.546737
O2    O     O_R   0.935120 0.564860 0.417720 -0.554419
O3    O     O_R   0.935120 0.564860 0.582280 -0.548230
O4    O     O_R   0.064880 0.435140 0.417720 -0.555689
O5    O     O_R   0.935120 0.435140 0.417720 -0.557672
O6    O     O_R   0.064880 0.564860 0.582280 -0.545304
O7    O     O_R   0.064880 0.564860 0.417720 -0.557043
O8    O     O_R   0.935120 0.435140 0.582280 -0.544592
O9    O     O_R   0.564880 0.935140 0.582280 -0.554479
O10   O     O_R   0.435120 0.064860 0.417720 -0.549664
O11   O     O_R   0.435120 0.064860 0.582280 -0.553227
O12   O     O_R   0.564880 0.935140 0.417720 -0.547983
O13   O     O_R   0.435120 0.935140 0.417720 -0.545410
O14   O     O_R   0.564880 0.064860 0.582280 -0.556461
O15   O     O_R   0.564880 0.064860 0.417720 -0.545583
O16   O     O_R   0.435120 0.935140 0.582280 -0.557068
C1    C     C_R   0.085848 0.414902 0.500189 0.798554
C2    C     C_R   0.913849 0.584816 0.499978 0.798160
C3    C     C_R   0.914128 0.414861 0.500232 0.797469
C4    C     C_R   0.085954 0.585094 0.500140 0.800795
C5    C     C_R   0.586155 0.915185 0.500021 0.798400
C6    C     C_R   0.413917 0.084871 0.499851 0.798649
C7    C     C_R   0.413988 0.914990 0.499809 0.798901
C8    C     C_R   0.585882 0.085132 0.499764 0.799116
Cu1   Cu    Cu3+1 1.000000 0.500000 0.597420 1.073535
Cu2   Cu    Cu3+1 1.000000 0.500000 0.402580 1.061152
Cu3   Cu    Cu3+1 0.500000 0.000000 0.597420 1.062603
Cu4   Cu    Cu3+1 0.500000 0.000000 0.402580 1.071168
C9    C     C_R   0.125357 0.684943 0.558654 -0.136229
C10   C     C_R   0.875622 0.314086 0.556462 -0.138675
C11   C     C_R   0.879583 0.688941 0.544044 -0.183208
C12   C     C_R   0.119414 0.309926 0.542142 -0.185441
C13   C     C_R   0.624535 0.185794 0.443290 -0.130568
C14   C     C_R   0.373670 0.815961 0.439864 -0.132548
C15   C     C_R   0.380276 0.189857 0.459068 -0.183007
C16   C     C_R   0.620438 0.811067 0.455917 -0.182928
C17   C     C_R   0.134449 0.633161 0.501136 -0.080826
C18   C     C_R   0.865505 0.366973 0.501550 -0.077373
C19   C     C_R   0.865684 0.633029 0.500090 -0.032779
C20   C     C_R   0.133997 0.366682 0.500942 -0.031584
C21   C     C_R   0.634555 0.132977 0.498402 -0.078995
C22   C     C_R   0.365073 0.867372 0.498307 -0.080924
C23   C     C_R   0.365531 0.132866 0.499193 -0.028302
C24   C     C_R   0.634328 0.866974 0.499900 -0.032709
C25   C     C_R   0.189677 0.626818 0.445527 -0.091295
C26   C     C_R   0.808916 0.374848 0.449510 -0.092246
C27   C     C_R   0.806195 0.622774 0.457095 -0.099447
C28   C     C_R   0.194308 0.377893 0.461498 -0.096498
C29   C     C_R   0.691145 0.125079 0.550436 -0.093281
C30   C     C_R   0.309351 0.874378 0.552578 -0.095650
C31   C     C_R   0.305055 0.121357 0.538051 -0.098782
C32   C     C_R   0.693821 0.877230 0.542886 -0.099934
C33   C     C_R   0.235520 0.673915 0.442096 0.008437
C34   C     C_R   0.762349 0.328334 0.447373 0.009166
C35   C     C_R   0.759371 0.669226 0.455709 -0.022731
C36   C     C_R   0.241544 0.331848 0.461832 -0.025615
C37   C     C_R   0.737818 0.171508 0.552365 0.010388
C38   C     C_R   0.262599 0.828023 0.554203 0.009987
C39   C     C_R   0.258128 0.167724 0.539633 -0.022574
C40   C     C_R   0.740653 0.830783 0.544249 -0.022785
C41   C     C_R   0.226366 0.726999 0.500004 0.007502
C42   C     C_R   0.772878 0.273782 0.501663 0.007504
C43   C     C_R   0.773526 0.726742 0.499388 0.034094
C44   C     C_R   0.226300 0.273070 0.500388 0.032563
C45   C     C_R   0.727319 0.226043 0.498017 0.005334
C46   C     C_R   0.271793 0.774838 0.496559 0.007433
C47   C     C_R   0.272927 0.226168 0.499312 0.031883
C48   C     C_R   0.726497 0.773268 0.500563 0.034201
C49   C     C_R   0.171573 0.732071 0.561090 0.069501
C50   C     C_R   0.829190 0.267153 0.559347 0.070814
C51   C     C_R   0.834598 0.737218 0.542913 0.014604
C52   C     C_R   0.164425 0.261602 0.540537 0.015609
C53   C     C_R   0.671029 0.232663 0.440279 0.070787
C54   C     C_R   0.326698 0.769638 0.435756 0.070010
C55   C     C_R   0.334494 0.237465 0.457858 0.015051
C56   C     C_R   0.665427 0.762793 0.457029 0.014590
C57   C     C_R   0.289016 0.669449 0.379716 0.251513
C58   C     C_R   0.706705 0.334895 0.389714 0.248354
C59   C     C_R   0.698442 0.658456 0.413699 0.297752
C60   C     C_R   0.303092 0.343593 0.422996 0.305914
C61   C     C_R   0.793545 0.164883 0.609845 0.248649
C62   C     C_R   0.208108 0.833347 0.614454 0.249414
C63   C     C_R   0.196654 0.156139 0.579173 0.297737
C64   C     C_R   0.801591 0.841556 0.586233 0.297601
C65   C     C_R   0.838722 0.213046 0.615301 -0.135065
C66   C     C_R   0.163189 0.784948 0.619913 -0.134354
C67   C     C_R   0.149407 0.202863 0.579459 -0.134880
C68   C     C_R   0.848830 0.794866 0.585852 -0.135285
C69   C     C_R   0.334250 0.717552 0.375076 -0.134092
C70   C     C_R   0.661585 0.286700 0.384127 -0.123742
C71   C     C_R   0.651205 0.705148 0.414060 -0.135284
C72   C     C_R   0.349565 0.296300 0.419278 -0.127682
H1    H     H_    0.080847 0.688309 0.598703 0.169496
H2    H     H_    0.921074 0.309727 0.593941 0.166866
H3    H     H_    0.926031 0.693743 0.578562 0.119266
H4    H     H_    0.072338 0.304401 0.574330 0.118095
H5    H     H_    0.579094 0.190172 0.405786 0.167451
H6    H     H_    0.418359 0.812207 0.400324 0.168775
H7    H     H_    0.428453 0.196430 0.431338 0.110069
H8    H     H_    0.573992 0.806268 0.421394 0.118810
H9    H     H_    0.196626 0.584546 0.405906 0.227148
H10   H     H_    0.801714 0.417753 0.411301 0.223723
H11   H     H_    0.796437 0.577652 0.427420 0.208687
H12   H     H_    0.204096 0.423183 0.432083 0.208095
H13   H     H_    0.698257 0.082217 0.588789 0.224206
H14   H     H_    0.302907 0.916488 0.592798 0.226775
H15   H     H_    0.294964 0.075628 0.565486 0.205061
H16   H     H_    0.703578 0.922351 0.572565 0.208772
C73   C     C_R   0.057369 0.500972 0.793763 0.426487
C74   C     C_R   0.942847 0.497433 0.205596 0.428389
C75   C     C_R   0.942625 0.498865 0.793652 0.427741
C76   C     C_R   0.057159 0.502396 0.205650 0.430462
C77   C     C_R   0.557150 0.002563 0.794407 0.428983
C78   C     C_R   0.442629 0.998967 0.206233 0.427062
C79   C     C_R   0.442841 0.997524 0.794322 0.428690
C80   C     C_R   0.557371 0.001148 0.206343 0.427171
N1    N     N_R   1.000000 0.500000 0.743810 -0.303239
N2    N     N_R   1.000000 0.500000 0.256190 -0.302417
N3    N     N_R   0.500000 0.000000 0.743810 -0.302293
N4    N     N_R   0.500000 0.000000 0.256190 -0.303352
C81   C     C_R   0.941627 0.498603 0.896398 -0.087311
C82   C     C_R   0.058209 0.501425 0.102791 -0.088996
C83   C     C_R   0.058360 0.500977 0.896505 -0.086948
C84   C     C_R   0.941776 0.498018 0.102712 -0.089340
C85   C     C_R   0.441780 0.998437 0.897186 -0.089100
C86   C     C_R   0.558364 0.001369 0.103596 -0.087763
C87   C     C_R   0.558216 0.001933 0.897286 -0.089286
C88   C     C_R   0.441633 0.998923 0.103486 -0.087713
C89   C     C_R   0.999993 0.499731 0.947948 0.044520
C90   C     C_R   0.999992 0.499671 0.051224 0.035826
C91   C     C_R   0.499998 0.000221 0.948765 0.036023
C92   C     C_R   0.499999 0.000182 0.052043 0.043686
C93   C     C_R   0.883593 0.497364 0.948917 -0.094999
C94   C     C_R   0.116328 0.502370 0.050209 -0.078552
C95   C     C_R   0.116395 0.502090 0.949122 -0.094776
C96   C     C_R   0.883658 0.497016 0.050020 -0.077839
C97   C     C_R   0.383663 0.997479 0.949766 -0.078369
C98   C     C_R   0.616398 0.002629 0.051078 -0.095340
C99   C     C_R   0.616332 0.002969 0.949978 -0.078183
C100  C     C_R   0.383598 0.997772 0.050860 -0.095896
H17   H     H_    0.837519 0.496666 0.912398 0.211950
H18   H     H_    0.162438 0.503072 0.086593 0.223893
H19   H     H_    0.162468 0.502802 0.912697 0.211792
H20   H     H_    0.837555 0.496246 0.086328 0.225190
H21   H     H_    0.337556 0.996770 0.913370 0.224859
H22   H     H_    0.662471 0.003364 0.087597 0.211875
H23   H     H_    0.662435 0.003772 0.913672 0.225160
H24   H     H_    0.337525 0.997055 0.087286 0.211737
N5    N     N_R   0.295793 0.617313 0.316858 0.116391
O17   O     O_R   0.313712 0.564335 0.351737 -0.251660
O18   O     O_R   0.289362 0.624061 0.223935 -0.267116
N6    N     N_R   0.696930 0.389928 0.333794 0.118288
O19   O     O_R   0.698093 0.387753 0.239867 -0.264205
O20   O     O_R   0.683699 0.441632 0.376827 -0.260267
N7    N     N_R   0.683334 0.599026 0.374356 0.156342
O21   O     O_R   0.638062 0.565789 0.413150 -0.254742
O22   O     O_R   0.710353 0.580849 0.294569 -0.228622
N8    N     N_R   0.318325 0.403784 0.386709 0.163872
O23   O     O_R   0.327067 0.449101 0.446668 -0.257486
O24   O     O_R   0.326338 0.412655 0.294516 -0.246552
N9    N     N_R   0.803404 0.109787 0.665600 0.118261
O25   O     O_R   0.815884 0.057997 0.622347 -0.266210
O26   O     O_R   0.803151 0.111972 0.759525 -0.261131
N10   N     N_R   0.199407 0.887210 0.673152 0.118029
O27   O     O_R   0.185665 0.939828 0.632950 -0.260778
O28   O     O_R   0.201786 0.883021 0.766867 -0.262786
N11   N     N_R   0.181228 0.096005 0.615802 0.156192
O29   O     O_R   0.137723 0.062679 0.572976 -0.265609
O30   O     O_R   0.206812 0.076728 0.696200 -0.226555
N12   N     N_R   0.816710 0.900988 0.625559 0.156644
O31   O     O_R   0.862054 0.934170 0.586840 -0.259882
O32   O     O_R   0.789682 0.919183 0.705329 -0.228016
C101  C     C_2   0.895514 0.204722 0.679629 0.451806
H25   H     H_    0.919888 0.160478 0.682554 0.141455
O33   O     O_2   0.913141 0.245705 0.733857 -0.492253
C102  C     C_2   0.107880 0.791726 0.687340 0.453049
H26   H     H_    0.083376 0.835767 0.693282 0.139266
O34   O     O_2   0.091729 0.749625 0.740722 -0.490675
C103  C     C_2   0.084412 0.189732 0.620159 0.505563
H27   H     H_    0.041494 0.207550 0.585214 0.020813
O35   O     O_2   0.078213 0.159200 0.693775 -0.434509
C104  C     C_2   0.913037 0.806924 0.630111 0.507286
H28   H     H_    0.956633 0.790292 0.595817 0.022724
O36   O     O_2   0.917784 0.835215 0.705957 -0.433847
C105  C     C_2   0.388679 0.711512 0.305844 0.454386
H29   H     H_    0.412179 0.667220 0.296460 0.140214
O37   O     O_2   0.405161 0.754653 0.254777 -0.491677
C106  C     C_2   0.605004 0.294884 0.319326 0.454255
H30   H     H_    0.580776 0.339180 0.315724 0.150999
O38   O     O_2   0.587427 0.253712 0.265414 -0.510212
C107  C     C_2   0.587015 0.693095 0.369742 0.507336
H31   H     H_    0.543404 0.709747 0.403969 0.025270
O39   O     O_2   0.582296 0.664782 0.293912 -0.434546
C108  C     C_2   0.413731 0.308880 0.375297 0.457100
H32   H     H_    0.437026 0.274552 0.330444 0.073484
O40   O     O_2   0.441525 0.357614 0.389455 -0.452502
N13   N     N_R   0.116962 0.501990 0.742084 0.138633
O41   O     O_R   0.147814 0.553920 0.734050 -0.323584
O42   O     O_R   0.148783 0.450759 0.731683 -0.338123
N14   N     N_R   0.883337 0.493110 0.256343 0.133356
O43   O     O_R   0.853025 0.440704 0.254825 -0.346835
O44   O     O_R   0.850278 0.543227 0.269901 -0.338099
N15   N     N_R   0.883028 0.497919 0.741858 0.138087
O45   O     O_R   0.852228 0.445979 0.733793 -0.326774
O46   O     O_R   0.851141 0.549144 0.731425 -0.340764
N16   N     N_R   0.116608 0.508357 0.256271 0.132721
O47   O     O_R   0.146083 0.561131 0.251806 -0.343976
O48   O     O_R   0.150510 0.459019 0.272525 -0.353293
N17   N     N_R   0.616655 0.006983 0.743669 0.133135
O49   O     O_R   0.646908 0.059420 0.745275 -0.346586
O50   O     O_R   0.649769 0.956910 0.730012 -0.338149
N18   N     N_R   0.383036 0.997922 0.257911 0.138197
O51   O     O_R   0.352191 0.945985 0.265895 -0.324442
O52   O     O_R   0.351208 0.049146 0.268355 -0.347495
N19   N     N_R   0.383390 0.991879 0.743608 0.132672
O53   O     O_R   0.353592 0.939255 0.747738 -0.345314
O54   O     O_R   0.349863 0.041420 0.727184 -0.338266
N20   N     N_R   0.616969 0.002152 0.258132 0.138206
O55   O     O_R   0.647736 0.054113 0.266139 -0.328515
O56   O     O_R   0.648886 0.950950 0.268627 -0.341078

loop_
_geom_bond_atom_site_label_1
_geom_bond_atom_site_label_2
_geom_bond_distance
_ccdc_geom_bond_type
O1    Cu1   1.959075 S    
N15   O45   1.301024 A    
C10   C18   1.390596 A    
C8    C21   1.449540 S    
O5    Cu2   1.959986 S    
N7    O22   1.300867 A    
C73   N13   1.430164 S    
C14   C22   1.390519 A    
C2    C19   1.446711 S    
C23   C31   1.389328 A    
C74   N2    1.379013 A    
N9    O25   1.300096 A    
C105  H29   1.085397 S    
C58   N6    1.435616 S    
N10   O28   1.300980 A    
C12   C52   1.404262 A    
C101  H25   1.085396 S    
O10   C6    1.295016 A    
C26   H10   1.079786 S    
C99   H23   1.081855 S    
C7    C22   1.449587 S    
C70   C106  1.488118 S    
O12   Cu4   1.958246 S    
C54   C69   1.417885 A    
C97   H21   1.081861 S    
N10   O27   1.300198 A    
C39   C63   1.412031 A    
C53   C70   1.418513 A    
C72   C108  1.490713 S    
C38   C62   1.411112 A    
N16   O48   1.299785 A    
C105  O37   1.220924 D    
O6    Cu1   1.959983 S    
C75   C81   1.422264 A    
N12   O31   1.300956 A    
N13   O41   1.301031 A    
C78   N18   1.430159 S    
C46   C54   1.422310 A    
C77   C87   1.424131 A    
C29   C37   1.398713 A    
C42   C50   1.422675 A    
O3    C2    1.295049 A    
C106  O38   1.220902 D    
O14   C8    1.298839 A    
N13   O42   1.300849 A    
C20   C28   1.388256 A    
C104  H28   1.084515 S    
C82   C94   1.410139 A    
C32   C40   1.399983 A    
C74   C84   1.424202 A    
C77   N3    1.378970 A    
C33   C41   1.417127 A    
C41   C46   1.403853 A    
C38   C46   1.416949 A    
N14   O43   1.300139 A    
C35   C43   1.418463 A    
C93   C96   1.399374 A    
C65   C101  1.488037 S    
C36   C44   1.417317 A    
O13   Cu4   1.959986 S    
O11   Cu3   1.958246 S    
O14   Cu3   1.959983 S    
C15   C23   1.388730 A    
C10   C50   1.403421 A    
C59   C71   1.409585 A    
C61   C65   1.406917 A    
C39   C47   1.418158 A    
C24   C32   1.389358 A    
O16   Cu3   1.960402 S    
C95   H19   1.082061 S    
C108  H32   1.084324 S    
C103  O35   1.221035 D    
C27   C35   1.399958 A    
C25   C33   1.397851 A    
C80   C86   1.422277 A    
C83   C89   1.406610 A    
N8    O24   1.300896 A    
O8    Cu1   1.960402 S    
C100  H24   1.082060 S    
O1    C1    1.294543 A    
C87   C99   1.410056 A    
C31   H15   1.082132 S    
C15   H7    1.081432 S    
C88   C92   1.406570 A    
N15   O46   1.300858 A    
C21   C29   1.388334 A    
N9    O26   1.300983 A    
O13   C7    1.293675 A    
C9    C49   1.403320 A    
C101  O33   1.220891 D    
C97   C100  1.399267 A    
O8    C3    1.294174 A    
C27   H11   1.081521 S    
C78   C88   1.422256 A    
C84   C96   1.410066 A    
C74   N14   1.425142 S    
C107  H31   1.084516 S    
C30   C38   1.398586 A    
C44   C47   1.404194 A    
C64   C68   1.409580 A    
O3    Cu1   1.958246 S    
C13   C21   1.390561 A    
N11   O30   1.300913 A    
Cu4   N4    2.026172 S    
C45   C53   1.422698 A    
C57   N5    1.435195 S    
N11   O29   1.300964 A    
C9    H1    1.080755 S    
N16   O47   1.300006 A    
C73   C83   1.422175 A    
C29   H13   1.079700 S    
C34   C42   1.417214 A    
C85   C97   1.410095 A    
Cu1   Cu2   2.696763 S    
C62   C66   1.407018 A    
C63   N11   1.435061 S    
O12   C5    1.295057 A    
C58   C70   1.406768 A    
C80   N4    1.377567 A    
C83   C95   1.408100 A    
C106  H30   1.085362 S    
C1    C20   1.446584 S    
C60   C72   1.409076 A    
C33   C57   1.411013 A    
N19   O53   1.300118 A    
C107  O39   1.221058 D    
C76   C82   1.424042 A    
C3    C18   1.449461 S    
C94   H18   1.081851 S    
C5    C24   1.446795 S    
C35   C59   1.412134 A    
C85   C91   1.404355 A    
C60   N8    1.433660 S    
C6    C23   1.446473 S    
C86   C92   1.406500 A    
C15   C55   1.403331 A    
C26   C34   1.398580 A    
N17   O49   1.300156 A    
C79   N19   1.425397 S    
O2    Cu2   1.959075 S    
O15   C8    1.294141 A    
N18   O51   1.301034 A    
O7    Cu2   1.960399 S    
C40   C48   1.418481 A    
C43   C51   1.422491 A    
C25   H9    1.079074 S    
C55   C72   1.417759 A    
C22   C30   1.388598 A    
O5    C3    1.298778 A    
O4    C1    1.297010 A    
C13   C53   1.403334 A    
C102  H26   1.085402 S    
C12   H4    1.081412 S    
C75   N15   1.430168 S    
C14   C54   1.402308 A    
O16   C7    1.299346 A    
C79   N3    1.379216 A    
C12   C20   1.389466 A    
N8    O23   1.300562 A    
C37   C61   1.411122 A    
C16   C24   1.388487 A    
C31   C39   1.400236 A    
C17   C25   1.388742 A    
C91   C92   1.429465 A    
C108  O40   1.221013 D    
Cu3   Cu4   2.696763 S    
C52   C67   1.417411 A    
O9    Cu3   1.959075 S    
C19   C27   1.389328 A    
C89   C90   1.429439 A    
N6    O20   1.300283 A    
O10   Cu4   1.959075 S    
C28   C36   1.399492 A    
C43   C48   1.404098 A    
C86   C98   1.408260 A    
C42   C45   1.404304 A    
C69   C105  1.488362 S    
Cu2   N2    2.026172 S    
C81   C89   1.406452 A    
O2    C2    1.296631 A    
Cu1   N1    2.026172 S    
C63   C67   1.410227 A    
O4    Cu2   1.958246 S    
C73   N1    1.377394 A    
C16   H8    1.081428 S    
C94   C95   1.399156 A    
C57   C69   1.406049 A    
Cu3   N3    2.026172 S    
C103  H27   1.084437 S    
C48   C56   1.422505 A    
C59   N7    1.435362 S    
O6    C4    1.294494 A    
O11   C6    1.296502 A    
C64   N12   1.435351 S    
C36   C60   1.410307 A    
N20   O56   1.300857 A    
C75   N1    1.377596 A    
C41   C49   1.422553 A    
C87   C91   1.404422 A    
N5    O18   1.300917 A    
C77   N17   1.425149 S    
C88   C100  1.408188 A    
C76   N16   1.425363 S    
C96   H20   1.081855 S    
N5    O17   1.299609 A    
C84   C90   1.404417 A    
C76   N2    1.379334 A    
C4    C17   1.450381 S    
C40   C64   1.412181 A    
O9    C5    1.296663 A    
N20   O55   1.301027 A    
N12   O32   1.300865 A    
C98   H22   1.082057 S    
C11   H3    1.081445 S    
C79   C85   1.424102 A    
C102  O34   1.220895 D    
C14   H6    1.080953 S    
C34   C58   1.410956 A    
C11   C19   1.388456 A    
C66   C102  1.487984 S    
C44   C52   1.422389 A    
C71   C107  1.490697 S    
C68   C104  1.490677 S    
C104  O36   1.221056 D    
C18   C26   1.388295 A    
N19   O54   1.299632 A    
C98   C99   1.399334 A    
N18   O52   1.300844 A    
C56   C71   1.417031 A    
C67   C103  1.490585 S    
C51   C68   1.416973 A    
O15   Cu4   1.960399 S    
C62   N10   1.435864 S    
C16   C56   1.402975 A    
C47   C55   1.423165 A    
N6    O19   1.301229 A    
C32   H16   1.081511 S    
C10   H2    1.080819 S    
O7    C4    1.298950 A    
C9    C17   1.390953 A    
N7    O21   1.300956 A    
C30   H14   1.079002 S    
N17   O50   1.299388 A    
C61   N9    1.435778 S    
C93   H17   1.082056 S    
C13   H5    1.080830 S    
C81   C93   1.408284 A    
C50   C65   1.418518 A    
C80   N20   1.430169 S    
C82   C90   1.404242 A    
N14   O44   1.299394 A    
C78   N4    1.377480 A    
C49   C66   1.418664 A    
C11   C51   1.402958 A    
C37   C45   1.417226 A    
C28   H12   1.082168 S    
