data_mof_unit_67117.cif
_audit_creation_date              2013-03-05T15:58:41-0500
_audit_creation_method            fapswitch 2.2
_symmetry_space_group_name_H-M    P1
_symmetry_Int_Tables_number       1
_space_group_crystal_system       triclinic
_cell_length_a                    8.292794
_cell_length_b                    12.870662
_cell_length_c                    14.923336
_cell_angle_alpha                 96.968171
_cell_angle_beta                  98.107887
_cell_angle_gamma                 98.626992
_cell_volume                      1542.4560936

loop_
_atom_site_label
_atom_site_type_symbol
_atom_site_description
_atom_site_fract_x
_atom_site_fract_y
_atom_site_fract_z
_atom_type_partial_charge
P1    P     P_3+3 0.998770 0.403620 0.291990 0.527957
O1    O     O_2   0.827930 0.435360 0.277760 -0.324374
O2    O     O_3   0.100310 0.439010 0.391180 -0.400939
O3    O     O_3   0.625610 0.634200 0.333270 -0.331923
O4    O     O_2   0.703177 0.550592 0.176041 -0.377187
O5    O     O_3   0.956999 0.265527 0.265018 -0.593577
O6    O     O_3   0.645822 0.743485 0.180629 -0.605848
C1    C     C_3   0.554352 0.910494 0.165952 -0.471811
H1    H     H_    0.483432 0.967532 0.197892 0.193324
H2    H     H_    0.681128 0.952979 0.168043 0.204335
P2    P     P_3+3 0.687370 0.751000 0.571300 0.464956
P3    P     P_3+3 0.109589 0.828001 0.380168 0.592214
O7    O     O_2   0.857120 0.766320 0.543890 -0.310926
O8    O     O_3   0.056570 0.691100 0.379020 -0.323666
O9    O     O_2   0.026714 0.879749 0.456211 -0.254485
O10   O     O_3   0.721622 0.799873 0.688768 -0.618618
O11   O     O_3   0.005898 0.863602 0.280293 -0.452359
C2    C     C_3   0.096597 0.849642 0.207956 0.704951
H3    H     H_    0.230956 0.872187 0.232218 0.045929
C3    C     C_3   0.053661 0.923690 0.138967 -1.016709
H4    H     H_    0.918493 0.910373 0.114603 0.273799
H5    H     H_    0.096319 0.007640 0.170514 0.220533
C4    C     C_3   0.283362 0.783902 0.668335 1.167056
H6    H     H_    0.409280 0.768122 0.662965 -0.014705
C5    C     C_3   0.283941 0.899982 0.699653 -0.499354
H7    H     H_    0.331427 0.918090 0.774068 0.179878
H8    H     H_    0.156543 0.917617 0.686539 0.226114
Ba1   Ba    Ba6+2 0.843760 0.550230 0.455610 1.618249
C6    C     C_3   0.929703 0.217038 0.341520 0.083798
H9    H     H_    0.800901 0.218940 0.351635 0.115894
H10   H     H_    0.016574 0.254253 0.404723 0.135260
C7    C     C_3   0.954084 0.102757 0.320212 0.425700
H11   H     H_    0.889409 0.069165 0.250504 0.080826
H12   H     H_    0.087608 0.099639 0.323439 0.059010
C8    C     C_3   0.820444 0.743924 0.742186 0.703126
H13   H     H_    0.899097 0.700210 0.702472 0.119829
C9    C     C_3   0.931379 0.823775 0.818461 -1.000372
H14   H     H_    0.992649 0.891015 0.789375 0.226213
H15   H     H_    0.026545 0.785472 0.855704 0.243219
H16   H     H_    0.856852 0.856208 0.868021 0.254180
P4    P     P_3+3 0.190950 0.596470 0.708020 0.476499
O12   O     O_2   0.361790 0.564680 0.722290 -0.383070
O13   O     O_3   0.089410 0.561080 0.608830 -0.333158
O14   O     O_3   0.564100 0.365890 0.666740 -0.354939
O15   O     O_3   0.224355 0.732752 0.736591 -0.695624
P5    P     P_3+3 0.092163 0.170485 0.621480 0.466821
O16   O     O_3   0.601940 0.368260 0.453780 -0.389524
O17   O     O_3   0.133140 0.308990 0.620990 -0.362520
O18   O     O_2   0.198607 0.124900 0.554894 -0.343251
O19   O     O_3   0.188741 0.140568 0.726477 -0.539892
Ba2   Ba    Ba6+2 0.346080 0.449860 0.544400 1.582574
P6    P     P_3+3 0.584180 0.619641 0.214095 0.491197
C10   C     C_3   0.559934 0.817700 0.221134 1.525443
H17   H     H_    0.431197 0.781846 0.224850 -0.478991
O20   O     O_3   0.587770 0.631830 0.546230 -0.395439
C11   C     C_3   0.400869 0.281725 0.266567 0.332346
H18   H     H_    0.278538 0.287784 0.286425 0.076124
H19   H     H_    0.484726 0.359422 0.288283 0.120272
C12   C     C_3   0.379081 0.255156 0.162527 -0.494963
H20   H     H_    0.306739 0.173928 0.140695 0.232468
H21   H     H_    0.309469 0.311878 0.130155 0.188418
P7    P     P_3+3 0.506534 0.233334 0.424657 0.424934
O21   O     O_2   0.332600 0.233710 0.456170 -0.371445
O22   O     O_3   0.465001 0.199738 0.305645 -0.594022
H22   H     H_    0.116731 0.909217 0.078937 0.242271
C13   C     C_3   0.101734 0.161694 0.799323 0.460986
H23   H     H_    0.972534 0.122586 0.779309 -0.027377
C14   C     C_3   0.174283 0.112027 0.881957 0.730151
H24   H     H_    0.201393 0.032854 0.857563 0.029516
P8    P     P_3+3 0.605990 0.386234 0.786718 0.480021
C15   C     C_3   0.665889 0.203012 0.824022 0.792456
H25   H     H_    0.783905 0.245469 0.865592 0.034985
O23   O     O_2   0.490839 0.458192 0.823666 -0.380700
O24   O     O_3   0.542135 0.266446 0.826242 -0.451208
H26   H     H_    0.694166 0.043689 0.854733 0.198806
C16   C     C_3   0.616704 0.104831 0.868729 -0.856491
H27   H     H_    0.487429 0.069015 0.841784 0.279501
H28   H     H_    0.630035 0.126973 0.943908 0.247819
C17   C     C_R   0.365976 0.558876 0.170046 0.196591
H29   H     H_    0.328280 0.527653 0.304686 0.201801
H30   H     H_    0.508701 0.635727 0.033519 0.167347
C18   C     C_R   0.110885 0.466275 0.206497 0.184802
C19   C     C_R   0.919705 0.482383 0.765852 -0.488513
C20   C     C_R   0.821089 0.447467 0.828137 0.170933
C21   C     C_R   0.882762 0.461488 0.921106 -0.297071
C22   C     C_R   0.050985 0.501776 0.954241 0.103223
C23   C     C_R   0.148268 0.545510 0.890999 -0.003358
C24   C     C_R   0.124432 0.502103 0.048003 -0.141718
C25   C     C_R   0.292038 0.552655 0.077448 -0.046061
C26   C     C_R   0.381149 0.598247 0.014519 -0.146072
C27   C     C_R   0.309480 0.597763 0.924718 -0.112648
C28   C     C_R   0.040427 0.452102 0.113398 0.595676
C29   C     C_R   0.272395 0.520042 0.233662 -0.620816
C30   C     C_R   0.081289 0.534983 0.795564 0.241564
H31   H     H_    0.867426 0.472599 0.694085 0.177113
H32   H     H_    0.794760 0.440893 0.965088 0.233078
H33   H     H_    0.384381 0.638224 0.881990 0.163477
C31   C     C_R   0.776709 0.176437 0.528941 -0.419299
C32   C     C_R   0.430473 0.806645 0.453618 -0.277563
C33   C     C_R   0.400618 0.981815 0.417650 -0.265468
C34   C     C_R   0.334624 0.874539 0.413638 0.127319
C35   C     C_R   0.588135 0.845163 0.504195 0.265155
C36   C     C_R   0.655861 0.956170 0.511277 0.048297
C37   C     C_R   0.558991 0.025054 0.467570 0.061637
C38   C     C_R   0.619343 0.136357 0.479363 0.242058
C39   C     C_R   0.875868 0.110539 0.569191 0.261172
C40   C     C_R   0.814079 0.001516 0.562630 -0.135634
H34   H     H_    0.321782 0.031923 0.387309 0.168486
H35   H     H_    0.891356 0.954095 0.597891 0.151418
H36   H     H_    0.824434 0.260415 0.534729 0.147857
H37   H     H_    0.376018 0.724446 0.451925 0.162165
F1    F     F_    0.642457 0.857072 0.308460 -0.676791
C41   C     C_3   0.391273 0.969230 0.651001 -0.950222
H38   H     H_    0.517548 0.950211 0.660398 0.238988
H39   H     H_    0.334642 0.959293 0.578982 0.298374
H40   H     H_    0.394630 0.051341 0.680385 0.337049
F2    F     F_    0.891055 0.042122 0.380961 -0.645833
C42   C     C_3   0.707806 0.667879 0.785298 -0.874383
H41   H     H_    0.657402 0.597265 0.733620 0.266314
H42   H     H_    0.775671 0.644410 0.846971 0.210703
H43   H     H_    0.605774 0.706457 0.807103 0.244057
C43   C     C_3   0.476525 0.874949 0.065837 -1.009279
H44   H     H_    0.458857 0.945763 0.032132 0.290327
H45   H     H_    0.558797 0.830663 0.029271 0.274485
H46   H     H_    0.354695 0.823684 0.060347 0.264203
C44   C     C_3   0.546137 0.261046 0.129952 -0.562946
H47   H     H_    0.613214 0.343696 0.145219 0.284411
H48   H     H_    0.621395 0.207602 0.163257 0.248099
H49   H     H_    0.528891 0.237471 0.055225 0.284170
C45   C     C_3   0.116672 0.281380 0.826982 -0.713724
H50   H     H_    0.047317 0.314933 0.772786 0.190572
H51   H     H_    0.067008 0.299386 0.890831 0.184769
H52   H     H_    0.247242 0.320725 0.837674 0.315321
F3    F     F_    0.320006 0.174486 0.926380 -0.686618
C46   C     C_3   0.057881 0.096987 0.951873 -1.100766
H53   H     H_    0.122409 0.066885 0.010899 0.281688
H54   H     H_    0.019535 0.172383 0.977780 0.282874
H55   H     H_    0.947553 0.037484 0.921751 0.226287
C47   C     C_3   0.690615 0.171660 0.725520 -1.035277
H56   H     H_    0.793381 0.228681 0.710765 0.196850
H57   H     H_    0.717870 0.090265 0.713779 0.220775
H58   H     H_    0.582020 0.177703 0.675549 0.294428
C48   C     C_3   0.055006 0.734806 0.160048 -0.830049
H59   H     H_    0.087704 0.680347 0.208771 0.225927
H60   H     H_    0.921544 0.713080 0.131830 0.283705
H61   H     H_    0.125572 0.724271 0.102853 0.192460
F4    F     F_    0.896993 0.382509 0.088116 -0.722553
F5    F     F_    0.181002 0.753488 0.584762 -0.675828

loop_
_geom_bond_atom_site_label_1
_geom_bond_atom_site_label_2
_geom_bond_distance
_ccdc_geom_bond_type
C46   H55   1.102688 S    
C13   C14   1.545555 S    
Ba1   O16   2.840345 S    
C44   H47   1.104920 S    
C4    O15   1.384582 S    
C23   C27   1.396856 A    
C48   H61   1.107240 S    
P4    O13   1.573977 S    
P4    O12   1.526387 D    
P1    O1    1.526089 D    
C8    H13   1.109715 S    
C7    F2    1.373706 S    
C1    C43   1.526956 S    
O16   P7    1.771516 S    
C46   H53   1.106537 S    
P7    C38   1.865927 S    
C21   C22   1.409156 A    
C12   C44   1.526004 S    
P5    O18   1.540187 D    
C9    H14   1.103163 S    
C31   C38   1.396291 A    
O3    P6    1.744599 S    
C31   H36   1.082459 S    
O2    Ba1   2.942222 S    
C8    C9    1.528191 S    
C16   H28   1.109113 S    
O6    P6    1.752764 S    
C17   C29   1.399975 A    
C6    C7    1.516352 S    
O10   C8    1.399164 S    
C15   C16   1.528076 S    
Ba1   Ba2   4.562500 S    
C22   C24   1.444388 A    
P2    O7    1.512135 D    
C39   C40   1.406379 A    
C48   H59   1.103884 S    
C23   C30   1.436202 A    
C33   C37   1.412001 A    
C18   C28   1.408021 A    
C11   H18   1.107234 S    
C46   H54   1.108385 S    
C2    H3    1.104754 S    
C42   H41   1.104772 S    
P7    O22   1.748254 S    
C20   C21   1.389404 A    
H29   C29   1.081869 S    
O17   Ba2   2.797072 S    
C24   C28   1.435800 A    
C1    H1    1.111635 S    
P3    O11   1.758763 S    
P8    O24   1.751891 S    
P1    Ba1   3.416193 S    
C4    H6    1.105142 S    
C11   O22   1.402366 S    
O7    Ba1   2.908683 S    
O14   P8    1.754579 S    
P6    C17   1.852919 S    
P8    C20   1.825944 S    
C2    C3    1.526927 S    
O12   Ba2   2.853274 S    
C41   H40   1.088673 S    
C13   H23   1.096354 S    
C19   H31   1.082028 S    
C12   H20   1.110452 S    
C18   C29   1.392065 A    
C28   F4    1.353245 S    
C40   H35   1.077143 S    
C37   C38   1.425667 A    
O3    Ba1   2.812058 S    
Ba1   O20   2.927886 S    
C9    H15   1.110962 S    
P5    O17   1.765077 S    
C33   H34   1.078061 S    
C12   H21   1.110382 S    
P1    O5    1.744526 S    
C3    H22   1.109827 S    
Ba2   O21   2.908962 S    
C16   H27   1.099388 S    
O2    Ba2   2.815023 S    
C22   C23   1.437306 A    
C14   H24   1.106007 S    
C15   C47   1.526965 S    
C44   H49   1.102750 S    
C5    H7    1.108583 S    
C10   H17   1.109453 S    
C19   C30   1.392085 A    
C47   H58   1.103997 S    
P1    O2    1.573976 S    
C42   H43   1.110348 S    
C7    H12   1.108503 S    
C45   H51   1.103175 S    
H26   C16   1.106865 S    
P7    O21   1.579429 D    
C5    C41   1.488312 S    
P2    O10   1.757221 S    
C19   C20   1.392918 A    
P3    O9    1.541957 D    
C32   H37   1.082030 S    
C32   C35   1.400466 A    
P8    O23   1.537402 D    
O11   C2    1.409211 S    
O4    P6    1.544285 D    
C27   H33   1.076487 S    
O19   C13   1.408803 S    
H30   C26   1.077540 S    
O14   Ba2   2.811403 S    
C32   C34   1.397317 A    
C3    H5    1.108680 S    
C45   H52   1.105216 S    
C5    H8    1.109221 S    
O6    C10   1.403758 S    
C43   H45   1.111022 S    
C9    H16   1.111154 S    
P2    O20   1.602579 S    
C10   F1    1.381164 S    
C41   H38   1.104521 S    
C48   H60   1.107962 S    
C2    C48   1.528311 S    
C44   H48   1.110824 S    
C3    H4    1.109193 S    
C14   C46   1.528046 S    
P3    O8    1.748266 S    
C1    C10   1.533352 S    
C15   O24   1.405452 S    
O16   Ba2   2.926976 S    
C47   H56   1.103571 S    
P4    C30   1.878882 S    
C4    F5    1.382928 S    
P5    O19   1.769125 S    
Ba1   O13   2.814423 S    
C31   C39   1.396380 A    
C11   C12   1.527658 S    
C7    H11   1.104845 S    
C43   H46   1.107406 S    
C14   F3    1.378169 S    
C45   H50   1.095208 S    
P1    C18   1.871308 S    
C15   H25   1.107843 S    
C6    H10   1.110505 S    
C47   H57   1.103147 S    
O13   Ba2   2.943057 S    
C26   C27   1.386159 A    
C41   H39   1.094669 S    
P2    Ba1   3.448840 S    
P5    C39   1.861578 S    
C33   C34   1.397661 A    
C21   H32   1.073755 S    
C11   H19   1.112572 S    
P2    C35   1.873528 S    
Ba2   O20   2.839717 S    
C4    C5    1.509429 S    
C35   C36   1.440057 A    
C42   H42   1.107866 S    
C17   C25   1.418220 A    
O1    Ba1   2.852856 S    
C6    H9    1.103049 S    
P3    C34   1.849321 S    
O5    C6    1.395527 S    
C24   C25   1.426657 A    
C1    H2    1.104270 S    
C36   C37   1.436297 A    
C43   H44   1.111602 S    
P4    O15   1.724718 S    
C8    C42   1.514084 S    
C36   C40   1.423934 A    
O8    Ba1   2.796435 S    
C25   C26   1.404186 A    
P4    Ba2   3.416748 S    
C13   C45   1.527326 S    
