data_mof_unit_51161.cif
_audit_creation_date              2012-12-11T15:57:09-0500
_audit_creation_method            fapswitch 2.2
_symmetry_space_group_name_H-M    P1
_symmetry_Int_Tables_number       1
_space_group_crystal_system       triclinic
_cell_length_a                    17.412881
_cell_length_b                    24.395882
_cell_length_c                    14.945937
_cell_angle_alpha                 90.035617
_cell_angle_beta                  125.980015
_cell_angle_gamma                 90.043049
_cell_volume                      5137.80325607

loop_
_atom_site_label
_atom_site_type_symbol
_atom_type_description
_atom_site_fract_x
_atom_site_fract_y
_atom_site_fract_z
_atom_type_partial_charge
C1    C     C_R   0.307788 0.122398 0.906193 -0.128168
C2    C     C_R   0.556808 0.151766 0.907771 -0.116446
C3    C     C_R   0.809566 0.365199 0.998234 0.005822
C4    C     C_R   0.566712 0.000069 0.368771 -0.003865
C5    C     C_R   0.066714 0.500070 0.368771 -0.003870
C6    C     C_R   0.192370 0.999443 0.635981 0.039511
C7    C     C_R   0.692357 0.499445 0.635991 0.039522
C8    C     C_R   0.521352 0.045938 0.753761 -0.136529
C9    C     C_R   0.521352 0.954109 0.753732 -0.136272
C10   C     C_R   0.021350 0.545938 0.753760 -0.136533
C11   C     C_R   0.021350 0.454110 0.753729 -0.136268
C12   C     C_R   0.769750 0.954177 0.249122 -0.137758
C13   C     C_R   0.057029 0.348306 0.907620 -0.116786
C14   C     C_R   0.769488 0.046388 0.249827 -0.124449
C15   C     C_R   0.269748 0.454176 0.249110 -0.137725
C16   C     C_R   0.269487 0.546386 0.249813 -0.124469
C17   C     C_R   0.056805 0.651767 0.907771 -0.116447
C18   C     C_R   0.552202 0.000041 0.728214 -0.004335
C19   C     C_R   0.052199 0.500043 0.728211 -0.004334
C20   C     C_R   0.824664 0.000516 0.274449 0.027306
C21   C     C_R   0.324660 0.500514 0.274422 0.027287
C22   C     C_R   0.623358 0.181783 0.998417 -0.000623
C23   C     C_R   0.623781 0.818421 0.998220 -0.000459
C24   C     C_R   0.123355 0.681785 0.998417 -0.000624
C25   C     C_R   0.307746 0.877550 0.906287 -0.127911
C26   C     C_R   0.123783 0.318422 0.998219 -0.000456
C27   C     C_3   0.035680 0.948697 0.484342 -0.162900
C28   C     C_3   0.022297 0.034203 0.519905 -0.146907
C29   C     C_3   0.535623 0.448715 0.484445 -0.162888
C30   C     C_3   0.522304 0.534270 0.519824 -0.146962
C31   C     C_3   0.957268 0.983855 0.472858 -0.138824
C32   C     C_3   0.457234 0.483937 0.472871 -0.138787
C33   C     C_3   0.925911 0.000792 0.357139 0.180498
C34   C     C_3   0.425906 0.500789 0.357123 0.180494
C35   C     C_3   0.003313 0.965575 0.367305 -0.156727
C36   C     C_R   0.807789 0.622399 0.906194 -0.128165
C37   C     C_3   0.990538 0.051309 0.403642 -0.159293
C38   C     C_3   0.503288 0.465509 0.367380 -0.156744
C39   C     C_3   0.490573 0.551291 0.403529 -0.159295
C40   C     C_3   0.070539 0.016217 0.416293 -0.149300
C41   C     C_3   0.570554 0.516135 0.416271 -0.149267
C42   C     C_R   0.399740 0.877981 0.091563 -0.144334
C43   C     C_R   0.399753 0.122134 0.091513 -0.144365
C44   C     C_R   0.899740 0.377981 0.091563 -0.144335
C45   C     C_R   0.899754 0.622135 0.091514 -0.144365
C46   C     C_3   0.100319 0.999163 0.531141 0.181348
C47   C     C_R   0.807747 0.377550 0.906287 -0.127906
C48   C     C_3   0.600304 0.499166 0.531148 0.181343
C49   C     C_3   0.245947 0.822166 0.095720 -0.415303
C50   C     C_3   0.245575 0.177980 0.095094 -0.415190
C51   C     C_3   0.745948 0.322165 0.095719 -0.415305
C52   C     C_3   0.745585 0.677983 0.095105 -0.415195
C53   C     C_3   0.682643 0.274263 0.084533 -0.449404
C54   C     C_3   0.682434 0.725918 0.083888 -0.449095
C55   C     C_3   0.182642 0.774264 0.084534 -0.449404
C56   C     C_3   0.182428 0.225917 0.083879 -0.449092
C57   C     C_3   0.808477 0.266472 0.008317 -0.378840
C58   C     C_R   0.653347 0.151001 0.091364 -0.146091
C59   C     C_3   0.809070 0.733680 0.008785 -0.378372
C60   C     C_3   0.308474 0.766472 0.008316 -0.378839
C61   C     C_3   0.309076 0.233680 0.008795 -0.378366
C62   C     C_3   0.150388 0.818217 0.890198 -0.443989
C63   C     C_3   0.150750 0.182037 0.889640 -0.445736
C64   C     C_3   0.650390 0.318215 0.890197 -0.443993
C65   C     C_3   0.650746 0.682033 0.889649 -0.445729
C66   C     C_3   0.253991 0.819717 0.997768 0.370693
C67   C     C_3   0.254156 0.180451 0.997568 0.371487
C68   C     C_3   0.753992 0.319716 0.997768 0.370694
C69   C     C_R   0.653579 0.849160 0.091269 -0.145797
C70   C     C_3   0.754156 0.680450 0.997570 0.371490
C71   C     C_3   0.667142 0.232609 0.995710 0.320613
C72   C     C_3   0.667500 0.767595 0.995500 0.320659
C73   C     C_3   0.167139 0.732610 0.995710 0.320611
C74   C     C_3   0.167502 0.267596 0.995499 0.320659
C75   C     C_3   0.765168 0.216792 0.024754 -0.370458
C76   C     C_3   0.765789 0.783382 0.025150 -0.371531
C77   C     C_3   0.265164 0.716793 0.024753 -0.370457
C78   C     C_3   0.265794 0.283382 0.025157 -0.371535
C79   C     C_3   0.607061 0.261594 0.879281 0.050462
C80   C     C_R   0.153345 0.651002 0.091364 -0.146095
C81   C     C_3   0.607602 0.738641 0.878914 0.051544
C82   C     C_3   0.107058 0.761596 0.879281 0.050464
C83   C     C_3   0.107607 0.238645 0.878909 0.051546
C84   C     C_3   0.619291 0.051511 0.642989 -0.379934
C85   C     C_3   0.619241 0.948670 0.642851 -0.379607
C86   C     C_3   0.119255 0.551526 0.642962 -0.379926
C87   C     C_3   0.119273 0.448684 0.642874 -0.379603
C88   C     C_R   0.549602 0.045593 0.305125 -0.147651
C89   C     C_R   0.549661 0.954496 0.305132 -0.148731
C90   C     C_R   0.049603 0.545593 0.305124 -0.147652
C91   C     C_R   0.153581 0.349160 0.091268 -0.145805
C92   C     C_R   0.049663 0.454497 0.305134 -0.148732
C93   C     C_3   0.622772 0.051616 0.542484 -0.399050
C94   C     C_3   0.622675 0.948569 0.542315 -0.399247
C95   C     C_3   0.122744 0.551628 0.542464 -0.399059
C96   C     C_3   0.122703 0.448581 0.542334 -0.399244
C97   C     C_3   0.463052 0.999988 0.529535 -0.389960
C98   C     C_3   0.963051 0.499967 0.529533 -0.389967
C99   C     C_3   0.564698 0.000052 0.639093 0.360663
C100  C     C_3   0.064697 0.500054 0.639091 0.360656
C101  C     C_3   0.571161 0.000072 0.469865 0.382574
C102  C     C_R   0.557028 0.848305 0.907621 -0.116794
C103  C     C_3   0.071161 0.500074 0.469864 0.382573
C104  C     C_3   0.466940 0.000020 0.430641 -0.392486
C105  C     C_3   0.966941 0.500003 0.430640 -0.392479
C106  C     C_R   0.240723 0.953841 0.696260 -0.144791
C107  C     C_R   0.240847 0.045507 0.695254 -0.157355
C108  C     C_R   0.740715 0.453842 0.696265 -0.144819
C109  C     C_R   0.740841 0.545508 0.695260 -0.157339
C110  C     C_R   0.309630 0.134913 0.998113 0.005166
C111  C     C_R   0.309566 0.865200 0.998234 0.005822
C112  C     C_R   0.809631 0.634913 0.998114 0.005169
H1    H     H_    0.252841 0.130180 0.820339 0.103876
H2    H     H_    0.970403 0.093269 0.368439 0.109652
H3    H     H_    0.792616 0.088568 0.266938 0.094253
H4    H     H_    0.293690 0.412159 0.266029 0.101323
H5    H     H_    0.292619 0.588566 0.266926 0.094276
H6    H     H_    0.698613 0.164170 0.176575 0.088151
H7    H     H_    0.698939 0.836082 0.176467 0.088502
H8    H     H_    0.198611 0.664170 0.176575 0.088154
H9    H     H_    0.198940 0.336082 0.176466 0.088503
H10   H     H_    0.507835 0.834472 0.823579 0.130272
H11   H     H_    0.507476 0.165538 0.823802 0.130554
H12   H     H_    0.007836 0.334473 0.823579 0.130268
H13   H     H_    0.492568 0.437667 0.302144 0.111643
H14   H     H_    0.007472 0.665539 0.823803 0.130554
H15   H     H_    0.909326 0.970670 0.495007 0.115428
H16   H     H_    0.409270 0.470820 0.495032 0.115426
H17   H     H_    0.470468 0.593234 0.368230 0.109651
H18   H     H_    0.120144 0.029314 0.396652 0.110813
H19   H     H_    0.620178 0.529165 0.396616 0.110807
H20   H     H_    0.317122 0.818236 0.175879 0.162471
H21   H     H_    0.316630 0.181833 0.175484 0.162441
H22   H     H_    0.817122 0.318236 0.175879 0.162471
H23   H     H_    0.816644 0.681841 0.175490 0.162443
H24   H     H_    0.215102 0.861946 0.096433 0.157637
H25   H     H_    0.252818 0.869449 0.820541 0.104056
H26   H     H_    0.214339 0.138216 0.095282 0.157532
H27   H     H_    0.715101 0.361945 0.096431 0.157638
H28   H     H_    0.714359 0.638217 0.095305 0.157533
H29   H     H_    0.112850 0.790267 0.059722 0.161808
H30   H     H_    0.112442 0.209946 0.058641 0.161836
H31   H     H_    0.612851 0.290264 0.059720 0.161809
H32   H     H_    0.612451 0.709944 0.058655 0.161836
H33   H     H_    0.717527 0.254922 0.167007 0.164852
H34   H     H_    0.717186 0.745242 0.166444 0.164941
H35   H     H_    0.217525 0.754924 0.167008 0.164853
H36   H     H_    0.752843 0.630185 0.820341 0.103875
H37   H     H_    0.217180 0.245240 0.166437 0.164940
H38   H     H_    0.884787 0.268806 0.079537 0.148342
H39   H     H_    0.885266 0.731320 0.080272 0.148139
H40   H     H_    0.384784 0.768806 0.079535 0.148341
H41   H     H_    0.385270 0.231317 0.080289 0.148138
H42   H     H_    0.812792 0.203097 0.112472 0.153072
H43   H     H_    0.813226 0.797079 0.112958 0.153442
H44   H     H_    0.312789 0.703098 0.112471 0.153068
H45   H     H_    0.313228 0.297078 0.112966 0.153437
H46   H     H_    0.144564 0.826984 0.814076 0.182981
H47   H     H_    0.752819 0.369448 0.820542 0.104050
H48   H     H_    0.145284 0.173403 0.813681 0.182612
H49   H     H_    0.644566 0.326983 0.814075 0.182978
H50   H     H_    0.645271 0.673393 0.813686 0.182605
H51   H     H_    0.428041 0.870102 0.176746 0.094087
H52   H     H_    0.428020 0.130077 0.176702 0.093999
H53   H     H_    0.928041 0.370103 0.176746 0.094087
H54   H     H_    0.928021 0.630077 0.176703 0.093999
H55   H     H_    0.107305 0.850471 0.894249 0.147299
H56   H     H_    0.107304 0.149746 0.893041 0.146853
H57   H     H_    0.607306 0.350469 0.894247 0.147301
H58   H     H_    0.054955 0.906565 0.518761 0.117416
H59   H     H_    0.607306 0.649743 0.893064 0.146855
H60   H     H_    0.032715 0.767217 0.851731 0.102847
H61   H     H_    0.033152 0.232992 0.851010 0.102433
H62   H     H_    0.532718 0.267215 0.851730 0.102848
H63   H     H_    0.533149 0.732988 0.851019 0.102433
H64   H     H_    0.805748 0.260737 0.932602 0.192630
H65   H     H_    0.806748 0.739413 0.933347 0.192604
H66   H     H_    0.305745 0.760737 0.932601 0.192630
H67   H     H_    0.306764 0.239414 0.933364 0.192599
H68   H     H_    0.760088 0.182141 0.973045 0.188502
H69   H     H_    0.031563 0.062128 0.584327 0.116824
H70   H     H_    0.761114 0.818030 0.973762 0.188260
H71   H     H_    0.260084 0.682142 0.973043 0.188501
H72   H     H_    0.261124 0.318030 0.973773 0.188263
H73   H     H_    0.583972 0.089891 0.640609 0.182813
H74   H     H_    0.583904 0.910245 0.640408 0.182829
H75   H     H_    0.083904 0.589898 0.640552 0.182808
H76   H     H_    0.083966 0.410251 0.640458 0.182836
H77   H     H_    0.692571 0.051865 0.720883 0.162760
H78   H     H_    0.692532 0.948420 0.720724 0.162818
H79   H     H_    0.192532 0.551900 0.720859 0.162772
H80   H     H_    0.554861 0.406600 0.518957 0.117426
H81   H     H_    0.192567 0.448454 0.720745 0.162811
H82   H     H_    0.697797 0.052327 0.570629 0.157530
H83   H     H_    0.697687 0.947912 0.570417 0.156985
H84   H     H_    0.197771 0.552351 0.570613 0.157534
H85   H     H_    0.197715 0.447937 0.570432 0.156978
H86   H     H_    0.588207 0.089832 0.495069 0.159478
H87   H     H_    0.588003 0.910321 0.494788 0.159570
H88   H     H_    0.088163 0.589838 0.495033 0.159474
H89   H     H_    0.088050 0.410327 0.494822 0.159576
H90   H     H_    0.422945 0.036719 0.525034 0.160763
H91   H     H_    0.531584 0.562250 0.584183 0.116834
H92   H     H_    0.422941 0.963182 0.524907 0.161368
H93   H     H_    0.922918 0.536688 0.525017 0.160759
H94   H     H_    0.922968 0.463151 0.524919 0.161371
H95   H     H_    0.562801 0.087963 0.331026 0.089515
H96   H     H_    0.562956 0.912161 0.331038 0.089502
H97   H     H_    0.062804 0.587964 0.331023 0.089516
H98   H     H_    0.062957 0.412162 0.331042 0.089503
H99   H     H_    0.428993 0.036810 0.378871 0.157094
H100  H     H_    0.428903 0.963215 0.378680 0.157267
H101  H     H_    0.928976 0.536788 0.378861 0.157096
H102  H     H_    0.992605 0.937789 0.302005 0.111647
H103  H     H_    0.928923 0.463193 0.378688 0.157265
H104  H     H_    0.227144 0.911918 0.667199 0.095916
H105  H     H_    0.226393 0.087261 0.665300 0.103739
H106  H     H_    0.727133 0.411920 0.667199 0.095929
H107  H     H_    0.726388 0.587262 0.665305 0.103727
H108  H     H_    0.526983 0.088396 0.738452 0.128372
H109  H     H_    0.526989 0.911654 0.738377 0.128286
H110  H     H_    0.026985 0.588397 0.738458 0.128374
H111  H     H_    0.026986 0.411655 0.738370 0.128288
H112  H     H_    0.793692 0.912159 0.266039 0.101327
I1    I     I_    0.600134 0.218401 0.746131 -0.585440
I2    I     I_    0.601323 0.781977 0.746416 -0.584352
I3    I     I_    0.100129 0.718403 0.746131 -0.585437
I4    I     I_    0.101336 0.281986 0.746421 -0.584350
N1    N     N_R   0.392450 0.103580 0.942190 -0.039946
N2    N     N_R   0.525490 0.971610 0.207550 -0.031971
N3    N     N_R   0.025490 0.528390 0.207550 -0.032139
N4    N     N_R   0.025490 0.471610 0.207550 -0.031971
N5    N     N_R   0.317450 0.971190 0.792000 -0.036556
N6    N     N_R   0.317450 0.028810 0.792000 -0.036175
N7    N     N_R   0.817450 0.471190 0.792000 -0.036553
N8    N     N_R   0.817450 0.528810 0.792000 -0.036173
N9    N     N_R   0.473900 0.028390 0.792280 -0.038517
N10   N     N_R   0.473900 0.971610 0.792280 -0.038674
N11   N     N_R   0.973900 0.528390 0.792280 -0.038518
N12   N     N_R   0.392450 0.896420 0.942190 -0.040379
N13   N     N_R   0.973900 0.471610 0.792280 -0.038674
N14   N     N_R   0.682310 0.971180 0.208170 -0.039360
N15   N     N_R   0.682310 0.028820 0.208170 -0.039550
N16   N     N_R   0.182310 0.471180 0.208170 -0.039364
N17   N     N_R   0.182310 0.528820 0.208170 -0.039553
N18   N     N_R   0.606470 0.103570 0.057210 -0.034350
N19   N     N_R   0.606470 0.896430 0.057210 -0.033950
N20   N     N_R   0.106470 0.603570 0.057210 -0.034349
N21   N     N_R   0.106470 0.396430 0.057210 -0.033950
N22   N     N_R   0.549740 0.896000 0.943240 -0.038205
N23   N     N_R   0.892450 0.603580 0.942190 -0.039946
N24   N     N_R   0.549740 0.104000 0.943240 -0.038168
N25   N     N_R   0.049740 0.396000 0.943240 -0.038204
N26   N     N_R   0.049740 0.604000 0.943240 -0.038168
N27   N     N_R   0.892450 0.396420 0.942190 -0.040379
N28   N     N_R   0.450490 0.896000 0.057360 -0.038152
N29   N     N_R   0.450490 0.104000 0.057360 -0.038149
N30   N     N_R   0.950490 0.396000 0.057360 -0.038153
N31   N     N_R   0.950490 0.604000 0.057360 -0.038148
N32   N     N_R   0.525490 0.028390 0.207550 -0.032139
Ni1   Ni    Ni4+2 0.433780 0.065390 0.868430 0.214947
Ni2   Ni    Ni4+2 0.433780 0.934610 0.868430 0.215009
Ni3   Ni    Ni4+2 0.933780 0.565390 0.868430 0.214949
Ni4   Ni    Ni4+2 0.933780 0.434610 0.868430 0.215011
Ni5   Ni    Ni4+2 0.565800 0.934190 0.131570 0.209498
Ni6   Ni    Ni4+2 0.565800 0.065810 0.131570 0.210102
Ni7   Ni    Ni4+2 0.065800 0.434190 0.131570 0.209499
Ni8   Ni    Ni4+2 0.065800 0.565810 0.131570 0.210101

loop_
_geom_bond_atom_site_label_1
_geom_bond_atom_site_label_2
_ccdc_geom_bond_type
C54   H32   S    
N28   Ni5   S    
C80   H8    S    
N21   N25   A    
C16   C21   A    
C105  H103  S    
C106  N5    A    
C23   C69   A    
C92   H98   S    
C3    C68   S    
N15   Ni6   S    
C31   H15   S    
C97   H90   S    
C72   C76   S    
C17   H14   S    
C5    C103  S    
C45   C112  A    
C96   H89   S    
C39   C41   S    
N18   N24   A    
C8    N9    A    
C40   C46   S    
C30   H91   S    
C11   C19   A    
C86   H79   S    
C95   H84   S    
C98   C105  S    
C65   H59   S    
C55   H29   S    
C81   H63   S    
C30   C48   S    
C10   C19   A    
C87   C100  S    
C29   C32   S    
C77   H44   S    
C91   N21   A    
C51   H22   S    
N20   N26   A    
C24   C73   S    
C23   C102  A    
C92   N4    A    
C60   H66   S    
C14   H3    S    
C58   H6    S    
C36   N23   A    
N16   N17   A    
C94   H87   S    
C60   H40   S    
N14   Ni5   S    
C64   H57   S    
C9    H109  S    
C12   H112  S    
N31   Ni8   S    
C67   C110  S    
N23   N31   A    
C4    C88   A    
C107  H105  S    
C88   N32   A    
C65   C81   S    
C69   N19   A    
N6    Ni1   S    
N22   Ni2   S    
C93   H82   S    
C94   C101  S    
C95   C103  S    
C95   H88   S    
N13   Ni4   S    
C29   C38   S    
C36   C112  A    
C86   H75   S    
N7    N8    A    
C80   N20   A    
C98   H93   S    
C57   C75   S    
C43   C110  A    
C66   C111  S    
C30   C32   S    
C86   C100  S    
C45   H54   S    
C74   C83   S    
C5    C90   A    
N1    N29   A    
C54   H34   S    
C108  H106  S    
C43   H52   S    
C52   C54   S    
C62   H55   S    
C62   C82   S    
C108  N7    A    
C60   C66   S    
C10   N11   A    
C34   C38   S    
N3    Ni8   S    
C87   C96   S    
C65   C70   S    
C79   H62   S    
N11   Ni3   S    
C84   H73   S    
C1    H1    S    
C63   H48   S    
C1    N1    A    
C76   H70   S    
N30   Ni7   S    
C71   C79   S    
C109  H107  S    
C97   C99   S    
C24   C80   A    
C45   N31   A    
C63   C67   S    
C83   I4    S    
C28   C31   S    
C96   H85   S    
C3    C44   A    
C49   H20   S    
C82   H60   S    
C60   C77   S    
N12   N28   A    
C17   C24   A    
C105  H101  S    
C81   I2    S    
C62   C66   S    
C29   C48   S    
N9    Ni1   S    
C34   C39   S    
C5    C92   A    
C14   C20   A    
C17   N26   A    
C59   H65   S    
C56   C74   S    
C87   H81   S    
C38   C41   S    
C103  C105  S    
C49   C66   S    
C11   H111  S    
C41   H19   S    
C13   H12   S    
C25   C111  A    
C42   H51   S    
C47   H47   S    
C37   H2    S    
C39   H17   S    
C25   N12   A    
C27   C35   S    
C26   C91   A    
C16   N17   A    
C57   C68   S    
C27   C31   S    
C69   H7    S    
C50   C56   S    
C94   H83   S    
C63   C83   S    
C51   C53   S    
C32   C34   S    
C65   H50   S    
C25   H25   S    
C28   H69   S    
C47   N27   A    
C8    H108  S    
C2    N24   A    
C1    C110  A    
C57   H64   S    
C85   C94   S    
C61   C67   S    
C78   H45   S    
C55   H35   S    
C62   H46   S    
C42   N28   A    
C61   C78   S    
C6    C107  A    
C13   N25   A    
C4    C101  S    
C12   C20   A    
C53   H33   S    
N14   N15   A    
C6    C106  A    
C29   H80   S    
C84   H77   S    
N11   N13   A    
N19   Ni5   S    
C75   H68   S    
C27   H58   S    
C73   C82   S    
C70   C112  S    
N24   Ni1   S    
C36   H36   S    
N20   Ni8   S    
C20   C33   S    
N25   Ni4   S    
C63   H56   S    
N3    N4    A    
C107  N6    A    
N2    N32   A    
N26   Ni3   S    
C61   H67   S    
C101  C104  S    
C12   N14   A    
C83   H61   S    
C91   H9    S    
C89   N2    A    
C64   C79   S    
C13   C26   A    
N10   Ni2   S    
N17   Ni8   S    
C18   C99   S    
C104  H100  S    
C97   H92   S    
C93   C101  S    
C44   H53   S    
C53   C71   S    
C64   C68   S    
C22   C71   S    
C43   N29   A    
C38   H13   S    
C89   H96   S    
C27   C46   S    
C4    C89   A    
C50   C67   S    
N19   N22   A    
C85   H74   S    
C40   H18   S    
C15   N16   A    
C31   C33   S    
C6    C46   S    
C102  N22   A    
C84   C99   S    
C23   C72   S    
C49   H24   S    
C42   C111  A    
N29   Ni6   S    
C72   C81   S    
N12   Ni2   S    
C64   H49   S    
C50   H21   S    
C61   H41   S    
C22   C58   A    
C90   H97   S    
C19   C100  S    
C50   H26   S    
C87   H76   S    
C21   C34   S    
C59   H39   S    
C52   H28   S    
C37   C40   S    
C106  H104  S    
C82   I3    S    
C76   H43   S    
C98   C100  S    
N4    Ni7   S    
C28   C46   S    
N16   Ni7   S    
C84   C93   S    
C7    C48   S    
N21   Ni7   S    
C35   C40   S    
C85   H78   S    
C56   H30   S    
C102  H10   S    
C49   C55   S    
C16   H5    S    
C71   C75   S    
C85   C99   S    
C75   H42   S    
C32   H16   S    
C28   C37   S    
N7    Ni4   S    
C11   N13   A    
N9    N10   A    
C3    C47   A    
C2    C22   A    
C33   C35   S    
C41   C48   S    
C79   I1    S    
C30   C39   S    
C93   H86   S    
C8    C18   A    
C78   H72   S    
C51   C68   S    
C57   H38   S    
C90   N3    A    
C35   H102  S    
C33   C37   S    
N27   N30   A    
C97   C104  S    
C52   C70   S    
C86   C95   S    
C10   H110  S    
C59   C70   S    
C44   N30   A    
C14   N15   A    
C55   C73   S    
C109  N8    A    
C7    C109  A    
C9    C18   A    
C15   C21   A    
C58   N18   A    
C54   C72   S    
N27   Ni4   S    
N8    Ni3   S    
C26   C74   S    
C74   C78   S    
C96   C103  S    
C9    N10   A    
C52   H23   S    
C73   C77   S    
C15   H4    S    
C98   H94   S    
N1    Ni1   S    
C88   H95   S    
C104  H99   S    
C53   H31   S    
C56   H37   S    
N18   Ni6   S    
N32   Ni6   S    
C59   C76   S    
C7    C108  A    
C2    H11   S    
C77   H71   S    
N5    N6    A    
N23   Ni3   S    
N5    Ni2   S    
N2    Ni5   S    
C51   H27   S    
