data_mof_unit_57643.cif
_audit_creation_date              2012-12-11T15:35:59-0500
_audit_creation_method            fapswitch 2.2
_symmetry_space_group_name_H-M    P1
_symmetry_Int_Tables_number       1
_space_group_crystal_system       triclinic
_cell_length_a                    7.090233
_cell_length_b                    12.068988
_cell_length_c                    35.810058
_cell_angle_alpha                 90.000011
_cell_angle_beta                  90.076513
_cell_angle_gamma                 89.998752
_cell_volume                      3064.33329389

loop_
_atom_site_label
_atom_site_type_symbol
_atom_type_description
_atom_site_fract_x
_atom_site_fract_y
_atom_site_fract_z
_atom_type_partial_charge
O1    O     O_R   0.379730 0.148600 0.662710 -0.545676
O2    O     O_R   0.620270 0.851400 0.337290 -0.545672
O3    O     O_R   0.120270 0.648600 0.337290 -0.545676
O4    O     O_R   0.879730 0.351400 0.662710 -0.545679
O5    O     O_R   0.722480 0.134490 0.741330 -0.532474
O6    O     O_R   0.277520 0.865510 0.258670 -0.532476
O7    O     O_R   0.777520 0.634490 0.258670 -0.532467
O8    O     O_R   0.222480 0.365510 0.741330 -0.532470
O9    O     O_R   0.892880 0.345890 0.741600 -0.519439
O10   O     O_R   0.107120 0.654110 0.258400 -0.519437
O11   O     O_R   0.607120 0.845890 0.258400 -0.519434
O12   O     O_R   0.392880 0.154110 0.741600 -0.519439
C1    C     C_R   0.552088 0.111238 0.753686 0.853381
C2    C     C_R   0.447912 0.888766 0.246315 0.853377
C3    C     C_R   0.947915 0.611229 0.246316 0.853378
C4    C     C_R   0.052085 0.388765 0.753686 0.853382
O13   O     O_R   0.709490 0.135560 0.662990 -0.543483
O14   O     O_R   0.290510 0.864440 0.337010 -0.543490
O15   O     O_R   0.790510 0.635560 0.337010 -0.543480
O16   O     O_R   0.209490 0.364440 0.662990 -0.543476
C5    C     C_R   0.540804 0.108275 0.651119 0.751441
C6    C     C_R   0.459197 0.891724 0.348881 0.751441
C7    C     C_R   0.959199 0.608277 0.348881 0.751433
C8    C     C_R   0.040801 0.391724 0.651119 0.751433
O17   O     O_3   0.552800 0.316610 0.702160 -0.381624
O18   O     O_3   0.447200 0.683390 0.297840 -0.381625
O19   O     O_3   0.947200 0.816610 0.297840 -0.381626
O20   O     O_3   0.052800 0.183390 0.702160 -0.381626
V1    V     V_3+5 0.827630 0.234380 0.702160 1.603473
V2    V     V_3+5 0.172370 0.765620 0.297840 1.603469
V3    V     V_3+5 0.672370 0.734380 0.297840 1.603488
V4    V     V_3+5 0.327630 0.265620 0.702160 1.603483
C9    C     C_R   0.049600 0.682082 0.905321 0.637651
C10   C     C_R   0.950338 0.317925 0.094675 0.637668
C11   C     C_R   0.450341 0.182079 0.094676 0.637658
C12   C     C_R   0.549608 0.817938 0.905327 0.637653
O21   O     O_2   0.090159 0.574264 0.909889 -0.507868
O22   O     O_2   0.909763 0.425742 0.090108 -0.507859
O23   O     O_2   0.409783 0.074263 0.090107 -0.507870
O24   O     O_2   0.590176 0.925754 0.909894 -0.507867
N1    N     N_R   0.014399 0.723751 0.870156 -0.520772
N2    N     N_R   0.985562 0.276255 0.129839 -0.520775
N3    N     N_R   0.485554 0.223743 0.129841 -0.520770
N4    N     N_R   0.514400 0.776269 0.870162 -0.520780
C13   C     C_R   0.978411 0.835604 0.867068 0.564290
C14   C     C_R   0.021565 0.164403 0.132926 0.564288
C15   C     C_R   0.521555 0.335593 0.132930 0.564261
C16   C     C_R   0.478402 0.664418 0.867075 0.564324
C17   C     C_R   0.091101 0.666712 0.802038 -0.055922
C18   C     C_R   0.908890 0.333280 0.197961 -0.055906
C19   C     C_R   0.408859 0.166709 0.197960 -0.055890
C20   C     C_R   0.591102 0.833298 0.802043 -0.055920
C21   C     C_R   0.113195 0.580078 0.776125 -0.243604
C22   C     C_R   0.886824 0.419909 0.223877 -0.243614
C23   C     C_R   0.386784 0.080078 0.223874 -0.243587
C24   C     C_R   0.613203 0.919929 0.776130 -0.243575
C25   C     C_R   0.933311 0.457781 0.815089 0.559235
C26   C     C_R   0.066655 0.542220 0.184909 0.559234
C27   C     C_R   0.566660 0.957774 0.184909 0.559226
C28   C     C_R   0.433316 0.042235 0.815091 0.559216
C29   C     C_R   0.919261 0.540671 0.842201 0.574777
C30   C     C_R   0.080689 0.459337 0.157795 0.574732
C31   C     C_R   0.580690 0.040658 0.157795 0.574762
C32   C     C_R   0.419268 0.959351 0.842205 0.574765
C33   C     C_R   0.005744 0.646439 0.837873 0.102839
C34   C     C_R   0.994222 0.353564 0.162123 0.102846
C35   C     C_R   0.494209 0.146429 0.162123 0.102858
C36   C     C_R   0.505747 0.853579 0.837878 0.102826
C37   C     C_R   0.014230 0.863290 0.934568 -0.031136
C38   C     C_R   0.985712 0.136720 0.065426 -0.031136
C39   C     C_R   0.485704 0.363290 0.065431 -0.031115
C40   C     C_R   0.514225 0.636733 0.934575 -0.031154
C41   C     C_R   0.044304 0.749201 0.937462 -0.085754
C42   C     C_R   0.955625 0.250808 0.062534 -0.085752
C43   C     C_R   0.455626 0.249203 0.062536 -0.085755
C44   C     C_R   0.544307 0.750820 0.937468 -0.085741
C45   C     C_R   0.058937 0.701066 0.972621 -0.151118
C46   C     C_R   0.940963 0.298944 0.027375 -0.151120
C47   C     C_R   0.440971 0.201073 0.027377 -0.151125
C48   C     C_R   0.558953 0.798954 0.972626 -0.151117
C49   C     C_R   0.982858 0.907910 0.898688 0.035060
C50   C     C_R   0.017104 0.092099 0.101305 0.035060
C51   C     C_R   0.517091 0.407903 0.101311 0.035054
C52   C     C_R   0.482851 0.592113 0.898695 0.035058
C53   C     C_R   0.036640 0.475505 0.782552 -0.238228
C54   C     C_R   0.963360 0.524487 0.217449 -0.238210
C55   C     C_R   0.463346 0.975504 0.217447 -0.238215
C56   C     C_R   0.536647 0.024504 0.782555 -0.238228
H1    H     H_    0.072933 0.611720 0.975082 0.172903
H2    H     H_    0.926949 0.388290 0.024915 0.172901
H3    H     H_    0.426962 0.111728 0.024915 0.172902
H4    H     H_    0.572966 0.888300 0.975087 0.172901
C57   C     C_R   0.029621 0.953185 0.035978 0.023119
C58   C     C_R   0.970317 0.046829 0.964014 0.023130
C59   C     C_R   0.470310 0.453196 0.964021 0.023119
C60   C     C_R   0.529599 0.546834 0.035987 0.023125
C61   C     C_R   0.969303 0.117682 0.996383 -0.016463
C62   C     C_R   0.030619 0.882332 0.003610 -0.016464
C63   C     C_R   0.530613 0.617691 0.003618 -0.016459
C64   C     C_R   0.469301 0.382340 0.996389 -0.016460
C65   C     C_R   0.991450 0.068566 0.032456 0.076109
C66   C     C_R   0.008484 0.931447 0.967538 0.076116
C67   C     C_R   0.508477 0.568577 0.967545 0.076105
C68   C     C_R   0.491441 0.431452 0.032462 0.076110
C69   C     C_R   0.076065 0.913949 0.071938 -0.123930
C70   C     C_R   0.923899 0.086063 0.928053 -0.123900
C71   C     C_R   0.423892 0.413963 0.928060 -0.123938
C72   C     C_R   0.576008 0.586065 0.071949 -0.123893
C73   C     C_R   0.057708 0.977592 0.104046 0.053767
C74   C     C_R   0.942261 0.022417 0.895946 0.053759
C75   C     C_R   0.442255 0.477608 0.895953 0.053765
C76   C     C_R   0.557679 0.522410 0.104055 0.053771
O25   O     O_2   0.070969 0.122269 0.165951 -0.553319
O26   O     O_2   0.929033 0.877739 0.834042 -0.553318
O27   O     O_2   0.429011 0.622286 0.834049 -0.553314
O28   O     O_2   0.570973 0.377717 0.165955 -0.553324
C77   C     C_R   0.044189 0.763408 0.005100 -0.061856
C78   C     C_R   0.955709 0.236605 0.994895 -0.061849
C79   C     C_R   0.455715 0.263416 0.994898 -0.061846
C80   C     C_R   0.544209 0.736615 0.005106 -0.061847
H5    H     H_    0.817023 0.404272 0.250334 0.195762
H6    H     H_    0.183024 0.595706 0.749671 0.195758
H7    H     H_    0.683035 0.904295 0.749676 0.195745
H8    H     H_    0.316972 0.095712 0.250329 0.195742
H9    H     H_    0.143118 0.835738 0.076253 0.141486
H10   H     H_    0.856860 0.164277 0.923736 0.141495
H11   H     H_    0.356851 0.335752 0.923743 0.141496
H12   H     H_    0.643020 0.664282 0.076269 0.141502
C81   C     C_R   0.966810 0.529831 0.379820 -0.203112
C82   C     C_R   0.033193 0.470169 0.620179 -0.203116
C83   C     C_R   0.533198 0.029830 0.620179 -0.203122
C84   C     C_R   0.466805 0.970170 0.379820 -0.203120
C85   C     C_R   0.935105 0.344444 0.403941 -0.127619
C86   C     C_R   0.064945 0.655551 0.596056 -0.127623
C87   C     C_R   0.564904 0.844444 0.596057 -0.127624
C88   C     C_R   0.435157 0.155562 0.403941 -0.127621
C89   C     C_R   0.944463 0.416450 0.373652 0.610102
C90   C     C_R   0.055578 0.583548 0.626346 0.610110
C91   C     C_R   0.555549 0.916448 0.626346 0.610109
C92   C     C_R   0.444503 0.083554 0.373652 0.610101
C93   C     C_R   0.985864 0.570682 0.416085 -0.134496
C94   C     C_R   0.014117 0.429317 0.583916 -0.134514
C95   C     C_R   0.514138 0.070684 0.583915 -0.134533
C96   C     C_R   0.485837 0.929317 0.416085 -0.134512
C97   C     C_R   0.988656 0.498935 0.447278 0.083613
C98   C     C_R   0.011347 0.501062 0.552721 0.083626
C99   C     C_R   0.511350 0.998939 0.552721 0.083606
C100  C     C_R   0.488648 0.001064 0.447278 0.083590
C101  C     C_R   0.951569 0.384937 0.440649 -0.142175
C102  C     C_R   0.048459 0.615058 0.559350 -0.142177
C103  C     C_R   0.548437 0.884938 0.559350 -0.142175
C104  C     C_R   0.451594 0.115067 0.440648 -0.142171
C105  C     C_R   0.016310 0.537297 0.484766 -0.159953
C106  C     C_R   0.983693 0.462698 0.515233 -0.159948
C107  C     C_R   0.483702 0.037305 0.515233 -0.159965
C108  C     C_R   0.516295 0.962700 0.484766 -0.159971
C109  C     C_R   0.922796 0.353080 0.506996 0.647590
C110  C     C_R   0.077219 0.646913 0.493002 0.647591
C111  C     C_R   0.577180 0.853077 0.493003 0.647610
C112  C     C_R   0.422831 0.146930 0.506995 0.647604
C113  C     C_R   0.919367 0.313772 0.470590 0.610107
C114  C     C_R   0.080668 0.686220 0.529408 0.610116
C115  C     C_R   0.580630 0.813772 0.529408 0.610150
C116  C     C_R   0.419406 0.186236 0.470589 0.610145
H13   H     H_    0.014981 0.340591 0.581093 0.216875
H14   H     H_    0.984974 0.659408 0.418909 0.216877
H15   H     H_    0.484920 0.840591 0.418909 0.216898
H16   H     H_    0.515018 0.159409 0.581093 0.216895
H17   H     H_    0.909976 0.257293 0.398613 0.199277
H18   H     H_    0.090098 0.742701 0.601384 0.199280
H19   H     H_    0.590026 0.757290 0.601384 0.199282
H20   H     H_    0.410066 0.242717 0.398612 0.199280
F1    F     F_    0.847840 0.358828 0.821094 -0.629108
F2    F     F_    0.152107 0.641180 0.178903 -0.629106
F3    F     F_    0.652128 0.858817 0.178904 -0.629106
F4    F     F_    0.347845 0.141192 0.821095 -0.629108
F5    F     F_    0.075742 0.623753 0.661536 -0.674554
F6    F     F_    0.924323 0.376245 0.338461 -0.674559
F7    F     F_    0.424399 0.123762 0.338460 -0.674554
F8    F     F_    0.575687 0.876240 0.661537 -0.674549
F9    F     F_    0.851821 0.283780 0.533234 -0.663343
F10   F     F_    0.148195 0.716209 0.466763 -0.663345
F11   F     F_    0.648128 0.783770 0.466763 -0.663341
F12   F     F_    0.351883 0.216242 0.533234 -0.663343
F13   F     F_    0.818557 0.515762 0.872969 -0.655291
F14   F     F_    0.181360 0.484258 0.127024 -0.655283
F15   F     F_    0.681382 0.015744 0.127026 -0.655277
F16   F     F_    0.318575 0.984268 0.872973 -0.655287
C117  C     C_1   0.853082 0.226648 0.211960 0.470980
N5    N     N_1   0.813964 0.141681 0.224730 -0.342381
C118  C     C_1   0.146894 0.773339 0.788033 0.470982
N6    N     N_1   0.186004 0.858301 0.775259 -0.342355
C119  C     C_1   0.646881 0.726667 0.788038 0.470958
N7    N     N_1   0.685976 0.641703 0.775264 -0.342360
C120  C     C_1   0.353089 0.273342 0.211964 0.470930
N8    N     N_1   0.314011 0.358311 0.224738 -0.342343
C121  C     C_1   0.089824 0.921097 0.139152 0.519932
N9    N     N_1   0.114589 0.875731 0.167191 -0.212819
C122  C     C_1   0.910164 0.078911 0.860839 0.519919
N10   N     N_1   0.885414 0.124278 0.832800 -0.212825
C123  C     C_1   0.410154 0.421114 0.860846 0.519941
N11   N     N_1   0.385399 0.375747 0.832807 -0.212829
C124  C     C_1   0.589800 0.578892 0.139163 0.519927
N12   N     N_1   0.614569 0.624249 0.167204 -0.212851
C125  C     C_1   0.026378 0.696185 0.038226 0.257510
N13   N     N_1   0.014469 0.641216 0.064578 -0.231179
C126  C     C_1   0.973485 0.303836 0.961770 0.257482
N14   N     N_1   0.985368 0.358812 0.935420 -0.231165
C127  C     C_1   0.473498 0.196188 0.961773 0.257484
N15   N     N_1   0.485385 0.141213 0.935422 -0.231162
C128  C     C_1   0.526460 0.803849 0.038231 0.257464
N16   N     N_1   0.514603 0.858829 0.064581 -0.231129
F17   F     F_    0.871645 0.206151 0.464556 -0.672641
F18   F     F_    0.128408 0.793839 0.535441 -0.672645
F19   F     F_    0.628350 0.706149 0.535442 -0.672621
F20   F     F_    0.371707 0.293862 0.464555 -0.672616

loop_
_geom_bond_atom_site_label_1
_geom_bond_atom_site_label_2
_ccdc_geom_bond_type
C26   C30   A    
C63   C67   A    
C39   C68   A    
C48   C80   A    
O1    C5    A    
C109  C113  A    
O13   V1    S    
C123  N11   T    
C94   C98   A    
C73   C121  S    
C10   N2    A    
C85   C89   A    
C96   C100  A    
O15   V3    S    
C49   C74   A    
C75   C123  S    
C28   C56   A    
C38   C65   A    
C125  N13   T    
C116  F20   S    
C87   C91   A    
C11   C43   A    
C93   H14   S    
C18   C22   A    
C17   C33   A    
C112  C116  A    
C31   F15   S    
O20   V1    S    
C46   C78   A    
O9    C4    A    
C2    C55   S    
C45   C77   A    
C21   H6    S    
O16   V4    S    
O4    C8    A    
O11   C2    A    
C87   C103  A    
C24   C56   A    
C81   C93   A    
C121  N9    T    
C86   C102  A    
C60   C63   A    
C64   C68   A    
C92   F7    S    
C7    C81   S    
N2    C14   A    
C105  C110  A    
C18   C117  S    
C85   H17   S    
C5    C83   S    
C113  F17   S    
C91   F8    S    
C12   C44   A    
C57   C69   A    
C63   C80   A    
C98   C102  A    
C115  F19   S    
C13   O26   S    
C89   F6    S    
O16   C8    A    
C47   C79   A    
C74   C122  S    
C38   C42   A    
C37   C41   A    
O14   V2    S    
C87   H19   S    
C11   N3    A    
O5    C1    A    
O4    V1    S    
C20   C36   A    
C12   N4    A    
C88   C92   A    
C30   F14   S    
C103  C115  A    
C97   C105  A    
C80   C128  S    
O7    C3    A    
C60   C72   A    
O11   V3    S    
C84   C96   A    
O8    C4    A    
C14   C50   A    
O12   V4    S    
O19   V2    S    
C26   F2    S    
C109  F9    S    
C38   C50   A    
C26   C54   A    
C88   C104  A    
C59   C67   A    
C39   C51   A    
O17   V1    S    
C15   O28   S    
C102  C114  A    
C31   C35   A    
C100  C104  A    
C79   C127  S    
C52   C75   A    
O7    V3    S    
C30   C34   A    
C96   H15   S    
O19   V3    S    
C126  N14   T    
O8    V4    S    
C50   C73   A    
C88   H20   S    
O20   V4    S    
C85   C101  A    
C106  C109  A    
C57   C65   A    
C22   C54   A    
C83   C91   A    
C37   C66   A    
C59   C64   A    
N1    C33   S    
C58   C61   A    
O3    C7    A    
C62   C66   A    
O1    V4    S    
C46   H2    S    
C16   C52   A    
O2    V3    S    
C48   H4    S    
O3    V2    S    
C11   O23   S    
C24   H7    S    
N3    C35   S    
O2    C6    A    
C29   C33   A    
O6    C2    A    
C110  F10   S    
C71   C75   A    
O10   V2    S    
C61   C65   A    
C128  N16   T    
C98   C106  A    
C12   O24   S    
C45   H1    S    
C32   F16   S    
C29   F13   S    
C127  N15   T    
C40   C44   A    
C64   C79   A    
C40   C52   A    
C72   H12   S    
C18   C34   A    
C27   C55   A    
C61   C78   A    
C59   C71   A    
C10   C42   A    
C16   O27   S    
C25   F1    S    
C9    C41   A    
O6    V2    S    
C22   H5    S    
O10   C3    A    
C95   C99   A    
C15   C51   A    
C60   C68   A    
C86   H18   S    
C4    C53   S    
C28   F4    S    
C111  C115  A    
C27   C31   A    
N4    C36   S    
C101  C113  A    
C82   C90   A    
O5    V1    S    
C32   C36   A    
C83   C95   A    
O15   C7    A    
C62   C77   A    
C9    O21   S    
C114  F18   S    
C72   C76   A    
C118  N6    T    
C69   C73   A    
C23   H8    S    
C58   C70   A    
N1    C13   A    
C14   O25   S    
C6    C84   S    
C107  C112  A    
C10   O22   S    
C47   H3    S    
C108  C111  A    
C13   C49   A    
C20   C119  S    
C44   C48   A    
C104  C116  A    
C86   C90   A    
C77   C125  S    
C3    C54   S    
C25   C29   A    
C17   C118  S    
C40   C67   A    
O9    V1    S    
C99   C107  A    
C84   C92   A    
C70   H10   S    
C27   F3    S    
C76   C124  S    
C69   H9    S    
C28   C32   A    
C9    N1    A    
O14   C6    A    
C78   C126  S    
C71   H11   S    
N4    C16   A    
C19   C120  S    
C94   H13   S    
C39   C43   A    
C19   C35   A    
N3    C15   A    
O17   V4    S    
C17   C21   A    
C99   C103  A    
C1    C56   S    
C93   C97   A    
C25   C53   A    
C19   C23   A    
C23   C55   A    
C117  N5    T    
C82   C94   A    
O13   C5    A    
C95   H16   S    
C37   C49   A    
C110  C114  A    
C122  N10   T    
C120  N8    T    
C8    C82   S    
O18   V3    S    
C81   C89   A    
O12   C1    A    
C58   C66   A    
C70   C74   A    
C119  N7    T    
C42   C46   A    
C107  C108  A    
N2    C34   S    
C41   C45   A    
C51   C76   A    
C21   C53   A    
C100  C108  A    
C124  N12   T    
C111  F11   S    
C105  C106  A    
C90   F5    S    
C43   C47   A    
C57   C62   A    
C112  F12   S    
C97   C101  A    
C20   C24   A    
O18   V2    S    
