data_mof_unit_55314.cif
_audit_creation_date              2013-03-05T15:41:40-0500
_audit_creation_method            fapswitch 2.2
_symmetry_space_group_name_H-M    P1
_symmetry_Int_Tables_number       1
_space_group_crystal_system       triclinic
_cell_length_a                    17.290989
_cell_length_b                    8.728442
_cell_length_c                    7.429462
_cell_angle_alpha                 102.619293
_cell_angle_beta                  90.209121
_cell_angle_gamma                 93.071405
_cell_volume                      1092.48571352

loop_
_atom_site_label
_atom_site_type_symbol
_atom_site_description
_atom_site_fract_x
_atom_site_fract_y
_atom_site_fract_z
_atom_type_partial_charge
O1    O     O_R   0.505650 0.286040 0.618880 -0.572176
O2    O     O_R   0.494350 0.713960 0.381120 -0.572176
O3    O     O_R   0.490960 0.256910 0.309800 -0.531651
O4    O     O_R   0.509040 0.743090 0.690200 -0.531655
C1    C     C_R   0.496260 0.200239 0.454892 0.844614
C2    C     C_R   0.503739 0.799761 0.545109 0.844617
O5    O     O_R   0.394600 0.516230 0.672450 -0.599458
O6    O     O_R   0.605400 0.483770 0.327550 -0.599457
O7    O     O_R   0.379910 0.487100 0.363380 -0.578813
O8    O     O_R   0.620090 0.512900 0.636620 -0.578814
C3    C     C_R   0.351287 0.505601 0.526622 0.805979
C4    C     C_R   0.648713 0.494399 0.473378 0.805979
Cu1   Cu    Cu3+1 0.508700 0.517250 0.683000 1.050256
Cu2   Cu    Cu3+1 0.491300 0.482750 0.317000 1.050258
C5    C     C_R   0.267756 0.518512 0.544410 -0.017346
C6    C     C_R   0.732244 0.481488 0.455589 -0.017346
C7    C     C_R   0.224721 0.545033 0.394812 -0.147194
C8    C     C_R   0.775278 0.454967 0.605188 -0.147196
C9    C     C_R   0.145129 0.553076 0.405800 -0.147591
C10   C     C_R   0.854871 0.446924 0.594199 -0.147590
C11   C     C_R   0.107092 0.532202 0.565750 0.184666
C12   C     C_R   0.892908 0.467798 0.434250 0.184666
C13   C     C_R   0.150147 0.513019 0.718709 -0.155230
C14   C     C_R   0.849852 0.486980 0.281291 -0.155230
C15   C     C_R   0.230358 0.505848 0.708155 -0.170176
C16   C     C_R   0.769642 0.494151 0.291845 -0.170176
C17   C     C_2   0.022501 0.528311 0.574968 -0.216511
C18   C     C_2   0.977499 0.471689 0.425032 -0.216511
H1    H     H_    0.252483 0.559763 0.268712 0.173772
H2    H     H_    0.747517 0.440237 0.731288 0.173771
H3    H     H_    0.737276 0.512646 0.174016 0.155788
H4    H     H_    0.262724 0.487354 0.825984 0.155788
H5    H     H_    0.002860 0.430914 0.290774 0.145303
H6    H     H_    0.997140 0.569085 0.709226 0.145303
H7    H     H_    0.121492 0.499289 0.844159 0.122379
H8    H     H_    0.878508 0.500711 0.155841 0.122379
H9    H     H_    0.886279 0.424216 0.711068 0.126445
H10   H     H_    0.113721 0.575784 0.288932 0.126445
C19   C     C_2   0.483854 0.034198 0.436933 0.037355
C20   C     C_2   0.516144 0.965802 0.563068 0.037357
N1    N     N_2   0.478180 0.456750 0.041980 -0.189251
N2    N     N_2   0.521820 0.543250 0.958020 -0.189252
H11   H     H_    0.439499 0.379128 0.958033 0.234107
H12   H     H_    0.560501 0.620872 0.041967 0.234106
N3    N     N_R   0.427129 0.952182 0.302013 0.119064
O9    O     O_R   0.365200 0.883771 0.354920 -0.378488
O10   O     O_R   0.432006 0.964209 0.130882 -0.295841
N4    N     N_R   0.572868 0.047819 0.697989 0.119064
O11   O     O_R   0.634801 0.116221 0.645083 -0.378489
O12   O     O_R   0.567986 0.035803 0.869124 -0.295841

loop_
_geom_bond_atom_site_label_1
_geom_bond_atom_site_label_2
_geom_bond_distance
_ccdc_geom_bond_type
O7    Cu2   1.958771 S    
C8    H2    1.083496 S    
C9    H10   1.082312 S    
N1    H11   1.029135 S    
N1    N2    1.294874 D    
C8    C10   1.383579 A    
C19   N3    1.443366 S    
O6    C4    1.298465 A    
C15   H4    1.083262 S    
N4    O12   1.301071 A    
C11   C17   1.463428 S    
C16   H3    1.083262 S    
C12   C18   1.463428 S    
N3    O9    1.301852 A    
O5    C3    1.298465 A    
C10   H9    1.082311 S    
O7    C3    1.292008 A    
C14   H8    1.083675 S    
O3    Cu2   1.959933 S    
N2    H12   1.029136 S    
Cu2   N1    2.016514 S    
O1    C1    1.287804 A    
O8    C4    1.292009 A    
C6    C8    1.402641 A    
Cu1   N2    2.016514 S    
C9    C11   1.401921 A    
C14   C16   1.393396 A    
C18   H5    1.085684 S    
C13   H7    1.083675 S    
C13   C15   1.393396 A    
C17   H6    1.085684 S    
C6    C16   1.402556 A    
O2    Cu2   1.967434 S    
C12   C14   1.401428 A    
C5    C15   1.402556 A    
O1    Cu1   1.967434 S    
C19   C20   1.350060 D    
C4    C6    1.458970 S    
O5    Cu1   1.973637 S    
C2    C20   1.430459 S    
C7    H1    1.083495 S    
O4    C2    1.285369 A    
N3    O10   1.301072 A    
C17   C18   1.342584 D    
C5    C7    1.402641 A    
C1    C19   1.430461 S    
C20   N4    1.443365 S    
N4    O11   1.301855 A    
O6    Cu2   1.973640 S    
C7    C9    1.383578 A    
Cu1   Cu2   2.683598 S    
C3    C5    1.458970 S    
C11   C13   1.401428 A    
O2    C2    1.287804 A    
O4    Cu1   1.959932 S    
C10   C12   1.401920 A    
O3    C1    1.285369 A    
O8    Cu1   1.958771 S    
