data_mof_unit_28246.cif
_audit_creation_date              2012-12-11T14:58:33-0500
_audit_creation_method            fapswitch 2.2
_symmetry_space_group_name_H-M    P1
_symmetry_Int_Tables_number       1
_space_group_crystal_system       triclinic
_cell_length_a                    10.971745
_cell_length_b                    10.881973
_cell_length_c                    18.698426
_cell_angle_alpha                 90.483178
_cell_angle_beta                  90.489082
_cell_angle_gamma                 59.772364
_cell_volume                      1928.84560803

loop_
_atom_site_label
_atom_site_type_symbol
_atom_type_description
_atom_site_fract_x
_atom_site_fract_y
_atom_site_fract_z
_atom_type_partial_charge
C1    C     C_R   0.356705 0.777047 0.398495 0.541265
C2    C     C_R   0.627207 0.169548 0.149533 0.056219
C3    C     C_R   0.361727 0.343430 0.159061 0.051777
C4    C     C_R   0.509481 0.283677 0.264301 -0.123852
C5    C     C_R   0.497934 0.268980 0.190824 0.047566
C6    C     C_R   0.052466 0.695819 0.298115 -0.070199
C7    C     C_R   0.943044 0.789530 0.343029 -0.057474
C8    C     C_R   0.720533 0.030890 0.174737 0.391596
C9    C     C_R   0.830376 0.932183 0.131638 -0.082662
C10   C     C_R   0.245895 0.441842 0.199371 -0.164468
C11   C     C_R   0.256729 0.453006 0.272695 -0.037732
C12   C     C_R   0.415940 0.378678 0.382474 0.547703
C13   C     C_R   0.903864 0.737174 0.401033 -0.094580
C14   C     C_R   0.969199 0.590972 0.412223 -0.084160
C15   C     C_R   0.075998 0.497020 0.366436 -0.041787
C16   C     C_R   0.124508 0.549261 0.311789 0.059869
C17   C     C_R   0.390772 0.369619 0.306065 -0.013497
C18   C     C_R   0.977512 0.274447 0.317814 -0.137796
C19   C     C_R   0.022643 0.264316 0.247553 -0.151601
C20   C     C_R   0.923835 0.313081 0.191738 0.030990
C21   C     C_R   0.779477 0.383685 0.206139 -0.094793
C22   C     C_R   0.734486 0.403024 0.276403 -0.131240
C23   C     C_R   0.781018 0.376320 0.404021 0.526681
C24   C     C_R   0.833428 0.345583 0.331993 0.040125
C25   C     C_R   0.440405 0.866370 0.295560 0.142573
C26   C     C_R   0.422288 0.902285 0.223020 0.419985
C27   C     C_R   0.296014 0.934471 0.188547 -0.014683
C28   C     C_R   0.183914 0.943848 0.228504 -0.214734
C29   C     C_R   0.200741 0.910029 0.299813 -0.192005
C30   C     C_R   0.332043 0.858286 0.332510 -0.039126
C31   C     C_R   0.378106 0.198250 0.692484 -0.139370
C32   C     C_R   0.367111 0.184872 0.764819 -0.125312
C33   C     C_R   0.297839 0.306674 0.808560 0.031671
C34   C     C_R   0.344760 0.769522 0.604604 0.546286
C35   C     C_R   0.228545 0.441991 0.778824 -0.154522
C36   C     C_R   0.238260 0.455553 0.705891 -0.135633
C37   C     C_R   0.319529 0.333547 0.663451 0.028717
C38   C     C_R   0.908646 0.393362 0.707149 -0.130206
C39   C     C_R   0.946004 0.374726 0.778606 -0.131980
C40   C     C_R   0.922938 0.282389 0.820414 0.025203
C41   C     C_R   0.872365 0.199482 0.788548 -0.131016
C42   C     C_R   0.832685 0.219625 0.716672 -0.134826
C43   C     C_R   0.844478 0.321982 0.676752 0.026687
C44   C     C_R   0.195908 0.850048 0.711138 -0.138315
C45   C     C_R   0.368278 0.350136 0.595007 0.551482
C46   C     C_R   0.186287 0.858453 0.784565 -0.139058
C47   C     C_R   0.301257 0.840993 0.825617 0.038381
C48   C     C_R   0.428015 0.809201 0.792713 -0.136962
C49   C     C_R   0.438321 0.799082 0.719110 -0.142161
C50   C     C_R   0.322632 0.818045 0.678000 0.029618
C51   C     C_R   0.971256 0.291080 0.118581 0.528960
C52   C     C_R   0.329480 0.296829 0.091454 0.595371
C53   C     C_R   0.271812 0.962714 0.112061 0.564592
C54   C     C_R   0.949290 0.279672 0.897013 0.578131
C55   C     C_R   0.293026 0.285531 0.884036 0.557073
C56   C     C_R   0.769010 0.373247 0.609114 0.549598
C57   C     C_R   0.276135 0.892321 0.898375 0.559887
C58   C     C_R   0.846104 0.968561 0.062414 -0.201479
C59   C     C_R   0.755172 0.105432 0.037112 -0.039123
C60   C     C_R   0.651188 0.207782 0.081418 0.356060
Cr1   Cr    Cr6+3 0.601770 0.606860 0.505860 0.981178
Cr2   Cr    Cr6+3 0.291380 0.601660 0.495070 1.007997
Cr3   Cr    Cr6+3 0.606880 0.291510 0.499120 0.992525
Cr4   Cr    Cr6+3 0.062440 0.063090 0.008210 0.984160
Cr5   Cr    Cr6+3 0.062880 0.375170 0.998920 1.025280
Cr6   Cr    Cr6+3 0.374700 0.061720 0.992470 1.062834
H1    H     H_    0.612538 0.227487 0.289555 0.165224
H2    H     H_    0.824576 0.809630 0.438051 0.081051
H3    H     H_    0.941601 0.550696 0.458237 0.126877
H4    H     H_    0.132218 0.384791 0.378530 0.101618
H5    H     H_    0.053814 0.229944 0.360890 0.095234
H6    H     H_    0.134199 0.216265 0.236591 0.096415
H7    H     H_    0.702402 0.425277 0.163206 0.184639
H8    H     H_    0.622512 0.463319 0.287660 0.107648
H9    H     H_    0.081780 0.977021 0.204406 0.158450
H10   H     H_    0.900331 0.825587 0.150997 0.145753
H11   H     H_    0.112197 0.917073 0.328379 0.150724
H12   H     H_    0.439413 0.103721 0.660187 0.119925
H13   H     H_    0.416139 0.078712 0.786829 0.137637
H14   H     H_    0.171441 0.536019 0.811970 0.121710
H15   H     H_    0.191780 0.561687 0.683962 0.140354
H16   H     H_    0.921054 0.471065 0.677106 0.128181
H17   H     H_    0.986135 0.438397 0.802270 0.132978
H18   H     H_    0.855976 0.125743 0.819790 0.123188
H19   H     H_    0.784029 0.162725 0.693961 0.131050
H20   H     H_    0.105675 0.863468 0.680577 0.127052
H21   H     H_    0.892304 0.903018 0.334552 0.149569
H22   H     H_    0.086502 0.885295 0.808754 0.125509
H23   H     H_    0.517225 0.797297 0.823695 0.132898
H24   H     H_    0.538239 0.771557 0.694806 0.135791
H25   H     H_    0.928086 0.890480 0.028193 0.132050
H26   H     H_    0.764018 0.132125 0.982751 0.168025
H27   H     H_    0.085599 0.737644 0.254890 0.107083
H28   H     H_    0.142013 0.501119 0.175099 0.144112
O1    O     O_R   0.748800 0.497470 0.428000 -0.534854
O2    O     O_R   0.300070 0.471040 0.567100 -0.506092
O3    O     O_R   0.491670 0.258900 0.574910 -0.519755
O4    O     O_R   0.718780 0.304180 0.577850 -0.501261
O5    O     O_3   0.500010 0.500010 0.500020 -0.250195
O6    O     O_R   0.186690 0.923650 0.086970 -0.523642
O7    O     O_R   0.957250 0.194250 0.084630 -0.509750
O8    O     O_R   0.934970 0.407490 0.085330 -0.476766
O9    O     O_R   0.203780 0.365190 0.067090 -0.530159
O10   O     O_R   0.417600 0.174890 0.067840 -0.483537
O11   O     O_R   0.375320 0.946260 0.070860 -0.417448
O12   O     O_R   0.476420 0.724060 0.429470 -0.510209
O13   O     O_R   0.160600 0.919630 0.926660 -0.533867
O14   O     O_R   0.933060 0.190520 0.936020 -0.511618
O15   O     O_R   0.908880 0.403460 0.925020 -0.491836
O16   O     O_R   0.179600 0.361450 0.918490 -0.525870
O17   O     O_R   0.391510 0.170860 0.907530 -0.517817
O18   O     O_R   0.351130 0.942530 0.922260 -0.507859
O19   O     O_3   0.166667 0.166667 0.999870 -0.325663
O20   O     O_R   0.264580 0.744340 0.416750 -0.518243
O21   O     O_R   0.309380 0.472470 0.418200 -0.493964
O22   O     O_R   0.501710 0.260430 0.414300 -0.541384
O23   O     O_R   0.728090 0.305600 0.428960 -0.517245
O24   O     O_R   0.738760 0.495930 0.588610 -0.529397
O25   O     O_R   0.467110 0.722640 0.578360 -0.506966
O26   O     O_R   0.254530 0.742800 0.577360 -0.527540
N1    N     N_2   0.564630 0.845788 0.330420 -0.423165
H29   H     H_    0.637024 0.742961 0.344765 0.282953
C61   C     C_3   0.544584 0.955819 0.381106 -0.212367
H30   H     H_    0.624564 0.987275 0.371372 0.206860
H31   H     H_    0.557111 0.915718 0.436642 0.112307
H32   H     H_    0.438544 0.052543 0.375507 0.149593
F1    F     F_    0.528897 0.901125 0.186314 -0.560324
F2    F     F_    0.568177 0.341594 0.056073 -0.635360
F3    F     F_    0.700973 0.987871 0.239188 -0.629996

loop_
_geom_bond_atom_site_label_1
_geom_bond_atom_site_label_2
_ccdc_geom_bond_type
C33   C55   S    
C52   O9    A    
C40   C41   A    
Cr6   O19   S    
Cr2   O2    S    
Cr1   O25   S    
C41   C42   A    
C35   C36   A    
C56   O4    A    
C49   H24   S    
C61   H30   S    
C51   O8    A    
C26   C27   A    
C31   H12   S    
C18   C24   A    
C28   C29   A    
C18   C19   A    
Cr3   O4    S    
C38   C39   A    
Cr3   O23   S    
C2    C60   A    
C61   H31   S    
C57   O18   A    
C10   H28   S    
C15   C16   A    
C21   H7    S    
C35   H14   S    
C34   O25   A    
Cr2   O21   S    
C9    C58   A    
C20   C51   S    
Cr3   O5    S    
C7    H21   S    
C31   C32   A    
C23   O1    A    
C8    C9    A    
C12   C17   S    
C23   C24   S    
C9    H10   S    
Cr6   O17   S    
C58   H25   S    
Cr2   O26   S    
C1    O12   A    
C59   H26   S    
C12   O21   A    
C59   C60   A    
C21   C22   A    
C38   H16   S    
C19   H6    S    
Cr1   O5    S    
C56   O24   A    
Cr5   O8    S    
C44   H20   S    
C44   C46   A    
Cr4   O14   S    
C46   H22   S    
C53   O6    A    
C34   O26   A    
Cr4   O7    S    
C34   C50   S    
Cr6   O10   S    
C60   F2    S    
C39   C40   A    
C61   H32   S    
C58   C59   A    
C41   H18   S    
C31   C37   A    
C54   O15   A    
C29   C30   A    
C18   H5    S    
C47   C57   S    
C11   C16   S    
C47   C48   A    
C7    C13   A    
C36   H15   S    
C6    H27   S    
Cr5   O9    S    
C27   C53   S    
C42   H19   S    
Cr1   O12   S    
Cr5   O15   S    
N1    H29   S    
Cr3   O22   S    
C48   C49   A    
C57   O13   A    
C40   C54   S    
C48   H23   S    
C55   O16   A    
C14   H3    S    
C22   C24   A    
C2    C5    S    
C1    O20   A    
C4    C17   A    
Cr6   O11   S    
C37   C45   S    
C8    F3    S    
Cr4   O13   S    
C44   C50   A    
C25   C30   A    
C15   H4    S    
C46   C47   A    
C36   C37   A    
Cr4   O19   S    
C55   O17   A    
Cr1   O24   S    
Cr5   O19   S    
C2    C8    A    
C4    C5    A    
C3    C5    A    
C11   C17   A    
C23   O23   A    
C4    H1    S    
C3    C52   S    
Cr1   O1    S    
Cr2   O20   S    
C6    C7    A    
C51   O7    A    
C54   O14   A    
C32   C33   A    
C19   C20   A    
C25   C26   A    
C39   H17   S    
C38   C43   A    
Cr3   O3    S    
C3    C10   A    
C45   O3    A    
C32   H13   S    
C28   H9    S    
C1    C30   S    
C33   C35   A    
C52   O10   A    
C26   F1    S    
Cr5   O16   S    
N1    C61   S    
C10   C11   A    
C6    C16   A    
Cr2   O5    S    
C53   O11   A    
C43   C56   S    
Cr4   O6    S    
C29   H11   S    
C20   C21   A    
C49   C50   A    
C42   C43   A    
C27   C28   A    
C22   H8    S    
C14   C15   A    
Cr6   O18   S    
C13   C14   A    
C45   O2    A    
C25   N1    S    
C12   O22   A    
C13   H2    S    
