data_mof_unit_10029.cif
_audit_creation_date              2012-12-11T15:50:24-0500
_audit_creation_method            fapswitch 2.2
_symmetry_space_group_name_H-M    P1
_symmetry_Int_Tables_number       1
_space_group_crystal_system       triclinic
_cell_length_a                    18.934964
_cell_length_b                    11.019758
_cell_length_c                    18.799247
_cell_angle_alpha                 89.927677
_cell_angle_beta                  90.984355
_cell_angle_gamma                 89.792748
_cell_volume                      3922.0188476

loop_
_atom_site_label
_atom_site_type_symbol
_atom_type_description
_atom_site_fract_x
_atom_site_fract_y
_atom_site_fract_z
_atom_type_partial_charge
C1    C     C_R   0.273065 0.040923 0.854255 0.530593
C2    C     C_R   0.726927 0.041089 0.145733 0.528893
C3    C     C_R   0.773060 0.540936 0.854250 0.530544
C4    C     C_R   0.226931 0.541098 0.145737 0.528868
C5    C     C_3   0.529309 0.727598 0.971754 -0.098996
C6    C     C_3   0.470795 0.728086 0.028639 -0.099174
C7    C     C_3   0.029324 0.227593 0.971753 -0.098937
C8    C     C_3   0.970806 0.228064 0.028633 -0.099091
C9    C     C_R   0.242054 0.578357 0.073128 0.030328
C10   C     C_R   0.757808 0.578289 0.926828 0.031177
C11   C     C_R   0.742045 0.078335 0.073122 0.030364
C12   C     C_R   0.257820 0.078260 0.926836 0.031273
C13   C     C_R   0.305425 0.551261 0.039410 0.039244
C14   C     C_R   0.694781 0.550489 0.960826 0.039067
C15   C     C_R   0.805420 0.051252 0.039407 0.039214
C16   C     C_R   0.194787 0.050485 0.960829 0.039001
C17   C     C_R   0.310727 0.560898 0.965862 0.092262
C18   C     C_R   0.689607 0.560319 0.034377 0.094003
C19   C     C_R   0.810724 0.060894 0.965860 0.092427
C20   C     C_R   0.189610 0.060321 0.034379 0.094070
C21   C     C_R   0.188620 0.621836 0.957571 -0.146705
C22   C     C_R   0.811163 0.622935 0.042140 -0.145549
C23   C     C_R   0.688614 0.121813 0.957564 -0.146663
C24   C     C_R   0.311172 0.122907 0.042149 -0.145443
C25   C     C_R   0.184744 0.620154 0.030917 -0.146423
C26   C     C_R   0.814859 0.620984 0.968785 -0.144200
C27   C     C_R   0.684732 0.120114 0.030910 -0.146272
C28   C     C_R   0.314876 0.120934 0.968794 -0.143933
C29   C     C_3   0.348604 0.438258 0.042287 -0.282015
C30   C     C_3   0.652598 0.436905 0.958407 -0.281242
C31   C     C_3   0.848602 0.938254 0.042283 -0.282020
C32   C     C_3   0.152597 0.936909 0.958411 -0.281232
C33   C     C_3   0.354927 0.448656 0.962253 -0.286101
C34   C     C_3   0.646436 0.447475 0.038438 -0.287089
C35   C     C_3   0.854928 0.948656 0.962250 -0.286102
C36   C     C_3   0.146431 0.947486 0.038441 -0.287067
C37   C     C_R   0.251540 0.591542 0.923678 0.041724
C38   C     C_R   0.748624 0.591964 0.076315 0.044120
C39   C     C_R   0.751537 0.091535 0.923674 0.041775
C40   C     C_R   0.248627 0.091956 0.076319 0.044167
C41   C     C_R   0.515624 0.829140 0.429821 0.013761
C42   C     C_R   0.506802 0.830323 0.579329 0.012487
C43   C     C_R   0.015624 0.329141 0.429821 0.013763
C44   C     C_R   0.006802 0.330324 0.579329 0.012490
C45   C     C_R   0.470118 0.821403 0.855400 0.544184
C46   C     C_R   0.529858 0.821697 0.144604 0.542933
C47   C     C_R   0.970120 0.321402 0.855400 0.544344
C48   C     C_R   0.029859 0.321695 0.144603 0.543042
C49   C     C_R   0.525873 0.723468 0.469403 0.066087
C50   C     C_R   0.522542 0.723246 0.542447 0.009966
C51   C     C_R   0.025874 0.223469 0.469403 0.066093
C52   C     C_R   0.022543 0.223246 0.542447 0.009966
C53   C     C_R   0.509222 0.940361 0.541501 -0.169637
C54   C     C_R   0.510618 0.939430 0.466747 -0.177683
C55   C     C_R   0.009222 0.440361 0.541501 -0.169637
C56   C     C_R   0.010618 0.439430 0.466747 -0.177684
C57   C     C_3   0.487976 0.605984 0.461782 -0.258558
C58   C     C_3   0.486422 0.602531 0.541907 -0.244085
C59   C     C_3   0.987975 0.105986 0.461782 -0.258556
C60   C     C_3   0.986420 0.102532 0.541906 -0.244084
C61   C     C_R   0.252860 0.600317 0.418430 -0.034653
C62   C     C_R   0.748160 0.601988 0.580682 -0.035833
C63   C     C_R   0.752860 0.100316 0.418430 -0.034656
C64   C     C_R   0.248160 0.101988 0.580683 -0.035835
C65   C     C_R   0.211204 0.689723 0.449982 0.009876
C66   C     C_R   0.795014 0.676722 0.544368 0.033870
C67   C     C_R   0.711203 0.189722 0.449982 0.009879
C68   C     C_R   0.295013 0.176723 0.544368 0.033867
C69   C     C_R   0.217689 0.712560 0.521734 -0.003976
C70   C     C_R   0.791913 0.683259 0.471761 0.020578
C71   C     C_R   0.717688 0.212558 0.521734 -0.003973
C72   C     C_R   0.291913 0.183260 0.471761 0.020578
C73   C     C_R   0.303134 0.547833 0.532825 0.180757
C74   C     C_R   0.691207 0.548921 0.469111 0.211719
C75   C     C_R   0.803133 0.047830 0.532825 0.180759
C76   C     C_R   0.191207 0.048923 0.469111 0.211718
C77   C     C_R   0.302369 0.535673 0.459666 -0.115728
C78   C     C_R   0.690881 0.551547 0.543313 -0.098023
C79   C     C_R   0.802368 0.035671 0.459667 -0.115728
C80   C     C_R   0.190881 0.051548 0.543313 -0.098026
C81   C     C_3   0.132144 0.692210 0.453135 -0.246874
C82   C     C_3   0.874366 0.676301 0.543863 -0.248733
C83   C     C_3   0.632144 0.192208 0.453135 -0.246871
C84   C     C_3   0.374366 0.176301 0.543863 -0.248734
C85   C     C_3   0.139338 0.720415 0.530658 -0.249468
C86   C     C_3   0.870045 0.687260 0.464234 -0.267067
C87   C     C_3   0.639338 0.220414 0.530658 -0.249467
C88   C     C_3   0.370045 0.187262 0.464235 -0.267067
C89   C     C_R   0.260787 0.635905 0.851528 0.553211
C90   C     C_R   0.739257 0.636198 0.148461 0.545638
C91   C     C_R   0.760787 0.135904 0.851527 0.553340
C92   C     C_R   0.239257 0.136197 0.148462 0.545718
C93   C     C_R   0.262674 0.641239 0.563655 0.010195
C94   C     C_R   0.744512 0.612341 0.432681 0.006470
C95   C     C_R   0.762673 0.141236 0.563655 0.010198
C96   C     C_R   0.244511 0.112342 0.432681 0.006474
C97   C     C_R   0.270717 0.048114 0.647201 0.543711
C98   C     C_R   0.729270 0.047554 0.352655 0.552868
C99   C     C_R   0.770717 0.548114 0.647201 0.543705
C100  C     C_R   0.229270 0.547555 0.352655 0.552863
C101  C     C_R   0.471160 0.823238 0.647667 0.536849
C102  C     C_R   0.532297 0.823293 0.354499 0.544015
C103  C     C_R   0.971160 0.323238 0.647667 0.536832
C104  C     C_R   0.032297 0.323293 0.354499 0.544004
C105  C     C_R   0.271277 0.678163 0.636058 0.557155
C106  C     C_R   0.739209 0.640003 0.357802 0.536490
C107  C     C_R   0.771277 0.178162 0.636058 0.557138
C108  C     C_R   0.239209 0.140003 0.357802 0.536481
C109  C     C_3   0.470600 0.929519 0.028575 -0.139475
C110  C     C_3   0.529194 0.929049 0.971029 -0.139602
C111  C     C_3   0.970593 0.429502 0.028571 -0.139730
C112  C     C_3   0.029195 0.429048 0.971033 -0.139785
C113  C     C_3   0.431968 0.828686 0.987223 0.239131
C114  C     C_3   0.567973 0.828208 0.012780 0.239451
C115  C     C_3   0.931977 0.328656 0.987214 0.239109
C116  C     C_3   0.067975 0.328209 0.012785 0.239436
C117  C     C_3   0.489547 0.828069 0.930654 0.011838
C118  C     C_3   0.510403 0.828551 0.069345 0.012182
C119  C     C_3   0.989560 0.328060 0.930651 0.011923
C120  C     C_3   0.010401 0.328540 0.069344 0.012253
Cr1   Cr    Cr6+3 0.229640 0.835880 0.747370 1.003811
Cr2   Cr    Cr6+3 0.770360 0.835880 0.252630 1.006795
Cr3   Cr    Cr6+3 0.729640 0.335880 0.747370 1.003861
Cr4   Cr    Cr6+3 0.270360 0.335880 0.252630 1.006828
Cr5   Cr    Cr6+3 0.387390 0.989720 0.750850 1.003514
Cr6   Cr    Cr6+3 0.612610 0.989720 0.249150 1.004372
Cr7   Cr    Cr6+3 0.887390 0.489720 0.750850 1.003529
Cr8   Cr    Cr6+3 0.112610 0.489720 0.249150 1.004387
Cr9   Cr    Cr6+3 0.385770 0.677220 0.749340 1.026339
Cr10  Cr    Cr6+3 0.614230 0.677220 0.250660 1.029379
Cr11  Cr    Cr6+3 0.885770 0.177220 0.749340 1.026406
Cr12  Cr    Cr6+3 0.114230 0.177220 0.250660 1.029424
H1    H     H_    0.504489 0.025806 0.569074 0.119188
H2    H     H_    0.505597 0.023751 0.437779 0.116084
H3    H     H_    0.004490 0.525806 0.569074 0.119188
H4    H     H_    0.005597 0.523751 0.437779 0.116084
H5    H     H_    0.020085 0.032755 0.438412 0.210016
H6    H     H_    0.932415 0.108301 0.562245 0.219083
H7    H     H_    0.520087 0.532754 0.438413 0.210016
H8    H     H_    0.432417 0.608297 0.562246 0.219086
H9    H     H_    0.435148 0.617984 0.436201 0.123362
H10   H     H_    0.519879 0.529435 0.565650 0.144126
H11   H     H_    0.935146 0.117989 0.436200 0.123360
H12   H     H_    0.019877 0.029436 0.565650 0.144126
H13   H     H_    0.332828 0.462731 0.436846 0.156105
H14   H     H_    0.651883 0.499501 0.571228 0.136151
H15   H     H_    0.832827 0.962729 0.436846 0.156107
H16   H     H_    0.151884 0.999501 0.571228 0.136152
H17   H     H_    0.110013 0.601120 0.444267 0.159738
H18   H     H_    0.896128 0.587519 0.560505 0.157619
H19   H     H_    0.610013 0.101118 0.444267 0.159737
H20   H     H_    0.396128 0.087520 0.560505 0.157619
H21   H     H_    0.106729 0.764486 0.420671 0.173883
H22   H     H_    0.898520 0.756086 0.570581 0.189075
H23   H     H_    0.606728 0.264484 0.420671 0.173887
H24   H     H_    0.398519 0.256087 0.570581 0.189076
H25   H     H_    0.120432 0.812407 0.544110 0.163173
H26   H     H_    0.889063 0.775893 0.444242 0.154291
H27   H     H_    0.620432 0.312405 0.544110 0.163174
H28   H     H_    0.389063 0.275895 0.444242 0.154291
H29   H     H_    0.118183 0.647426 0.565135 0.143396
H30   H     H_    0.890736 0.606714 0.435775 0.127670
H31   H     H_    0.618182 0.147424 0.565135 0.143394
H32   H     H_    0.390736 0.106716 0.435775 0.127670
H33   H     H_    0.446559 0.010322 0.053417 0.113245
H34   H     H_    0.553185 0.009430 0.945876 0.113919
H35   H     H_    0.946538 0.510294 0.053410 0.113241
H36   H     H_    0.053186 0.509433 0.945884 0.113916
H37   H     H_    0.554014 0.647075 0.947219 0.125209
H38   H     H_    0.446147 0.648037 0.053518 0.125123
H39   H     H_    0.054038 0.147079 0.947217 0.125182
H40   H     H_    0.946159 0.148011 0.053509 0.125097
H41   H     H_    0.142628 0.652326 0.927432 0.121398
H42   H     H_    0.857035 0.653840 0.072061 0.120042
H43   H     H_    0.642623 0.152304 0.927424 0.121371
H44   H     H_    0.357042 0.153811 0.072071 0.120001
H45   H     H_    0.134230 0.642978 0.053657 0.138113
H46   H     H_    0.865136 0.644299 0.945876 0.138055
H47   H     H_    0.634215 0.142923 0.053649 0.138122
H48   H     H_    0.365157 0.144230 0.945887 0.138062
H49   H     H_    0.816820 0.859718 0.059235 0.184256
H50   H     H_    0.185025 0.858737 0.941578 0.184782
H51   H     H_    0.316822 0.359721 0.059241 0.184251
H52   H     H_    0.685028 0.358737 0.941572 0.184785
H53   H     H_    0.399527 0.450229 0.071586 0.122243
H54   H     H_    0.601477 0.448145 0.929247 0.123159
H55   H     H_    0.899524 0.950225 0.071585 0.122241
H56   H     H_    0.101479 0.948155 0.929246 0.123151
H57   H     H_    0.409592 0.468577 0.945118 0.138672
H58   H     H_    0.591652 0.466678 0.055696 0.137970
H59   H     H_    0.909592 0.968585 0.945117 0.138677
H60   H     H_    0.091647 0.966704 0.055694 0.137965
H61   H     H_    0.328152 0.374322 0.932495 0.147368
H62   H     H_    0.673973 0.373597 0.068304 0.147047
H63   H     H_    0.828155 0.874324 0.932488 0.147371
H64   H     H_    0.173961 0.873606 0.068311 0.147058
O1    O     O_R   0.214300 0.709080 0.827500 -0.532639
O2    O     O_R   0.785700 0.709080 0.172500 -0.536529
O3    O     O_R   0.714300 0.209080 0.827500 -0.532640
O4    O     O_R   0.285700 0.209080 0.172500 -0.536531
O5    O     O_R   0.445900 0.919370 0.676500 -0.509416
O6    O     O_R   0.554100 0.919370 0.323500 -0.509526
O7    O     O_R   0.945900 0.419370 0.676500 -0.509428
O8    O     O_R   0.054100 0.419370 0.323500 -0.509535
O9    O     O_R   0.456660 0.717710 0.669820 -0.526231
O10   O     O_R   0.543340 0.717710 0.330180 -0.506200
O11   O     O_R   0.956660 0.217710 0.669820 -0.526251
O12   O     O_R   0.043340 0.217710 0.330180 -0.506210
O13   O     O_R   0.320590 0.625770 0.672930 -0.493918
O14   O     O_R   0.679410 0.625770 0.327070 -0.488924
O15   O     O_R   0.820590 0.125770 0.672930 -0.493944
O16   O     O_R   0.179410 0.125770 0.327070 -0.488934
O17   O     O_3   0.334270 0.834280 0.749190 -0.268078
O18   O     O_3   0.665730 0.834280 0.250810 -0.253275
O19   O     O_3   0.834270 0.334280 0.749190 -0.268019
O20   O     O_3   0.165730 0.334280 0.250810 -0.253237
O21   O     O_R   0.236190 0.958390 0.823150 -0.504367
O22   O     O_R   0.763810 0.958390 0.176850 -0.504998
O23   O     O_R   0.736190 0.458390 0.823150 -0.504317
O24   O     O_R   0.263810 0.458390 0.176850 -0.504965
O25   O     O_R   0.332090 0.075280 0.831290 -0.532104
O26   O     O_R   0.667910 0.075280 0.168710 -0.535423
O27   O     O_R   0.832090 0.575280 0.831290 -0.532136
O28   O     O_R   0.167910 0.575280 0.168710 -0.535442
O29   O     O_R   0.446280 0.918040 0.826620 -0.512179
O30   O     O_R   0.553720 0.918040 0.173380 -0.514418
O31   O     O_R   0.946280 0.418040 0.826620 -0.512187
O32   O     O_R   0.053720 0.418040 0.173380 -0.514410
O33   O     O_R   0.457080 0.716270 0.831760 -0.515531
O34   O     O_R   0.542920 0.716270 0.168240 -0.517095
O35   O     O_R   0.957080 0.216270 0.831760 -0.515470
O36   O     O_R   0.042920 0.216270 0.168240 -0.517067
O37   O     O_R   0.320980 0.624440 0.823040 -0.490800
O38   O     O_R   0.679020 0.624440 0.176960 -0.496419
O39   O     O_R   0.820980 0.124440 0.823040 -0.490726
O40   O     O_R   0.179020 0.124440 0.176960 -0.496374
O41   O     O_R   0.213880 0.710510 0.665560 -0.526107
O42   O     O_R   0.786120 0.710510 0.334440 -0.523824
O43   O     O_R   0.713880 0.210510 0.665560 -0.526119
O44   O     O_R   0.286120 0.210510 0.334440 -0.523832
O45   O     O_R   0.235800 0.959720 0.673040 -0.519463
O46   O     O_R   0.764200 0.959720 0.326960 -0.510768
O47   O     O_R   0.735800 0.459720 0.673040 -0.519472
O48   O     O_R   0.264200 0.459720 0.326960 -0.510775
O49   O     O_R   0.331670 0.076720 0.669350 -0.519704
O50   O     O_R   0.668330 0.076720 0.330650 -0.523425
O51   O     O_R   0.831670 0.576720 0.669350 -0.519707
O52   O     O_R   0.168330 0.576720 0.330650 -0.523428
O53   O     O_3   0.358952 0.826442 0.974817 -0.702609
H65   H     H_    0.350525 0.871156 0.929884 0.333673
O54   O     O_3   0.640966 0.825607 0.025341 -0.701194
H66   H     H_    0.649295 0.872578 0.069391 0.333848
O55   O     O_3   0.858969 0.326368 0.974774 -0.702523
H67   H     H_    0.850543 0.371567 0.929995 0.333619
O56   O     O_3   0.140963 0.325601 0.025373 -0.701194
H68   H     H_    0.149286 0.372860 0.069314 0.333851
O57   O     O_3   0.338467 0.460642 0.572158 -0.733920
H69   H     H_    0.308632 0.439356 0.613107 0.346737
O58   O     O_3   0.642486 0.476836 0.434808 -0.744150
H70   H     H_    0.664149 0.444615 0.391089 0.330506
O59   O     O_3   0.838467 0.960641 0.572158 -0.733921
H71   H     H_    0.808634 0.939357 0.613109 0.346736
O60   O     O_3   0.142484 0.976841 0.434808 -0.744145
H72   H     H_    0.164148 0.944615 0.391091 0.330502

loop_
_geom_bond_atom_site_label_1
_geom_bond_atom_site_label_2
_ccdc_geom_bond_type
C83   C87   S    
C55   C56   A    
C75   O59   S    
C67   C83   S    
C7    H39   S    
C5    C114  S    
Cr6   O50   S    
C85   H29   S    
C5    C117  S    
C14   C18   A    
C87   H31   S    
C111  C112  S    
Cr12  O16   S    
C73   C93   A    
C39   C91   S    
C13   C29   S    
Cr11  O11   S    
Cr8   O28   S    
Cr3   O47   S    
C106  O42   A    
C9    C25   A    
C7    C8    S    
Cr2   O46   S    
C63   C79   A    
C74   O58   S    
Cr6   O6    S    
Cr1   O45   S    
Cr7   O19   S    
C57   H9    S    
C46   C118  S    
O53   H65   S    
C85   H25   S    
C12   C28   A    
Cr10  O10   S    
C5    C6    S    
C64   C68   A    
C32   H50   S    
C16   C20   A    
C70   C94   A    
C103  O11   A    
C98   O50   A    
C63   C98   S    
C69   C93   A    
Cr8   O32   S    
C42   C53   A    
C97   O49   A    
O59   H71   S    
Cr4   O44   S    
C71   C95   A    
C73   O57   S    
C67   C71   A    
C83   H23   S    
C59   H5    S    
Cr11  O35   S    
C54   H2    S    
Cr9   O33   S    
C2    O26   A    
C49   C57   S    
Cr4   O24   S    
C57   H7    S    
C90   O38   A    
C33   H57   S    
O57   H69   S    
Cr8   O8    S    
C89   O37   A    
C9    C13   A    
C43   C104  S    
C109  H33   S    
C1    O25   A    
C21   C25   A    
C52   C60   S    
C8    C115  S    
C93   C105  S    
C43   C51   A    
C64   C80   A    
C11   C15   A    
C73   C77   A    
C12   C16   A    
C29   C33   S    
C61   C77   A    
C4    O24   A    
C22   C38   A    
Cr5   O17   S    
C76   C80   A    
C24   H44   S    
O55   H67   S    
Cr12  O20   S    
C91   O39   A    
C23   C27   A    
Cr4   O48   S    
Cr6   O18   S    
C110  C114  S    
C83   H19   S    
C105  O41   A    
C100  O48   A    
Cr7   O27   S    
C101  O5    A    
C91   O3    A    
C10   C26   A    
C47   C119  S    
C32   C36   S    
C96   C108  S    
C59   H11   S    
C59   C60   S    
C5    H37   S    
Cr4   O20   S    
C95   C107  S    
C99   O47   A    
C29   H51   S    
C46   O34   A    
Cr7   O7    S    
Cr6   O30   S    
C1    C12   S    
C45   O33   A    
C107  O15   A    
C55   H3    S    
Cr5   O29   S    
C2    C11   S    
Cr12  O36   S    
C110  C117  S    
C41   C49   A    
C108  O16   A    
C44   C103  S    
C109  C118  S    
Cr3   O43   S    
C26   H46   S    
C111  C115  S    
Cr11  O15   S    
C34   H58   S    
C63   C67   A    
C30   C34   S    
C75   C95   A    
C51   C52   A    
C68   C84   S    
C84   H24   S    
C108  O44   A    
Cr3   O19   S    
O54   H66   S    
C53   H1    S    
C72   C96   A    
C48   C120  S    
C22   H42   S    
C37   C89   S    
C102  O10   A    
C62   C66   A    
C60   H12   S    
C20   C36   S    
C79   H15   S    
Cr11  O39   S    
C53   C54   A    
Cr11  O19   S    
C15   C31   S    
C92   O40   A    
C40   C92   S    
C116  C120  S    
Cr9   O37   S    
C111  C120  S    
Cr1   O17   S    
C7    C116  S    
C113  O53   S    
C15   C19   A    
C36   H64   S    
C6    C113  S    
C100  O52   A    
Cr9   O13   S    
C7    C119  S    
C66   C82   S    
C47   O31   A    
Cr9   O9    S    
C38   C90   S    
C58   H10   S    
C65   C81   S    
C115  O55   S    
C20   C40   A    
C11   C27   A    
C88   H32   S    
C68   C72   A    
Cr7   O51   S    
Cr5   O5    S    
Cr6   O26   S    
C41   C102  S    
C46   O30   A    
C50   C58   S    
C21   C37   A    
C17   C33   S    
C45   O29   A    
Cr2   O2    S    
C88   H28   S    
C35   H59   S    
C109  C113  S    
C28   H48   S    
Cr1   O1    S    
C114  C118  S    
Cr8   O52   S    
C19   C39   A    
Cr8   O20   S    
C61   C65   A    
C86   H30   S    
C84   H20   S    
C47   O35   A    
C3    O23   A    
C64   C97   S    
C76   O60   S    
C42   C50   A    
C56   H4    S    
C21   H41   S    
C10   C14   A    
Cr5   O49   S    
C87   H27   S    
C71   C87   S    
C8    H40   S    
Cr10  O14   S    
C61   C100  S    
C51   C59   S    
C17   C37   A    
C105  O13   A    
C99   O51   A    
O58   H70   S    
C70   C86   S    
C42   C101  S    
C104  O8    A    
C112  C116  S    
C69   C85   S    
C81   H21   S    
C8    C120  S    
C24   C28   A    
C6    H38   S    
C113  C117  S    
C58   H8    S    
C65   C69   A    
C48   O32   A    
Cr3   O23   S    
C94   C106  S    
C3    O27   A    
Cr2   O22   S    
C36   H60   S    
C30   H52   S    
C62   C78   A    
Cr1   O41   S    
C84   C88   S    
C81   H17   S    
C27   H47   S    
C82   H18   S    
C106  O14   A    
Cr10  O38   S    
C44   C52   A    
Cr3   O3    S    
C112  C119  S    
C101  O9    A    
C86   H26   S    
Cr12  O12   S    
C90   O2    A    
C35   H63   S    
C16   C32   S    
Cr1   O21   S    
C89   O1    A    
Cr4   O4    S    
C115  C119  S    
C4    O28   A    
C72   C88   S    
O60   H72   S    
C18   C38   A    
C14   C30   S    
C48   O36   A    
C3    C10   S    
C19   C35   S    
C109  C110  S    
C76   C96   A    
Cr5   O25   S    
C82   C86   S    
C62   C99   S    
C110  H34   S    
C44   C55   A    
C34   H62   S    
C57   C58   S    
Cr2   O42   S    
C77   H13   S    
C107  O43   A    
C18   C34   S    
C23   C39   A    
C114  O54   S    
C32   H56   S    
C74   C78   A    
C24   C40   A    
Cr12  O40   S    
C29   H53   S    
Cr10  O18   S    
C31   C35   S    
C104  O12   A    
C41   C54   A    
Cr9   O17   S    
Cr7   O31   S    
C103  O7    A    
C45   C117  S    
C98   O46   A    
C78   H14   S    
C111  H35   S    
C33   H61   S    
C13   C17   A    
C82   H22   S    
Cr2   O18   S    
C43   C56   A    
C80   H16   S    
C30   H54   S    
C23   H43   S    
C66   C70   A    
C102  O6    A    
C81   C85   S    
C49   C50   A    
C22   C26   A    
C31   H55   S    
C74   C94   A    
C2    O22   A    
Cr10  O34   S    
C1    O21   A    
C97   O45   A    
C4    C9    S    
C92   O4    A    
C25   H45   S    
C75   C79   A    
C6    C118  S    
C31   H49   S    
O56   H68   S    
C60   H6    S    
C116  O56   S    
C112  H36   S    
