data_mof_unit_15103.cif
_audit_creation_date              2012-12-10T16:32:40-0500
_audit_creation_method            fapswitch 2.2
_symmetry_space_group_name_H-M    P1
_symmetry_Int_Tables_number       1
_space_group_crystal_system       triclinic
_cell_length_a                    16.886645
_cell_length_b                    16.913498
_cell_length_c                    16.930549
_cell_angle_alpha                 65.525333
_cell_angle_beta                  64.621435
_cell_angle_gamma                 65.540333
_cell_volume                      3808.36087736

loop_
_atom_site_label
_atom_site_type_symbol
_atom_type_description
_atom_site_fract_x
_atom_site_fract_y
_atom_site_fract_z
_atom_type_partial_charge
C1    C     C_R   0.583881 0.033224 0.601067 0.048608
C2    C     C_R   0.820718 0.561194 0.040019 0.933691
C3    C     C_R   0.430182 0.977168 0.177254 0.951811
C4    C     C_R   0.559185 0.045014 0.821712 0.938074
C5    C     C_R   0.567599 0.822371 0.025629 0.970250
C6    C     C_R   0.437130 0.178784 0.964199 0.950577
C7    C     C_R   0.025897 0.567650 0.822243 0.962574
C8    C     C_R   0.971343 0.433681 0.178291 0.954744
C9    C     C_R   0.822707 0.022949 0.569725 0.944087
C10   C     C_R   0.178331 0.955186 0.440712 0.935968
C11   C     C_R   0.534579 0.017376 0.554402 -0.328021
C12   C     C_R   0.399156 0.967500 0.415314 0.051941
C13   C     C_R   0.445337 0.984162 0.464487 -0.329370
C14   C     C_R   0.012884 0.550921 0.540210 -0.257518
C15   C     C_R   0.979934 0.457171 0.458586 -0.348678
C16   C     C_R   0.553940 0.540985 0.006580 -0.263289
C17   C     C_R   0.464787 0.458172 0.968914 -0.438730
C18   C     C_R   0.576026 0.014362 0.462864 0.593474
C19   C     C_R   0.399594 0.997938 0.552034 0.502049
C20   C     C_R   0.922743 0.557109 0.553017 0.554248
C21   C     C_R   0.070022 0.451505 0.445237 0.537889
C22   C     C_R   0.560076 0.556561 0.916043 0.559539
C23   C     C_R   0.030171 0.596033 0.587520 0.181755
C24   C     C_R   0.459604 0.441605 0.059234 0.545354
C25   C     C_R   0.536867 0.987897 0.423306 0.594674
C26   C     C_R   0.446910 0.003371 0.599649 0.499507
C27   C     C_R   0.515715 0.515445 0.897367 0.506545
C28   C     C_R   0.503897 0.482740 0.077964 0.573304
C29   C     C_R   0.906390 0.510693 0.512240 0.534907
C30   C     C_R   0.086379 0.498198 0.485699 0.567530
C31   C     C_R   0.537575 0.073948 0.673918 0.359981
C32   C     C_R   0.422051 0.999413 0.318673 0.406067
C33   C     C_R   0.056972 0.675609 0.539995 0.353492
C34   C     C_R   0.962997 0.409234 0.413690 0.109313
C35   C     C_R   0.947458 0.323169 0.459295 0.364360
C36   C     C_R   0.675161 0.541049 0.054923 0.349180
C37   C     C_R   0.325445 0.455385 0.950843 0.398410
C38   C     C_R   0.326633 0.926101 0.461772 0.365411
C39   C     C_R   0.680716 0.001139 0.578069 0.405836
C40   C     C_R   0.459727 0.323843 0.944931 0.398990
C41   C     C_R   0.564257 0.682535 0.010235 0.325234
C42   C     C_R   0.974676 0.444935 0.320089 0.378626
C43   C     C_R   0.012775 0.563105 0.682113 0.324186
C44   C     C_R   0.588992 0.071628 0.722656 -0.244518
C45   C     C_R   0.597056 0.588336 0.026617 0.181795
C46   C     C_R   0.391400 0.967798 0.273689 -0.379279
C47   C     C_R   0.060901 0.723110 0.590313 -0.339277
C48   C     C_R   0.943614 0.276516 0.408222 -0.260334
C49   C     C_R   0.721989 0.591095 0.060553 -0.344131
C50   C     C_R   0.277816 0.405238 0.946655 -0.276978
C51   C     C_R   0.277613 0.928183 0.410850 -0.249644
C52   C     C_R   0.726079 0.032419 0.608603 -0.384083
C53   C     C_R   0.407631 0.276647 0.943678 -0.261334
C54   C     C_R   0.603084 0.726570 0.034366 -0.346623
C55   C     C_R   0.958982 0.400345 0.275039 -0.331085
C56   C     C_R   0.417699 0.413950 0.949807 0.057462
C57   C     C_R   0.035254 0.603254 0.726144 -0.345009
C58   C     C_R   0.678176 0.070977 0.679348 0.507556
C59   C     C_R   0.320770 0.928859 0.321826 0.505388
C60   C     C_R   0.064536 0.679931 0.677921 0.538657
C61   C     C_R   0.935868 0.320558 0.322154 0.481133
C62   C     C_R   0.678507 0.678681 0.064543 0.537414
C63   C     C_R   0.322467 0.321023 0.933091 0.456293
C64   C     C_R   0.962647 0.178755 0.437995 0.991521
C65   C     C_R   0.039613 0.821248 0.560979 0.904169
C66   C     C_R   0.179223 0.435997 0.965846 0.985174
F1    F     F_    0.406182 0.993422 0.690445 -0.540180
F2    F     F_    0.609151 0.611613 0.845869 -0.556802
F3    F     F_    0.141982 0.400292 0.393305 -0.561104
F4    F     F_    0.850747 0.608103 0.605152 -0.552050
F5    F     F_    0.719969 0.096741 0.714045 -0.582533
F6    F     F_    0.285896 0.902909 0.280385 -0.594817
F7    F     F_    0.088581 0.717595 0.718421 -0.582716
F8    F     F_    0.913909 0.281250 0.281476 -0.594393
F9    F     F_    0.715013 0.719334 0.089784 -0.586503
F10   F     F_    0.279810 0.278798 0.917080 -0.583124
F11   F     F_    0.590235 0.965135 0.344648 -0.522061
F12   F     F_    0.173874 0.490765 0.473147 -0.543304
F13   F     F_    0.818948 0.517747 0.525034 -0.537051
F14   F     F_    0.496600 0.467205 0.165833 -0.538198
F15   F     F_    0.522205 0.531411 0.809661 -0.541700
F16   F     F_    0.308615 0.007458 0.592436 -0.537230
F17   F     F_    0.654730 0.037574 0.409984 -0.523696
F18   F     F_    0.411028 0.385986 0.129178 -0.552995
H1    H     H_    0.426603 0.145042 0.642068 0.371356
H2    H     H_    0.513296 0.780759 0.919766 0.372625
H3    H     H_    0.062490 0.505907 0.228011 0.371924
H4    H     H_    0.921807 0.509546 0.781367 0.372485
H5    H     H_    0.452553 0.100620 0.213476 0.350194
H6    H     H_    0.118028 0.742862 0.420415 0.376322
H7    H     H_    0.940821 0.321993 0.578620 0.359552
H8    H     H_    0.740077 0.422513 0.116194 0.378163
H9    H     H_    0.322614 0.573776 0.948741 0.365933
H10   H     H_    0.359284 0.855125 0.572124 0.371655
H11   H     H_    0.785810 0.899781 0.547496 0.349711
H12   H     H_    0.582347 0.323183 0.929058 0.363597
O1    O     O_R   0.982940 0.138950 0.510160 -0.562819
O2    O     O_R   0.982940 0.510160 0.138950 -0.612763
O3    O     O_R   0.861050 0.017060 0.489840 -0.595305
O4    O     O_R   0.138950 0.982940 0.510160 -0.563626
O5    O     O_R   0.867700 0.025880 0.612340 -0.558131
O6    O     O_R   0.132300 0.974120 0.387660 -0.586631
O7    O     O_R   0.025880 0.612340 0.867700 -0.555909
O8    O     O_R   0.974120 0.387660 0.132300 -0.564403
O9    O     O_R   0.612340 0.867700 0.025880 -0.553315
O10   O     O_R   0.387660 0.132300 0.974120 -0.572074
O11   O     O_R   0.387660 0.974120 0.132300 -0.555356
O12   O     O_R   0.017060 0.861050 0.489840 -0.631695
O13   O     O_R   0.612340 0.025880 0.867700 -0.584131
O14   O     O_R   0.132300 0.387660 0.974120 -0.564493
O15   O     O_R   0.867700 0.612340 0.025880 -0.555338
O16   O     O_R   0.974120 0.132300 0.387660 -0.565769
O17   O     O_R   0.025880 0.867700 0.612340 -0.559496
O18   O     O_3   0.445293 0.118293 0.697929 -0.618446
O19   O     O_3   0.467707 0.065035 0.271161 -0.624639
O20   O     O_3   0.073579 0.707559 0.446681 -0.665857
O21   O     O_3   0.939734 0.281346 0.550985 -0.662251
O22   O     O_3   0.706920 0.448130 0.070842 -0.673021
O23   O     O_R   0.138950 0.510160 0.982940 -0.571597
O24   O     O_3   0.279555 0.542782 0.958126 -0.672378
O25   O     O_3   0.303145 0.881401 0.553775 -0.619235
O26   O     O_3   0.728056 0.935711 0.532309 -0.626791
O27   O     O_3   0.549801 0.279391 0.944004 -0.667378
O28   O     O_3   0.494684 0.729190 0.971354 -0.669737
O29   O     O_3   0.002548 0.522457 0.274286 -0.662733
O30   O     O_3   0.974402 0.492229 0.729118 -0.678333
O31   O     O_R   0.861050 0.489840 0.017060 -0.630155
O32   O     O_R   0.510160 0.982940 0.138950 -0.595246
O33   O     O_R   0.489840 0.017060 0.861050 -0.579238
O34   O     O_R   0.489840 0.861050 0.017060 -0.607006
O35   O     O_R   0.510160 0.138950 0.982940 -0.579021
O36   O     O_R   0.017060 0.489840 0.861050 -0.608856
Zn1   Zn    Zn3+2 0.004880 0.004880 0.583590 1.203266
Zn2   Zn    Zn3+2 0.995120 0.995120 0.416410 1.153740
Zn3   Zn    Zn3+2 0.004880 0.583590 0.004880 1.170348
Zn4   Zn    Zn3+2 0.995120 0.416410 0.995120 1.142070
Zn5   Zn    Zn3+2 0.583590 0.004880 0.004880 1.179496
Zn6   Zn    Zn3+2 0.416410 0.995120 0.995120 1.180344

loop_
_geom_bond_atom_site_label_1
_geom_bond_atom_site_label_2
_ccdc_geom_bond_type
C8    O2    A    
C16   C28   A    
C4    O13   A    
H5    O19   S    
C11   C18   A    
C46   C59   A    
C40   C56   A    
O14   Zn4   S    
C34   C42   A    
O1    Zn1   S    
C13   C25   A    
C5    O9    A    
C18   C25   A    
C39   O26   S    
C25   F11   S    
C26   F1    S    
C41   O28   S    
H1    O18   S    
C48   C64   S    
C58   F5    S    
O10   Zn6   S    
C63   F10   S    
C35   C48   A    
C60   F7    S    
C1    C31   A    
C23   C43   A    
C43   O30   S    
O13   Zn5   S    
C34   C35   A    
C19   C26   A    
H8    O22   S    
H4    O30   S    
C42   O29   S    
C47   C60   A    
C37   C56   A    
O33   Zn6   S    
C44   C58   A    
C23   C33   A    
C1    C11   S    
H7    O21   S    
H9    O24   S    
H6    O20   S    
C19   F16   S    
C36   O22   S    
C15   C34   S    
C59   F6    S    
C2    O31   A    
C39   C52   A    
C9    O3    A    
O17   Zn1   S    
C12   C32   A    
C50   C63   A    
O8    Zn4   S    
C20   F4    S    
C9    C52   S    
C65   O17   A    
C14   C30   A    
C10   C51   S    
C8    C55   S    
C15   C29   A    
C20   C29   A    
C2    O15   A    
C17   C24   A    
C31   C44   A    
C13   C19   A    
C17   C27   A    
C14   C20   A    
C5    C54   S    
C10   O6    A    
O31   Zn4   S    
C1    C39   A    
C3    O32   A    
C57   C60   A    
C38   C51   A    
C4    C44   S    
C11   C26   A    
C3    O11   A    
O2    Zn3   S    
O23   Zn3   S    
O3    Zn2   S    
C21   F3    S    
C14   C23   S    
O32   Zn5   S    
O6    Zn2   S    
O12   Zn2   S    
O35   Zn5   S    
C2    C49   S    
C42   C55   A    
C8    O8    A    
C29   F13   S    
C27   F15   S    
O36   Zn4   S    
C18   F17   S    
C6    O10   A    
C36   C45   A    
C65   O12   A    
C66   O14   A    
C10   O4    A    
C50   C66   S    
C17   C56   S    
C22   F2    S    
C7    O36   A    
C52   C58   A    
H11   O26   S    
C5    O34   A    
C66   O23   A    
H2    O28   S    
C33   C47   A    
C62   F9    S    
C35   O21   S    
C51   C59   A    
C6    C53   S    
O34   Zn6   S    
H3    O29   S    
O4    Zn1   S    
C40   O27   S    
C64   O1    A    
C33   O20   S    
C16   C22   A    
C49   C62   A    
C31   O18   S    
H12   O27   S    
C32   C46   A    
C24   C28   A    
O16   Zn2   S    
C6    O35   A    
C16   C45   S    
C4    O33   A    
O5    Zn1   S    
C61   F8    S    
C54   C62   A    
C21   C30   A    
C3    C46   S    
C22   C27   A    
O11   Zn6   S    
C24   F18   S    
C37   C50   A    
C53   C63   A    
O15   Zn3   S    
C48   C61   A    
C37   O24   S    
C55   C61   A    
C7    C57   S    
C32   O19   S    
C12   C38   A    
C28   F14   S    
O7    Zn3   S    
C41   C54   A    
C38   O25   S    
C64   O16   A    
C43   C57   A    
O9    Zn5   S    
C30   F12   S    
H10   O25   S    
C15   C21   A    
C12   C13   S    
C9    O5    A    
C40   C53   A    
C41   C45   A    
C7    O7    A    
C47   C65   S    
C36   C49   A    
