data_mof_unit_42692.cif
_audit_creation_date              2013-03-05T15:49:43-0500
_audit_creation_method            fapswitch 2.2
_symmetry_space_group_name_H-M    P1
_symmetry_Int_Tables_number       1
_space_group_crystal_system       triclinic
_cell_length_a                    12.028594
_cell_length_b                    12.857208
_cell_length_c                    13.11606
_cell_angle_alpha                 86.886536
_cell_angle_beta                  113.40091
_cell_angle_gamma                 93.956778
_cell_volume                      1856.3696745

loop_
_atom_site_label
_atom_site_type_symbol
_atom_site_description
_atom_site_fract_x
_atom_site_fract_y
_atom_site_fract_z
_atom_type_partial_charge
O1    O     O_R   0.579910 0.341070 0.505280 -0.622640
O2    O     O_R   0.388440 0.353740 0.492580 -0.610979
C1    C     C_R   0.477265 0.299700 0.499312 0.882496
O3    O     O_R   0.643280 0.490550 0.663120 -0.624061
O4    O     O_R   0.451810 0.503220 0.650420 -0.625516
C2    C     C_R   0.567337 0.500690 0.708413 0.857244
Zn1   Zn    Zn3+2 0.627850 0.491540 0.508480 0.975600
Zn2   Zn    Zn3+2 0.372150 0.508460 0.491520 0.978004
O5    O     O_R   0.611560 0.646260 0.507420 -0.616620
O6    O     O_R   0.420090 0.658930 0.494720 -0.580132
O7    O     O_R   0.548190 0.496780 0.349580 -0.563233
O8    O     O_R   0.356720 0.509450 0.336880 -0.621226
C3    C     C_R   0.521624 0.700560 0.498047 0.927695
C4    C     C_R   0.433578 0.505130 0.291434 0.895542
C5    C     C_R   0.290873 0.628221 0.008024 -0.114680
H1    H     H_    0.239234 0.611160 0.147122 0.188167
H2    H     H_    0.217479 0.678548 0.962444 0.187162
C6    C     C_R   0.396239 0.524062 0.172871 -0.073364
C7    C     C_R   0.717074 0.453486 0.894644 -0.176392
C8    C     C_R   0.748011 0.439123 0.008048 -0.139509
C9    C     C_R   0.670014 0.469034 0.054745 -0.151349
C10   C     C_R   0.561892 0.518964 0.988570 0.094548
C11   C     C_R   0.542310 0.548903 0.878485 0.016048
C12   C     C_R   0.472540 0.539930 0.027907 0.018308
C13   C     C_R   0.377283 0.606265 0.965757 0.043613
C14   C     C_R   0.370537 0.649481 0.863200 0.497444
C15   C     C_R   0.453364 0.620999 0.820623 -0.298796
C16   C     C_R   0.474339 0.494223 0.126931 -0.168799
C17   C     C_R   0.301336 0.588235 0.112179 -0.152724
C18   C     C_R   0.612127 0.505153 0.828877 -0.083100
H3    H     H_    0.539261 0.437259 0.172671 0.147792
H4    H     H_    0.773214 0.421611 0.857926 0.166557
H5    H     H_    0.698006 0.454725 0.143065 0.148042
H6    H     H_    0.829926 0.400580 0.059125 0.154263
H7    H     H_    0.449310 0.657691 0.743073 0.183283
C19   C     C_R   0.534712 0.812411 0.495886 -0.174386
C20   C     C_R   0.460583 0.188904 0.493534 -0.043606
C21   C     C_R   0.337259 0.037324 0.409734 -0.132802
C22   C     C_R   0.347751 0.142991 0.428227 -0.197927
C23   C     C_R   0.562144 0.130073 0.544126 -0.230205
C24   C     C_R   0.552850 0.024552 0.526721 0.136930
C25   C     C_R   0.439425 0.976979 0.458711 0.054065
C26   C     C_R   0.431295 0.870537 0.440988 0.271536
C27   C     C_R   0.646934 0.860627 0.559958 -0.273108
C28   C     C_R   0.656139 0.966788 0.574967 -0.178942
H8    H     H_    0.726092 0.815529 0.602624 0.171359
H9    H     H_    0.249678 0.004449 0.355667 0.198097
H10   H     H_    0.743117 0.003275 0.626363 0.164467
H11   H     H_    0.269372 0.189492 0.387558 0.167726
H12   H     H_    0.649199 0.167145 0.594983 0.155179
N1    N     N_R   0.798200 0.480260 0.519790 -0.154220
N2    N     N_R   0.201820 0.519740 0.480210 -0.122813
C29   C     C_R   0.001301 0.578975 0.378980 -0.256691
C30   C     C_R   0.122384 0.573648 0.392587 0.066164
C31   C     C_R   0.163123 0.465868 0.554086 -0.001635
C32   C     C_R   0.040420 0.466853 0.543036 -0.119570
C33   C     C_R   0.959630 0.528073 0.456060 -0.077538
C34   C     C_R   0.839029 0.536903 0.448501 0.586063
C35   C     C_R   0.874558 0.419376 0.602677 -0.181467
C36   C     C_R   0.996322 0.410882 0.616836 0.212532
H13   H     H_    0.840235 0.376427 0.658281 0.188150
H14   H     H_    0.940754 0.621779 0.307409 0.184282
H15   H     H_    0.152817 0.612024 0.332135 0.180824
H16   H     H_    0.228807 0.423049 0.621735 0.189026
O9    O     O_3   0.760901 0.601965 0.368705 -0.598107
C37   C     C_3   0.788930 0.705873 0.404493 -0.244447
H17   H     H_    0.864131 0.741860 0.383780 0.157904
H18   H     H_    0.812793 0.712737 0.495213 0.145308
H19   H     H_    0.708133 0.752048 0.359561 0.204309
N3    N     N_R   0.071863 0.344175 0.704950 0.203769
O10   O     O_R   0.062902 0.340174 0.800762 -0.400483
O11   O     O_R   0.132793 0.274403 0.684121 -0.386273
O12   O     O_3   0.288205 0.724579 0.808632 -0.600779
C38   C     C_3   0.198088 0.682450 0.711571 -0.271318
H20   H     H_    0.155930 0.607877 0.730070 0.152023
H21   H     H_    0.235121 0.671612 0.647807 0.191183
H22   H     H_    0.125154 0.738379 0.675788 0.198396
N4    N     N_R   0.318964 0.821290 0.367911 0.194692
O13   O     O_R   0.313727 0.775578 0.279921 -0.434797
O14   O     O_R   0.225068 0.814598 0.394176 -0.431559

loop_
_geom_bond_atom_site_label_1
_geom_bond_atom_site_label_2
_geom_bond_distance
_ccdc_geom_bond_type
C37   H18   1.114729 S    
C31   C32   1.425497 A    
C24   C25   1.417271 A    
C4    C6    1.448593 S    
C7    C8    1.387425 A    
C29   C30   1.401339 A    
C26   N4    1.436817 S    
Zn1   O7    1.916690 S    
C14   C15   1.397524 A    
C38   H21   1.111065 S    
C21   C25   1.405432 A    
C20   C23   1.390669 A    
C21   C22   1.381420 A    
O7    C4    1.292332 A    
N4    O14   1.301590 A    
C5    C13   1.408040 A    
C37   H19   1.109494 S    
C9    H5    1.079226 S    
C30   H15   1.081325 S    
C14   O12   1.385350 S    
C32   C33   1.411657 A    
Zn1   O5    2.011069 S    
O12   C38   1.409542 S    
O5    C3    1.289217 A    
N2    C30   1.358972 A    
C38   H22   1.109207 S    
N3    O10   1.301273 A    
C11   C15   1.412571 A    
Zn2   N2    2.009478 S    
N2    C31   1.369731 A    
C8    H6    1.082698 S    
C37   H17   1.109016 S    
C35   C36   1.412605 A    
C9    C10   1.419486 A    
O3    Zn1   1.961372 S    
C7    H4    1.083453 S    
C27   H8    1.083359 S    
C5    C17   1.393710 A    
C35   H13   1.082231 S    
C38   H20   1.113857 S    
C11   C18   1.408555 A    
C6    C16   1.384654 A    
C12   C13   1.422044 A    
C3    C19   1.435818 S    
O3    C2    1.288522 A    
N1    C34   1.373786 A    
C29   C33   1.409614 A    
N4    O13   1.300807 A    
C15   H7    1.082202 S    
H1    C17   1.082567 S    
C32   C36   1.419749 A    
O1    C1    1.284758 A    
C29   H14   1.081964 S    
C34   O9    1.382186 S    
C36   N3    1.436178 S    
Zn2   O8    1.961373 S    
C31   H16   1.079223 S    
C6    C17   1.398003 A    
C21   H9    1.081224 S    
C23   C24   1.377572 A    
C22   H11   1.083761 S    
O8    C4    1.288988 A    
C10   C12   1.410529 A    
C19   C27   1.397394 A    
N1    C35   1.360848 A    
C25   C26   1.390876 A    
C27   C28   1.380239 A    
C28   H10   1.084204 S    
C5    H2    1.083080 S    
C2    C18   1.455820 S    
O1    Zn1   1.978053 S    
C16   H3    1.079460 S    
O2    Zn2   2.011069 S    
C12   C16   1.388962 A    
O6    C3    1.284520 A    
O4    Zn2   1.916689 S    
O2    C1    1.285673 A    
C13   C14   1.401088 A    
Zn1   N1    2.009716 S    
C20   C22   1.394668 A    
C33   C34   1.426328 A    
O4    C2    1.294076 A    
C23   H12   1.086030 S    
C8    C9    1.391057 A    
C1    C20   1.426709 S    
Zn2   O6    1.978051 S    
O9    C37   1.413877 S    
C24   C28   1.395506 A    
C10   C11   1.403725 A    
C19   C26   1.408115 A    
N3    O11   1.301124 A    
C7    C18   1.402663 A    
