data_mof_unit_30299.cif
_audit_creation_date              2012-12-10T20:52:47-0500
_audit_creation_method            fapswitch 2.2
_symmetry_space_group_name_H-M    P1
_symmetry_Int_Tables_number       1
_space_group_crystal_system       triclinic
_cell_length_a                    8.629219
_cell_length_b                    15.848275
_cell_length_c                    15.10027
_cell_angle_alpha                 90.333275
_cell_angle_beta                  98.107109
_cell_angle_gamma                 89.989076
_cell_volume                      2044.41315866

loop_
_atom_site_label
_atom_site_type_symbol
_atom_type_description
_atom_site_fract_x
_atom_site_fract_y
_atom_site_fract_z
_atom_type_partial_charge
C1    C     C_R   0.499981 0.338998 0.499771 0.921485
C2    C     C_R   0.798864 0.499384 0.522606 0.945119
C3    C     C_2   0.040048 0.516799 0.468881 -0.218211
C4    C     C_2   0.959952 0.483198 0.531119 -0.218222
C5    C     C_R   0.536436 0.956388 0.581355 0.365517
C6    C     C_R   0.463140 0.043611 0.418640 0.365575
C7    C     C_R   0.503441 0.912931 0.499600 -0.252321
C8    C     C_R   0.496207 0.087068 0.500390 -0.252251
C9    C     C_R   0.467600 0.955693 0.418014 0.341359
C10   C     C_R   0.532048 0.044305 0.581976 0.341408
C11   C     C_1   0.502378 0.823962 0.500190 0.108845
C12   C     C_R   0.500015 0.661001 0.500228 0.921528
C13   C     C_1   0.497396 0.176036 0.499794 0.108975
C14   C     C_1   0.498735 0.250784 0.499395 -0.162588
C15   C     C_1   0.501154 0.749214 0.500594 -0.162381
C16   C     C_R   0.431775 0.433653 0.945580 0.355631
C17   C     C_R   0.568199 0.566359 0.054418 0.355622
C18   C     C_2   0.983139 0.585557 0.404843 0.381141
C19   C     C_2   0.016860 0.414439 0.595159 0.381139
C20   C     C_3   0.439284 0.118257 0.694086 0.113850
C21   C     C_3   0.478548 0.136727 0.793683 -0.764929
C22   C     C_3   0.560494 0.881843 0.305891 0.113650
C23   C     C_R   0.502393 0.501118 0.905169 -0.127458
C24   C     C_3   0.521085 0.863031 0.206372 -0.764795
C25   C     C_3   0.453440 0.887361 0.698701 0.088642
C26   C     C_3   0.498239 0.811919 0.758650 -0.721233
C27   C     C_3   0.545883 0.112598 0.301180 0.088340
C28   C     C_3   0.501216 0.188316 0.241613 -0.720840
C29   C     C_2   0.358093 0.356904 0.077919 0.390259
C30   C     C_2   0.641852 0.643117 0.922078 0.390346
C31   C     C_3   0.209113 0.383454 0.863562 0.077718
C32   C     C_3   0.134341 0.305597 0.816085 -0.788536
C33   C     C_3   0.790845 0.616581 0.136432 0.077663
C34   C     C_R   0.497589 0.498892 0.094830 -0.127448
C35   C     C_3   0.865554 0.694419 0.183980 -0.788466
C36   C     C_R   0.569436 0.568617 0.960152 -0.139040
C37   C     C_R   0.430534 0.431396 0.039846 -0.138990
C38   C     C_1   0.501086 0.500365 0.807053 0.256009
C39   C     C_1   0.498907 0.499639 0.192946 0.256031
C40   C     C_R   0.201136 0.500614 0.477394 0.945122
H1    H     H_    0.030287 0.590697 0.342189 0.074369
H2    H     H_    0.478894 0.921206 0.170008 0.248440
H3    H     H_    0.626882 0.839920 0.179721 0.215167
H4    H     H_    0.428579 0.813868 0.194954 0.268792
H5    H     H_    0.351871 0.868338 0.648366 0.126038
H6    H     H_    0.416292 0.939239 0.740654 0.154007
H7    H     H_    0.596533 0.828887 0.811423 0.259698
H8    H     H_    0.396544 0.791819 0.791013 0.195833
H9    H     H_    0.534522 0.758543 0.718248 0.284174
H10   H     H_    0.582442 0.060815 0.258903 0.154269
H11   H     H_    0.647825 0.131292 0.351420 0.125854
H12   H     H_    0.969702 0.409295 0.657809 0.074367
H13   H     H_    0.465607 0.241626 0.282335 0.283928
H14   H     H_    0.602762 0.208342 0.209080 0.195795
H15   H     H_    0.402489 0.171689 0.188971 0.259978
H16   H     H_    0.336182 0.299607 0.038455 0.116735
H17   H     H_    0.663746 0.700415 0.961541 0.116764
H18   H     H_    0.195819 0.437051 0.815764 0.148811
H19   H     H_    0.144715 0.398288 0.920767 0.138488
H20   H     H_    0.145613 0.251127 0.862484 0.243704
H21   H     H_    0.008144 0.317383 0.793574 0.211341
H22   H     H_    0.192704 0.290174 0.756989 0.276920
H23   H     H_    0.340272 0.072373 0.684389 0.106283
H24   H     H_    0.855259 0.601813 0.079217 0.138510
H25   H     H_    0.804173 0.562948 0.184183 0.148793
H26   H     H_    0.807165 0.709777 0.243083 0.276975
H27   H     H_    0.991756 0.682648 0.206490 0.211335
H28   H     H_    0.854254 0.748925 0.137628 0.243703
H29   H     H_    0.399861 0.178031 0.660069 0.170808
H30   H     H_    0.571409 0.185679 0.805361 0.268779
H31   H     H_    0.372820 0.159974 0.820310 0.215158
H32   H     H_    0.520204 0.078372 0.829871 0.248436
H33   H     H_    0.600394 0.822231 0.340093 0.170688
H34   H     H_    0.659207 0.927915 0.315344 0.106278
N1    N     N_1   0.499960 0.500020 0.270540 -0.087533
N2    N     N_1   0.500040 0.499980 0.729460 -0.087533
O1    O     O_R   0.500000 0.378020 0.573650 -0.598529
O2    O     O_2   0.108001 0.360434 0.576274 -0.573371
O3    O     O_3   0.574797 0.087379 0.661797 -0.562727
O4    O     O_3   0.424914 0.912608 0.338194 -0.562732
O5    O     O_3   0.585345 0.913145 0.659769 -0.553065
O6    O     O_3   0.414094 0.086856 0.340245 -0.553134
O7    O     O_2   0.318457 0.358628 0.152358 -0.590991
O8    O     O_2   0.681481 0.641399 0.847637 -0.590988
O9    O     O_3   0.369041 0.366913 0.892666 -0.625858
O10   O     O_3   0.630909 0.633104 0.107332 -0.625886
O11   O     O_R   0.500000 0.621980 0.426350 -0.598544
O12   O     O_R   0.500070 0.378020 0.426320 -0.612625
O13   O     O_R   0.499930 0.621980 0.573680 -0.612520
O14   O     O_R   0.271720 0.500000 0.556430 -0.588841
O15   O     O_R   0.728280 0.500000 0.443570 -0.588835
O16   O     O_R   0.271790 0.500000 0.409110 -0.637454
O17   O     O_R   0.728210 0.500000 0.590890 -0.637461
O18   O     O_2   0.892010 0.639566 0.423732 -0.573387
Zn1   Zn    Zn3+2 0.499950 0.500000 0.598370 1.019781
Zn2   Zn    Zn3+2 0.500050 0.500000 0.401630 1.019748

loop_
_geom_bond_atom_site_label_1
_geom_bond_atom_site_label_2
_ccdc_geom_bond_type
O12   Zn2   S    
C8    C13   S    
C31   O9    S    
C34   C37   A    
C1    O1    A    
C6    C9    A    
C33   H25   S    
O14   Zn1   S    
C38   N2    T    
C7    C11   S    
C21   H31   S    
C6    O6    S    
C31   H18   S    
C32   H21   S    
C29   O7    D    
N2    Zn1   S    
C30   H17   S    
O16   Zn2   S    
C24   H2    S    
C3    C18   S    
C31   H19   S    
O15   Zn2   S    
C4    C19   S    
C11   C15   T    
C19   H12   S    
C17   C36   A    
C39   N1    T    
C20   O3    S    
C27   H10   S    
C26   H8    S    
C16   C37   A    
C1    O12   A    
O17   Zn1   S    
C13   C14   T    
C25   O5    S    
C28   H15   S    
C27   H11   S    
N1    Zn2   S    
C27   O6    S    
C21   H32   S    
C17   O10   S    
C12   O13   A    
C26   H9    S    
C5    C7    A    
C28   H14   S    
C6    C8    A    
C35   H26   S    
C25   C26   S    
O1    Zn1   S    
C34   C39   S    
C9    O4    S    
O13   Zn1   S    
C19   O2    D    
C2    C4    S    
C33   O10   S    
C5    O5    S    
C31   C32   S    
C12   C15   S    
C35   H27   S    
C28   H13   S    
O11   Zn2   S    
C40   O16   A    
C26   H7    S    
C3    C40   S    
C16   C23   A    
C16   O9    S    
C24   H4    S    
C22   C24   S    
C20   H29   S    
C18   H1    S    
C17   C34   A    
C22   H34   S    
C3    C4    D    
C25   H5    S    
C7    C9    A    
C12   O11   A    
C2    O17   A    
C10   O3    S    
C29   H16   S    
C23   C38   S    
C30   C36   S    
C21   H30   S    
C20   H23   S    
C32   H22   S    
C5    C10   A    
C35   H28   S    
C33   H24   S    
C18   O18   D    
C33   C35   S    
C30   O8    D    
C2    O15   A    
C22   O4    S    
C20   C21   S    
C8    C10   A    
C23   C36   A    
C29   C37   S    
C27   C28   S    
C24   H3    S    
C32   H20   S    
C1    C14   S    
C22   H33   S    
C40   O14   A    
C25   H6    S    
