data_mof_unit_62057.cif
_audit_creation_date              2012-10-26T19:36:40-0400
_audit_creation_method            fapswitch 2.2
_symmetry_space_group_name_H-M    P1
_symmetry_Int_Tables_number       1
_space_group_crystal_system       triclinic
_cell_length_a                    17.74058
_cell_length_b                    16.451002
_cell_length_c                    10.774531
_cell_angle_alpha                 89.880773
_cell_angle_beta                  90.200737
_cell_angle_gamma                 90.007843
_cell_volume                      3144.52415484

loop_
_atom_site_label
_atom_site_type_symbol
_atom_type_description
_atom_site_fract_x
_atom_site_fract_y
_atom_site_fract_z
_atom_type_partial_charge
C1    C     C_R   0.355219 0.499985 0.500067 0.593336
C2    C     C_1   0.033627 0.500087 0.503011 0.033014
C3    C     C_R   0.153379 0.564495 0.555552 -0.113437
C4    C     C_R   0.152713 0.435424 0.448295 -0.109687
C5    C     C_R   0.232505 0.565225 0.555646 0.191547
C6    C     C_R   0.231838 0.434604 0.446796 0.191104
C7    C     C_R   0.272066 0.499957 0.500715 0.087151
C8    C     C_R   0.497697 0.500365 0.259374 0.570585
C9    C     C_R   0.114118 0.499984 0.502276 -0.031338
C10   C     C_R   0.549435 0.827664 0.581087 0.179689
C11   C     C_R   0.547689 0.172116 0.583744 0.178301
C12   C     C_3   0.570846 0.463481 0.929948 -0.268565
C13   C     C_R   0.547349 0.742002 0.577840 0.108698
C14   C     C_R   0.545750 0.257774 0.580351 0.104831
C15   C     C_R   0.453010 0.743385 0.422871 0.055534
C16   C     C_R   0.454578 0.256894 0.420251 0.040980
C17   C     C_R   0.452408 0.829675 0.421366 0.211288
C18   C     C_R   0.453907 0.170597 0.418792 0.208001
C19   C     C_R   0.501030 0.873000 0.501265 0.052543
C20   C     C_R   0.500880 0.127026 0.501333 0.052654
C21   C     C_1   0.500431 0.962778 0.500273 0.060884
C22   C     C_1   0.500369 0.037251 0.500269 0.061245
C23   C     C_R   0.846792 0.558508 0.431468 0.192345
C24   C     C_R   0.644602 0.500020 0.499861 0.630674
C25   C     C_R   0.499123 0.500104 0.740408 0.544344
C26   C     C_3   0.483813 0.592394 0.068234 0.195315
C27   C     C_3   0.430222 0.443473 0.069694 0.179335
C28   C     C_3   0.491094 0.589908 0.924791 -0.191267
C29   C     C_3   0.427915 0.452467 0.925224 -0.194977
C30   C     C_3   0.571850 0.468819 0.072732 -0.265967
C31   C     C_3   0.494779 0.501722 0.121090 0.145493
C32   C     C_3   0.497235 0.501043 0.877738 -0.023190
C33   C     C_R   0.846449 0.441487 0.571615 0.192974
C34   C     C_R   0.766993 0.559524 0.432008 0.167822
C35   C     C_R   0.766654 0.442329 0.572720 0.171631
C36   C     C_R   0.727523 0.499954 0.500055 0.027962
C37   C     C_R   0.885248 0.500948 0.503864 0.051905
C38   C     C_1   0.966059 0.500367 0.503528 0.133998
Cu1   Cu    Cu3+1 0.499980 0.580420 0.499990 1.003903
Cu2   Cu    Cu3+1 0.499980 0.419580 0.499990 0.992212
H1    H     H_    0.584225 0.707712 0.638660 0.157911
H2    H     H_    0.585067 0.408104 0.112651 0.149622
H3    H     H_    0.620720 0.496076 0.891953 0.136963
H4    H     H_    0.575482 0.398802 0.900899 0.150604
H5    H     H_    0.122350 0.614032 0.597570 0.126104
H6    H     H_    0.121168 0.385865 0.407005 0.124884
H7    H     H_    0.594820 0.636112 0.081476 0.218677
H8    H     H_    0.528341 0.707583 0.093054 0.259539
H9    H     H_    0.487550 0.332997 0.048019 0.226171
H10   H     H_    0.397359 0.322709 0.086315 0.231475
H11   H     H_    0.235865 0.668066 0.645070 0.329277
H12   H     H_    0.581444 0.291880 0.643084 0.189130
H13   H     H_    0.234105 0.331549 0.357844 0.326218
H14   H     H_    0.595955 0.923125 0.657140 0.327387
H15   H     H_    0.592333 0.076434 0.662745 0.326873
H16   H     H_    0.375025 0.833249 0.293326 0.327774
H17   H     H_    0.379060 0.167427 0.286732 0.323524
H18   H     H_    0.394941 0.614715 0.192136 0.259256
H19   H     H_    0.366430 0.605124 0.043055 0.252829
H20   H     H_    0.314066 0.431641 0.079965 0.239155
H21   H     H_    0.355496 0.452337 0.216289 0.277563
H22   H     H_    0.858787 0.626277 0.284785 0.343241
H23   H     H_    0.415624 0.709891 0.362274 0.130960
H24   H     H_    0.857586 0.332427 0.638932 0.348412
H25   H     H_    0.755850 0.668414 0.364426 0.344379
H26   H     H_    0.756097 0.376527 0.721838 0.338351
H27   H     H_    0.418608 0.290656 0.357353 0.170937
H28   H     H_    0.442243 0.620742 0.879668 0.156098
H29   H     H_    0.375662 0.484530 0.895109 0.129148
H30   H     H_    0.541522 0.624522 0.893281 0.123755
H31   H     H_    0.425640 0.391607 0.880450 0.131328
H32   H     H_    0.619402 0.507648 0.103791 0.134674
N1    N     N_R   0.499970 0.701220 0.499970 -0.273664
N2    N     N_R   0.499970 0.298780 0.499970 -0.288141
N3    N     N_3   0.541684 0.647889 0.118762 -0.551314
N4    N     N_3   0.445390 0.357830 0.103783 -0.609101
N5    N     N_3   0.409488 0.627035 0.100308 -0.604424
N6    N     N_3   0.356570 0.466361 0.121641 -0.652735
O1    O     O_R   0.391240 0.567930 0.499990 -0.469592
O2    O     O_3   0.270630 0.371574 0.391406 -0.713982
O3    O     O_3   0.599376 0.863290 0.663262 -0.694169
O4    O     O_3   0.595922 0.136252 0.668618 -0.689674
O5    O     O_3   0.404972 0.872407 0.343046 -0.654359
O6    O     O_3   0.408038 0.128109 0.337935 -0.655225
O7    O     O_3   0.888754 0.610974 0.358912 -0.691518
O8    O     O_3   0.888025 0.382737 0.633089 -0.693081
O9    O     O_3   0.726275 0.617393 0.367186 -0.685035
O10   O     O_3   0.725546 0.390590 0.647770 -0.703469
O11   O     O_R   0.391240 0.432070 0.499990 -0.466853
O12   O     O_R   0.499970 0.567910 0.317690 -0.481086
O13   O     O_R   0.499970 0.432090 0.317690 -0.495169
O14   O     O_R   0.608730 0.567880 0.500000 -0.466079
O15   O     O_R   0.608730 0.432120 0.500000 -0.467644
O16   O     O_R   0.500000 0.567910 0.682300 -0.520236
O17   O     O_R   0.500000 0.432090 0.682300 -0.514632
O18   O     O_3   0.271989 0.627906 0.611146 -0.683901

loop_
_geom_bond_atom_site_label_1
_geom_bond_atom_site_label_2
_ccdc_geom_bond_type
C27   C29   S    
C35   C36   A    
Cu2   O15   S    
C27   N6    S    
H19   N5    S    
C13   H1    S    
C28   H28   S    
C4    H6    S    
H20   N6    S    
C24   C36   S    
C16   N2    A    
C14   N2    A    
C19   C21   S    
C12   H3    S    
H26   O10   S    
C30   C31   S    
C11   C14   A    
H18   N5    S    
C17   C19   A    
C16   H27   S    
C14   H12   S    
C18   O6    S    
Cu2   O11   S    
C10   C19   A    
Cu1   O12   S    
C18   C20   A    
H11   O18   S    
C25   C32   S    
C25   O16   A    
C21   C22   T    
C12   C32   S    
H8    N3    S    
C24   O14   A    
H24   O8    S    
H25   O9    S    
C29   H29   S    
C11   O4    S    
H22   O7    S    
C11   C20   A    
H9    N4    S    
C26   N5    S    
C27   C31   S    
C28   C32   S    
H13   O2    S    
C4    C6    A    
Cu1   Cu2   S    
C5    C7    A    
C23   C37   A    
C3    H5    S    
C33   C37   A    
C17   O5    S    
Cu1   O1    S    
C33   O8    S    
Cu1   O16   S    
C37   C38   S    
C3    C9    A    
H10   N4    S    
C35   O10   S    
C2    C38   T    
C6    O2    S    
H21   N6    S    
C23   C34   A    
C26   N3    S    
H17   O6    S    
C8    O13   A    
H15   O4    S    
C15   N1    A    
C20   C22   S    
C25   O17   A    
C1    O1    A    
C8    O12   A    
Cu2   O17   S    
C27   N4    S    
Cu1   O14   S    
C5    O18   S    
H16   O5    S    
C15   C17   A    
C1    O11   A    
C12   C30   S    
C1    C7    S    
C8    C31   S    
C28   H30   S    
C13   N1    A    
C3    C5    A    
C10   C13   A    
C30   H32   S    
C6    C7    A    
C29   C32   S    
C10   O3    S    
C26   C28   S    
H7    N3    S    
C12   H4    S    
C24   O15   A    
C33   C35   A    
Cu2   N2    S    
C34   C36   A    
C34   O9    S    
Cu1   N1    S    
Cu2   O13   S    
C26   C31   S    
C16   C18   A    
C23   O7    S    
C15   H23   S    
C30   H2    S    
C4    C9    A    
C2    C9    S    
H14   O3    S    
C29   H31   S    
