data_mof_unit_14542.cif
_audit_creation_date              2012-12-10T17:10:23-0500
_audit_creation_method            fapswitch 2.2
_symmetry_space_group_name_H-M    P1
_symmetry_Int_Tables_number       1
_space_group_crystal_system       triclinic
_cell_length_a                    15.728013
_cell_length_b                    10.611648
_cell_length_c                    10.050349
_cell_angle_alpha                 87.041464
_cell_angle_beta                  89.590592
_cell_angle_gamma                 90.358359
_cell_volume                      1675.08929139

loop_
_atom_site_label
_atom_site_type_symbol
_atom_type_description
_atom_site_fract_x
_atom_site_fract_y
_atom_site_fract_z
_atom_type_partial_charge
C1    C     C_R   0.498789 0.262308 0.503931 0.828894
C2    C     C_2   0.525634 0.868812 0.481622 -0.414875
C3    C     C_2   0.570261 0.068498 0.555261 0.024519
C4    C     C_R   0.338063 0.499529 0.500448 0.890738
C5    C     C_2   0.497180 0.127431 0.518233 0.254766
C6    C     C_2   0.548814 0.571925 0.922396 -0.027566
C7    C     C_2   0.558257 0.555334 0.071340 -0.132884
C8    C     C_R   0.506115 0.737497 0.496102 0.960139
C9    C     C_R   0.661906 0.499148 0.499679 0.869644
C10   C     C_3   0.971109 0.397694 0.578011 0.412206
C11   C     C_3   0.027073 0.388734 0.452547 0.420562
C12   C     C_3   0.083225 0.496235 0.502303 -0.030896
C13   C     C_1   0.249243 0.497805 0.501593 -0.191374
C14   C     C_1   0.750671 0.498133 0.499112 -0.194827
C15   C     C_3   0.026457 0.505684 0.626209 0.140094
C16   C     C_3   0.001361 0.189726 0.378418 -0.307938
C17   C     C_3   0.355311 0.119772 0.451362 -0.280582
C18   C     C_3   0.393899 0.346443 0.892806 -0.681380
C19   C     C_3   0.991913 0.232222 0.733107 -0.347688
C20   C     C_3   0.004344 0.479408 0.139442 -0.741743
C21   C     C_3   0.091975 0.636065 0.791622 -0.766973
C22   C     C_3   0.685955 0.825034 0.646841 -0.329173
C23   C     C_3   0.971395 0.605942 0.551411 -0.233845
C24   C     C_3   0.676816 0.162698 0.694160 -0.715281
C25   C     C_3   0.916610 0.497091 0.501085 -0.034946
C26   C     C_3   0.029515 0.597320 0.425592 -0.232820
C27   C     C_3   0.973640 0.489085 0.377449 0.137792
C28   C     C_1   0.174022 0.496581 0.502243 0.022254
C29   C     C_1   0.825857 0.497481 0.499632 0.022553
C30   C     C_2   0.569314 0.930899 0.571760 0.590414
H1    H     H_    0.584861 0.647471 0.871281 0.160285
H2    H     H_    0.376716 0.138518 0.346353 0.163266
H3    H     H_    0.333357 0.207905 0.495559 0.160502
H4    H     H_    0.299985 0.054529 0.450032 0.196034
H5    H     H_    0.523777 0.315810 0.884250 0.236625
H6    H     H_    0.379130 0.263826 0.961509 0.207309
H7    H     H_    0.382964 0.318891 0.789461 0.265948
H8    H     H_    0.350350 0.424411 0.916394 0.222397
H9    H     H_    0.998828 0.278429 0.829035 0.184099
H10   H     H_    0.054966 0.223635 0.683196 0.169109
H11   H     H_    0.967790 0.135106 0.756550 0.187979
H12   H     H_    0.613918 0.595647 0.116466 0.155091
H13   H     H_    0.891918 0.419756 0.234970 0.219177
H14   H     H_    0.039615 0.389093 0.148596 0.258379
H15   H     H_    0.049622 0.559710 0.144568 0.240747
H16   H     H_    0.972910 0.486388 0.040788 0.246811
H17   H     H_    0.100007 0.441671 0.786445 0.216922
H18   H     H_    0.114935 0.631965 0.895966 0.232253
H19   H     H_    0.041240 0.708188 0.782749 0.242089
H20   H     H_    0.145886 0.663933 0.724129 0.246280
H21   H     H_    0.730177 0.903767 0.616799 0.180632
H22   H     H_    0.681516 0.758312 0.565440 0.146204
H23   H     H_    0.442737 0.484151 0.106483 0.212648
H24   H     H_    0.713645 0.773000 0.734577 0.187758
H25   H     H_    0.658431 0.208095 0.492934 0.211159
H26   H     H_    0.742316 0.202437 0.689180 0.257441
H27   H     H_    0.677143 0.076645 0.761672 0.268242
H28   H     H_    0.633999 0.233508 0.735926 0.243486
H29   H     H_    0.055492 0.677995 0.362966 0.162505
H30   H     H_    0.945723 0.693665 0.591409 0.157201
H31   H     H_    0.505465 0.917467 0.389217 0.134975
H32   H     H_    0.945918 0.229233 0.323084 0.155847
H33   H     H_    0.980195 0.142591 0.474103 0.201188
H34   H     H_    0.029407 0.116179 0.317365 0.181293
N1    N     N_2   0.500900 0.501330 0.852150 -0.030648
N2    N     N_2   0.500930 0.501360 0.147810 -0.181616
N3    N     N_2   0.481368 0.384113 0.910359 -0.249422
N4    N     N_2   0.940763 0.483903 0.243605 -0.295484
N5    N     N_2   0.058921 0.513847 0.760100 -0.297202
N6    N     N_2   0.650016 0.133504 0.561775 -0.343283
O1    O     O_R   0.499990 0.319060 0.613040 -0.622038
O2    O     O_3   0.419714 0.061708 0.529624 -0.626685
O3    O     O_3   0.931627 0.297157 0.652975 -0.609809
O4    O     O_3   0.605368 0.870591 0.682977 -0.594974
O5    O     O_R   0.500010 0.319100 0.386900 -0.626180
O6    O     O_R   0.376760 0.499970 0.613050 -0.610980
O7    O     O_R   0.376790 0.500010 0.386910 -0.610523
O8    O     O_R   0.499990 0.680900 0.613100 -0.557594
O9    O     O_R   0.500010 0.680940 0.386960 -0.625061
O10   O     O_R   0.623210 0.499990 0.613090 -0.615412
O11   O     O_R   0.623240 0.500030 0.386950 -0.614729
O12   O     O_3   0.064371 0.281273 0.399672 -0.613053
Zn1   Zn    Zn3+2 0.499980 0.499970 0.650990 0.962590
Zn2   Zn    Zn3+2 0.500020 0.500030 0.349010 0.940439

loop_
_geom_bond_atom_site_label_1
_geom_bond_atom_site_label_2
_ccdc_geom_bond_type
C21   H19   S    
C24   N6    S    
C22   H24   S    
C26   C27   S    
C1    O1    A    
C17   H3    S    
C12   C28   S    
C1    C5    S    
C18   H7    S    
C5    O2    S    
C10   C15   S    
O9    Zn2   S    
C30   O4    S    
C10   O3    S    
O5    Zn2   S    
N1    Zn1   S    
C7    H12   S    
C4    C13   S    
C23   C26   S    
H17   N5    S    
C27   N4    S    
O8    Zn1   S    
C6    N1    D    
H13   N4    S    
N1    N3    S    
C8    O9    A    
C13   C28   T    
C16   H33   S    
C11   C27   S    
C26   H29   S    
C20   H15   S    
C2    H31   S    
C21   H18   S    
C15   C23   S    
C6    H1    S    
C8    O8    A    
C16   H32   S    
O10   Zn1   S    
O6    Zn1   S    
C21   H20   S    
C20   H14   S    
O1    Zn1   S    
C11   O12   S    
C25   C29   S    
C23   H30   S    
C15   N5    S    
C1    O5    A    
C19   O3    S    
C3    N6    S    
C19   H10   S    
C24   H27   S    
O7    Zn2   S    
C18   N3    S    
C12   C26   S    
C9    O10   A    
C3    C30   S    
C9    C14   S    
C12   C15   S    
H5    N3    S    
C16   O12   S    
H23   N2    S    
C19   H9    S    
C10   C25   S    
C25   C27   S    
C17   H4    S    
C22   O4    S    
C14   C29   T    
O11   Zn2   S    
C22   H22   S    
C20   N4    S    
C2    C8    S    
C3    C5    D    
C11   C12   S    
C6    C7    S    
C24   H26   S    
C2    C30   D    
C18   H8    S    
C4    O7    A    
C7    N2    D    
C23   C25   S    
C4    O6    A    
H25   N6    S    
C10   C11   S    
N2    Zn2   S    
C17   O2    S    
C24   H28   S    
C21   N5    S    
C17   H2    S    
C16   H34   S    
C18   H6    S    
C20   H16   S    
C19   H11   S    
C9    O11   A    
C22   H21   S    
