data_mof_unit_59384.cif
_audit_creation_date              2012-10-26T19:00:12-0400
_audit_creation_method            fapswitch 2.2
_symmetry_space_group_name_H-M    P1
_symmetry_Int_Tables_number       1
_space_group_crystal_system       triclinic
_cell_length_a                    10.866381
_cell_length_b                    10.786245
_cell_length_c                    9.57772
_cell_angle_alpha                 91.359238
_cell_angle_beta                  92.203762
_cell_angle_gamma                 88.285091
_cell_volume                      1120.9611199

loop_
_atom_site_label
_atom_site_type_symbol
_atom_type_description
_atom_site_fract_x
_atom_site_fract_y
_atom_site_fract_z
_atom_type_partial_charge
C1    C     C_R   0.500614 0.262638 0.498188 0.553465
C2    C     C_R   0.857243 0.397976 0.980674 -0.114717
C3    C     C_R   0.899416 0.274324 0.995743 0.091972
C4    C     C_R   0.262354 0.504037 0.497148 0.539363
C5    C     C_R   0.936753 0.206253 0.877992 -0.082952
C6    C     C_R   0.937723 0.262338 0.748172 -0.149665
C7    C     C_R   0.902083 0.387938 0.733871 0.034266
C8    C     C_R   0.600098 0.062455 0.557397 -0.007950
C9    C     C_R   0.504165 0.129373 0.491422 0.009649
C10   C     C_R   0.416443 0.065315 0.408739 -0.136316
C11   C     C_R   0.414550 0.935850 0.412983 -0.156004
C12   C     C_R   0.153770 0.703367 0.992435 0.102160
C13   C     C_R   0.500359 0.870982 0.499655 0.011044
C14   C     C_R   0.598843 0.934862 0.560950 0.106825
C15   C     C_3   0.654737 0.935051 0.705937 -0.041514
C16   C     C_R   0.499589 0.737535 0.500984 0.577751
C17   C     C_3   0.658151 0.075647 0.699845 -0.271625
C18   C     C_R   0.453045 0.598962 0.074479 0.136884
C19   C     C_R   0.539537 0.397779 0.071779 0.196930
C20   C     C_R   0.540060 0.398913 0.923704 0.001239
C21   C     C_R   0.453785 0.598993 0.927214 0.137168
C22   C     C_3   0.501432 0.726603 0.928860 -0.285279
C23   C     C_R   0.927317 0.580054 0.401813 0.026784
C24   C     C_3   0.497552 0.728071 0.086125 -0.264657
C25   C     C_R   0.737724 0.502942 0.503033 0.576356
C26   C     C_R   0.150923 0.786561 0.109203 0.102404
C27   C     C_R   0.128675 0.739672 0.241784 -0.107409
C28   C     C_R   0.109974 0.612863 0.258445 0.049411
C29   C     C_R   0.120204 0.530963 0.143632 -0.063995
C30   C     C_R   0.141659 0.575842 0.011829 -0.119197
C31   C     C_2   0.165623 0.922444 0.095184 0.558888
C32   C     C_2   0.852647 0.668566 0.312779 0.584554
C33   C     C_R   0.871601 0.514868 0.508958 -0.017647
C34   C     C_R   0.946214 0.454811 0.612862 -0.047253
C35   C     C_R   0.072848 0.456011 0.604365 -0.157998
C36   C     C_R   0.128314 0.508412 0.492699 -0.026628
C37   C     C_R   0.055874 0.567933 0.387058 -0.051553
C38   C     C_R   0.859998 0.454944 0.851025 -0.079872
Cu1   Cu    Cu3+1 0.499990 0.499980 0.640670 0.945594
Cu2   Cu    Cu3+1 0.500010 0.500020 0.359330 1.000679
H1    H     H_    0.969432 0.110904 0.887923 0.161005
H2    H     H_    0.434813 0.793945 0.879408 0.160250
H3    H     H_    0.590096 0.734087 0.138772 0.178621
H4    H     H_    0.426636 0.794148 0.127159 0.143030
H5    H     H_    0.119480 0.802082 0.331320 0.144827
H6    H     H_    0.104497 0.433053 0.154811 0.137106
H7    H     H_    0.144414 0.511745 0.923275 0.120077
H8    H     H_    0.129486 0.410776 0.685162 0.146981
H9    H     H_    0.837018 0.553103 0.844223 0.149915
H10   H     H_    0.827049 0.451429 0.070511 0.169640
H11   H     H_    0.236021 0.701431 0.806314 0.237918
H12   H     H_    0.974261 0.210040 0.660285 0.124927
H13   H     H_    0.082033 0.724154 0.796712 0.235268
H14   H     H_    0.881075 0.281160 0.208038 0.233020
H15   H     H_    0.853423 0.142836 0.129561 0.240770
H16   H     H_    0.832727 0.908810 0.637993 0.263019
H17   H     H_    0.817402 0.893817 0.811041 0.226682
H18   H     H_    0.669144 0.263941 0.106234 0.199577
H19   H     H_    0.523524 0.216252 0.107630 0.214125
H20   H     H_    0.149548 0.093547 0.183824 0.349411
H21   H     H_    0.812054 0.735514 0.120715 0.323767
H22   H     H_    0.346086 0.115326 0.347726 0.146702
H23   H     H_    0.343458 0.887019 0.353892 0.133760
H24   H     H_    0.592113 0.904442 0.785045 0.141988
H25   H     H_    0.596370 0.122731 0.775271 0.125362
H26   H     H_    0.751726 0.112606 0.696525 0.144567
H27   H     H_    0.575591 0.318779 0.867493 0.120147
H28   H     H_    0.597154 0.726137 0.891868 0.154969
N1    N     N_R   0.500790 0.500930 0.147930 -0.202253
N2    N     N_R   0.500790 0.500890 0.852020 -0.249585
N3    N     N_3   0.162339 0.748033 0.853493 -0.583681
N4    N     N_3   0.911127 0.218705 0.130463 -0.623820
N5    N     N_3   0.776563 0.873186 0.712930 -0.611439
N6    N     N_3   0.581658 0.287724 0.140288 -0.565819
O1    O     O_R   0.500000 0.319640 0.618810 -0.516879
O2    O     O_R   0.135105 0.003669 0.205363 -0.724481
O3    O     O_2   0.781080 0.742768 0.367615 -0.518633
O4    O     O_R   0.864796 0.668504 0.168007 -0.729833
O5    O     O_R   0.500010 0.319680 0.381230 -0.463900
O6    O     O_R   0.319640 0.499990 0.618790 -0.515317
O7    O     O_R   0.319650 0.500030 0.381210 -0.502010
O8    O     O_R   0.499990 0.680320 0.618770 -0.505547
O9    O     O_R   0.500000 0.680360 0.381190 -0.497498
O10   O     O_R   0.680350 0.499970 0.618790 -0.496508
O11   O     O_R   0.680360 0.500010 0.381210 -0.474035
O12   O     O_2   0.205233 0.963993 0.988591 -0.507347

loop_
_geom_bond_atom_site_label_1
_geom_bond_atom_site_label_2
_ccdc_geom_bond_type
C4    C36   S    
C18   C21   A    
C20   H27   S    
C35   C36   A    
C38   H9    S    
C17   H26   S    
C18   C24   S    
C36   C37   A    
Cu1   O10   S    
C4    O6    A    
C11   H23   S    
C5    C6    A    
C34   C35   A    
H17   N5    S    
C2    H10   S    
C32   O3    D    
C7    C38   A    
C4    O7    A    
C19   C20   A    
C8    C9    A    
C23   C33   A    
C25   O10   A    
C15   H24   S    
Cu1   O1    S    
C9    C10   A    
H15   N4    S    
C27   H5    S    
C18   N1    A    
C26   C31   S    
C31   O12   D    
C13   C14   A    
Cu2   O9    S    
C20   N2    A    
C10   H22   S    
H11   N3    S    
C35   H8    S    
C16   O8    A    
Cu2   N1    S    
C1    O1    A    
C30   H7    S    
C1    C9    S    
Cu1   Cu2   S    
C23   C37   A    
H20   O2    S    
C16   O9    A    
C12   C26   A    
Cu2   O11   S    
C29   C30   A    
C2    C38   A    
H21   O4    S    
C25   O11   A    
C33   C34   A    
C26   C27   A    
Cu2   O5    S    
H19   N6    S    
C22   H28   S    
C15   N5    S    
C12   N3    S    
C1    O5    A    
C7    C34   S    
C22   C24   S    
C19   N1    A    
H13   N3    S    
H18   N6    S    
C15   C17   S    
C5    H1    S    
C28   C29   A    
C8    C14   A    
H16   N5    S    
C12   C30   A    
Cu2   O7    S    
C19   N6    S    
Cu1   O8    S    
C3    C5    A    
C6    C7    A    
C21   N2    A    
C17   H25   S    
C8    C17   S    
C29   H6    S    
C23   C32   S    
C2    C3    A    
Cu1   O6    S    
C11   C13   A    
C31   O2    S    
C22   H2    S    
C28   C37   S    
C24   H4    S    
Cu1   N2    S    
C3    N4    S    
C10   C11   A    
C32   O4    S    
H14   N4    S    
C13   C16   S    
C27   C28   A    
C24   H3    S    
C14   C15   S    
C6    H12   S    
C21   C22   S    
C25   C33   S    
