data_mof_unit_29383.cif
_audit_creation_date              2012-12-10T16:52:41-0500
_audit_creation_method            fapswitch 2.2
_symmetry_space_group_name_H-M    P1
_symmetry_Int_Tables_number       1
_space_group_crystal_system       triclinic
_cell_length_a                    7.850277
_cell_length_b                    8.561469
_cell_length_c                    13.830953
_cell_angle_alpha                 92.951211
_cell_angle_beta                  96.005472
_cell_angle_gamma                 93.679717
_cell_volume                      920.981823813

loop_
_atom_site_label
_atom_site_type_symbol
_atom_type_description
_atom_site_fract_x
_atom_site_fract_y
_atom_site_fract_z
_atom_type_partial_charge
C1    C     C_R   0.044749 0.794364 0.497835 0.973484
C2    C     C_R   0.928215 0.461758 0.320599 0.911666
C3    C     C_R   0.111790 0.519625 0.789675 -0.165986
C4    C     C_R   0.870122 0.378044 0.225400 -0.201536
C5    C     C_R   0.044859 0.596971 0.952168 -0.211229
C6    C     C_R   0.892742 0.204235 0.082891 -0.200774
C7    C     C_R   0.010800 0.600988 0.851599 0.168494
C8    C     C_R   0.966819 0.275786 0.172956 0.169852
C9    C     C_R   0.256729 0.445259 0.831405 0.070492
C10   C     C_R   0.693621 0.347803 0.206540 0.062767
C11   C     C_R   0.275223 0.423435 0.932563 0.032003
C12   C     C_R   0.955763 0.205756 0.503412 0.975124
C13   C     C_R   0.626096 0.318047 0.110623 0.056821
C14   C     C_R   0.177764 0.512500 0.993045 0.088355
C15   C     C_R   0.722825 0.232053 0.049039 0.100380
C16   C     C_R   0.405629 0.334932 0.976854 0.080724
C17   C     C_R   0.466893 0.370884 0.075342 0.086909
C18   C     C_R   0.373934 0.466543 0.133518 -0.153354
C19   C     C_R   0.480190 0.213781 0.926104 -0.158753
C20   C     C_R   0.225864 0.529905 0.093430 -0.180343
C21   C     C_R   0.643032 0.168977 0.959464 -0.155158
C22   C     C_2   0.068365 0.958004 0.497103 -0.340486
C23   C     C_2   0.932786 0.042274 0.505604 -0.321321
C24   C     C_R   0.069518 0.514544 0.682797 0.903259
H1    H     H_    0.155574 0.601626 0.140095 0.159645
H2    H     H_    0.514326 0.628738 0.569247 0.219617
H3    H     H_    0.707287 0.089127 0.914625 0.179026
H4    H     H_    0.972968 0.667379 0.998685 0.169835
H5    H     H_    0.963788 0.123865 0.042341 0.171340
H6    H     H_    0.415044 0.493019 0.210143 0.179307
H7    H     H_    0.418657 0.162254 0.857112 0.177599
H8    H     H_    0.196513 0.008524 0.489143 0.200025
H9    H     H_    0.804658 0.991780 0.513611 0.196086
H10   H     H_    0.485408 0.372487 0.430319 0.224178
I1    I     I_    0.619222 0.161268 0.292481 -0.338699
I2    I     I_    0.485584 0.433593 0.755730 -0.319172
I3    I     I_    0.166094 0.160036 0.244020 -0.343317
I4    I     I_    0.837668 0.769011 0.802478 -0.373432
N1    N     N_2   0.440860 0.456490 0.474790 -0.155801
N2    N     N_2   0.559140 0.543510 0.525210 -0.146250
O1    O     O_R   0.891570 0.738930 0.506190 -0.601005
O2    O     O_R   0.108430 0.261070 0.493810 -0.598387
O3    O     O_R   0.174650 0.711050 0.490030 -0.621380
O4    O     O_R   0.825350 0.288950 0.509970 -0.609413
O5    O     O_R   0.909850 0.521900 0.644940 -0.569199
O6    O     O_R   0.090150 0.478100 0.355060 -0.595012
O7    O     O_R   0.192930 0.494020 0.628780 -0.593766
O8    O     O_R   0.807070 0.505980 0.371220 -0.606257
Zn1   Zn    Zn3+2 0.810990 0.518620 0.510790 1.006850
Zn2   Zn    Zn3+2 0.189010 0.481380 0.489210 0.996192

loop_
_geom_bond_atom_site_label_1
_geom_bond_atom_site_label_2
_ccdc_geom_bond_type
O4    Zn1   S    
C9    I2    S    
C2    C4    S    
O3    Zn2   S    
C10   I1    S    
C3    C9    A    
O5    Zn1   S    
C5    H4    S    
C11   C16   A    
O6    Zn2   S    
C18   C20   A    
C13   C17   A    
C4    C8    A    
C19   H7    S    
N1    Zn2   S    
C17   C18   A    
C21   H3    S    
C1    C22   S    
C12   O4    A    
C2    O6    A    
C9    C11   A    
C12   C23   S    
H2    N2    S    
C5    C14   A    
C22   H8    S    
O2    Zn2   S    
C16   C19   A    
C18   H6    S    
C24   O5    A    
C6    C8    A    
O1    Zn1   S    
O8    Zn1   S    
C19   C21   A    
C7    I4    S    
O7    Zn2   S    
C3    C7    A    
C13   C15   A    
C11   C14   A    
C8    I3    S    
C4    C10   A    
N2    Zn1   S    
C14   C20   A    
C15   C21   A    
C6    H5    S    
C20   H1    S    
C1    O1    A    
N1    N2    D    
C5    C7    A    
C22   C23   D    
C12   O2    A    
C2    O8    A    
C6    C15   A    
C24   O7    A    
C1    O3    A    
H10   N1    S    
C3    C24   S    
C16   C17   A    
C23   H9    S    
C10   C13   A    
