data_mof_unit_29214.cif
_audit_creation_date              2012-12-10T19:12:19-0500
_audit_creation_method            fapswitch 2.2
_symmetry_space_group_name_H-M    P1
_symmetry_Int_Tables_number       1
_space_group_crystal_system       triclinic
_cell_length_a                    7.78141
_cell_length_b                    9.084261
_cell_length_c                    17.020412
_cell_angle_alpha                 89.843588
_cell_angle_beta                  93.067998
_cell_angle_gamma                 89.990543
_cell_volume                      1201.41602139

loop_
_atom_site_label
_atom_site_type_symbol
_atom_type_description
_atom_site_fract_x
_atom_site_fract_y
_atom_site_fract_z
_atom_type_partial_charge
C1    C     C_R   0.499993 0.220014 0.500025 0.856399
C2    C     C_R   0.499920 0.779977 0.499269 0.835148
C3    C     C_R   0.519828 0.502456 0.651105 0.863340
C4    C     C_R   0.480429 0.501944 0.348540 0.839041
C5    C     C_R   0.527114 0.519764 0.736714 -0.093632
C6    C     C_R   0.475125 0.493687 0.262147 -0.099211
C7    C     C_R   0.481240 0.655724 0.770980 0.020002
C8    C     C_R   0.598112 0.572067 0.219426 0.031519
C9    C     C_R   0.472076 0.666472 0.854370 0.106918
C10   C     C_R   0.625360 0.528316 0.141163 0.123648
C11   C     C_R   0.506333 0.537892 0.900738 0.310111
C12   C     C_R   0.496072 0.443027 0.100710 0.313495
C13   C     C_R   0.556597 0.406462 0.864680 -0.284723
C14   C     C_R   0.366401 0.377044 0.141677 -0.318247
C15   C     C_R   0.568999 0.397255 0.783829 0.168507
C16   C     C_R   0.359438 0.395841 0.222663 0.186008
C17   C     C_1   0.499890 0.065380 0.499351 -0.195425
C18   C     C_1   0.499806 0.934612 0.499010 -0.178766
Cu1   Cu    Cu3+1 0.669080 0.500010 0.500000 0.987544
Cu2   Cu    Cu3+1 0.330920 0.499990 0.500000 0.997780
H1    H     H_    0.589465 0.309644 0.899625 0.168946
H2    H     H_    0.273138 0.306852 0.110591 0.157987
N1    N     N_1   0.076820 0.499970 0.500010 -0.049010
N2    N     N_1   0.923180 0.500030 0.499990 -0.054723
N3    N     N_2   0.499802 0.544983 0.983676 -0.229559
N4    N     N_2   0.492233 0.424335 0.018309 -0.253653
O1    O     O_R   0.642760 0.288400 0.500000 -0.573843
O2    O     O_R   0.357240 0.711600 0.500000 -0.590154
O3    O     O_R   0.357190 0.288380 0.500000 -0.569677
O4    O     O_R   0.642810 0.711620 0.500000 -0.579371
O5    O     O_R   0.658410 0.498660 0.613920 -0.580502
O6    O     O_R   0.341590 0.501340 0.386080 -0.553419
O7    O     O_R   0.372840 0.498650 0.613930 -0.596540
O8    O     O_R   0.627160 0.501350 0.386070 -0.595435
C19   C     C_3   0.685773 0.709595 0.254569 -0.388756
C20   C     C_3   0.554483 0.826502 0.275802 -0.841322
H3    H     H_    0.469282 0.853937 0.223343 0.248513
H4    H     H_    0.474358 0.789025 0.323844 0.239415
H5    H     H_    0.622840 0.928080 0.295908 0.241181
H6    H     H_    0.770923 0.681363 0.306725 0.231798
H7    H     H_    0.767386 0.765671 0.212516 0.193459
C21   C     C_3   0.452284 0.790569 0.717968 -0.411310
C22   C     C_3   0.623535 0.862624 0.700850 -0.843901
H8    H     H_    0.695120 0.893819 0.756491 0.247397
H9    H     H_    0.704118 0.786391 0.667677 0.264790
H10   H     H_    0.599456 0.963490 0.665067 0.251487
H11   H     H_    0.382593 0.760981 0.661819 0.215272
H12   H     H_    0.367784 0.874002 0.743272 0.193799
C23   C     C_3   0.794782 0.561501 0.102927 -0.382544
C24   C     C_3   0.882520 0.422183 0.074268 -0.822906
H13   H     H_    0.893983 0.338897 0.122150 0.236888
H14   H     H_    0.811252 0.373893 0.022489 0.266514
H15   H     H_    0.013607 0.450164 0.056170 0.240377
H16   H     H_    0.774131 0.640320 0.053497 0.213710
H17   H     H_    0.891059 0.611039 0.145115 0.191730
C25   C     C_3   0.421483 0.816174 0.888896 -0.394398
C26   C     C_3   0.428626 0.838961 0.978030 -0.805993
H18   H     H_    0.330601 0.770470 0.006006 0.265472
H19   H     H_    0.397793 0.955709 0.990546 0.226536
H20   H     H_    0.559896 0.817068 0.004102 0.253456
H21   H     H_    0.507551 0.901788 0.865852 0.207542
H22   H     H_    0.287538 0.841675 0.867161 0.195331
N5    N     N_2   0.620143 0.262423 0.749642 -0.438649
H23   H     H_    0.567229 0.170963 0.775093 0.250179
C27   C     C_3   0.804377 0.247895 0.744516 -0.665418
H24   H     H_    0.868188 0.240259 0.804406 0.215178
H25   H     H_    0.857613 0.343378 0.712991 0.255873
H26   H     H_    0.833417 0.146561 0.711471 0.225056
N6    N     N_2   0.235839 0.315710 0.264188 -0.400459
H27   H     H_    0.117741 0.307468 0.233993 0.250820
C28   C     C_3   0.296792 0.174277 0.293235 -0.658224
H28   H     H_    0.199470 0.124590 0.330636 0.232279
H29   H     H_    0.419087 0.186745 0.329320 0.217561
H30   H     H_    0.317810 0.099228 0.243213 0.211761

loop_
_geom_bond_atom_site_label_1
_geom_bond_atom_site_label_2
_ccdc_geom_bond_type
C28   H30   S    
C24   H14   S    
C22   H8    S    
N5    C27   S    
C10   C23   S    
C2    C18   S    
C4    O8    A    
Cu1   O1    S    
C8    C19   S    
C1    C17   S    
C19   C20   S    
C27   H25   S    
Cu2   N1    S    
C15   N5    S    
C2    O4    A    
C27   H26   S    
Cu1   O5    S    
C14   H2    S    
C1    O3    A    
C19   H6    S    
C13   H1    S    
C28   H28   S    
C27   H24   S    
C9    C25   S    
C21   H12   S    
C3    O5    A    
C22   H9    S    
C26   H18   S    
C4    O6    A    
C10   C12   A    
Cu2   O3    S    
Cu1   N2    S    
C6    C8    A    
Cu2   O7    S    
C20   H4    S    
C20   H3    S    
C12   C14   A    
C17   C18   T    
C25   H22   S    
C21   H11   S    
C9    C11   A    
C13   C15   A    
N6    H27   S    
C19   H7    S    
C22   H10   S    
C14   C16   A    
C5    C15   A    
C24   H15   S    
C26   H19   S    
C21   C22   S    
C3    O7    A    
N1    N2    T    
C6    C16   A    
C23   H16   S    
C7    C9    A    
N6    C28   S    
C11   C13   A    
C25   C26   S    
C8    C10   A    
C23   C24   S    
Cu2   O6    S    
C7    C21   S    
C28   H29   S    
C1    O1    A    
C11   N3    S    
C5    C7    A    
C26   H20   S    
C2    O2    A    
Cu2   O2    S    
C24   H13   S    
N3    N4    D    
C25   H21   S    
Cu1   O4    S    
C4    C6    S    
Cu1   O8    S    
C20   H5    S    
C16   N6    S    
Cu1   Cu2   S    
C12   N4    S    
N5    H23   S    
C3    C5    S    
C23   H17   S    
