data_mof_unit_59947.cif
_audit_creation_date              2012-12-10T17:12:29-0500
_audit_creation_method            fapswitch 2.2
_symmetry_space_group_name_H-M    P1
_symmetry_Int_Tables_number       1
_space_group_crystal_system       triclinic
_cell_length_a                    11.694218
_cell_length_b                    12.970907
_cell_length_c                    11.850992
_cell_angle_alpha                 99.981893
_cell_angle_beta                  93.646199
_cell_angle_gamma                 92.597888
_cell_volume                      1763.91214246

loop_
_atom_site_label
_atom_site_type_symbol
_atom_type_description
_atom_site_fract_x
_atom_site_fract_y
_atom_site_fract_z
_atom_type_partial_charge
C1    C     C_R   0.501422 0.299470 0.478600 0.774204
C2    C     C_R   0.502983 0.700074 0.521264 0.763008
C3    C     C_R   0.371801 0.418281 0.025263 -0.119251
C4    C     C_R   0.594650 0.614217 0.978680 -0.123004
C5    C     C_R   0.388075 0.422685 0.145951 0.114145
C6    C     C_R   0.588518 0.599779 0.856644 0.127866
C7    C     C_R   0.552897 0.538752 0.155548 0.157107
C8    C     C_R   0.455397 0.453602 0.843619 0.147565
C9    C     C_R   0.535164 0.541435 0.034522 0.000487
C10   C     C_R   0.453590 0.469810 0.966946 0.001494
C11   C     C_R   0.284285 0.499796 0.500158 0.800045
C12   C     C_R   0.715723 0.500300 0.499851 0.789668
C13   C     C_1   0.162531 0.499962 0.500417 -0.108974
C14   C     C_1   0.837480 0.500298 0.499550 -0.134886
C15   C     C_1   0.059961 0.500105 0.500170 0.063081
C16   C     C_1   0.940050 0.500240 0.499729 0.052487
C17   C     C_R   0.517147 0.812808 0.531212 -0.103425
C18   C     C_R   0.503314 0.185277 0.465665 -0.107368
C19   C     C_R   0.415637 0.017251 0.370742 0.020127
C20   C     C_R   0.647429 0.966948 0.579061 0.016961
C21   C     C_R   0.431365 0.124927 0.378057 -0.262569
C22   C     C_R   0.621012 0.861697 0.581323 -0.210254
C23   C     C_R   0.573566 0.136166 0.539689 -0.055743
C24   C     C_R   0.438770 0.866878 0.472347 -0.045047
C25   C     C_R   0.565974 0.025070 0.525851 0.090349
C26   C     C_R   0.471722 0.969093 0.455801 0.105158
Cu1   Cu    Cu3+1 0.508350 0.507730 0.615930 0.962686
Cu2   Cu    Cu3+1 0.491650 0.492270 0.384070 0.971107
H1    H     H_    0.684688 0.815569 0.616811 0.150680
H2    H     H_    0.384612 0.162131 0.316072 0.133670
N1    N     N_R   0.520920 0.519350 0.790130 -0.252162
N2    N     N_R   0.479080 0.480650 0.209870 -0.251005
O1    O     O_R   0.505930 0.354460 0.582000 -0.607406
O2    O     O_R   0.494070 0.645540 0.418000 -0.606771
O3    O     O_R   0.491820 0.341410 0.386200 -0.591994
O4    O     O_R   0.508180 0.658590 0.613800 -0.544967
O5    O     O_R   0.344250 0.506540 0.597900 -0.594362
O6    O     O_R   0.655750 0.493460 0.402100 -0.573350
O7    O     O_R   0.330140 0.493480 0.402100 -0.558283
O8    O     O_R   0.669860 0.506520 0.597900 -0.610784
C27   C     C_2   0.318781 0.821047 0.444064 0.450697
H3    H     H_    0.300518 0.736891 0.428797 0.080416
O9    O     O_2   0.237949 0.877417 0.443560 -0.526135
C28   C     C_2   0.645929 0.201773 0.635810 0.518169
H4    H     H_    0.693459 0.271759 0.621904 0.070874
O10   O     O_2   0.649930 0.179901 0.732096 -0.494646
C29   C     C_2   0.351138 0.958199 0.265563 0.484995
H5    H     H_    0.287548 0.996649 0.219299 0.068064
O11   O     O_2   0.372636 0.868436 0.225944 -0.492815
C30   C     C_2   0.767726 0.005436 0.615722 0.439003
H6    H     H_    0.813873 0.975119 0.684218 0.097206
O12   O     O_2   0.818697 0.065686 0.565143 -0.534724
C31   C     C_2   0.396898 0.358518 0.773299 0.467827
H7    H     H_    0.336328 0.363756 0.702060 0.111815
O13   O     O_2   0.416104 0.272105 0.795304 -0.535366
C32   C     C_2   0.658347 0.589212 0.220620 0.466265
H8    H     H_    0.654057 0.646273 0.298210 0.111800
O14   O     O_2   0.752283 0.567116 0.187078 -0.548363
C33   C     C_2   0.655410 0.674354 0.801832 0.387609
H9    H     H_    0.723515 0.648261 0.748234 0.080044
O15   O     O_2   0.636500 0.767385 0.819302 -0.541375
C34   C     C_2   0.303885 0.364438 0.202583 0.397082
H10   H     H_    0.330924 0.305529 0.250402 0.075216
O16   O     O_2   0.202317 0.382673 0.196402 -0.525570
C35   C     C_2   0.261707 0.369674 0.965038 0.473423
H11   H     H_    0.229197 0.293639 0.979300 0.100113
O17   O     O_2   0.204376 0.416603 0.902896 -0.529091
C36   C     C_2   0.652589 0.712867 0.044886 0.475708
H12   H     H_    0.736553 0.739590 0.023730 0.095177
O18   O     O_2   0.604276 0.767248 0.120017 -0.503710

loop_
_geom_bond_atom_site_label_1
_geom_bond_atom_site_label_2
_ccdc_geom_bond_type
C8    C31   S    
C12   O8    A    
C30   O12   D    
C34   H10   S    
C17   C22   A    
C22   H1    S    
Cu1   O4    S    
C18   C21   A    
C11   C13   S    
C27   H3    S    
C21   H2    S    
C34   O16   D    
C29   H5    S    
Cu2   O6    S    
Cu1   O8    S    
C5    N2    A    
C2    O2    A    
C31   O13   D    
C6    N1    A    
C4    C9    A    
Cu2   O2    S    
C33   H9    S    
C29   O11   D    
C3    C10   A    
C31   H7    S    
C32   H8    S    
C2    C17   S    
C11   O7    A    
C24   C27   S    
C27   O9    D    
C24   C26   A    
C1    C18   S    
C3    C35   S    
C7    C32   S    
Cu1   O5    S    
C4    C6    A    
C19   C21   A    
C32   O14   D    
C5    C34   S    
C30   H6    S    
C19   C29   S    
C13   C15   T    
C12   O6    A    
C14   C16   T    
C33   O15   D    
C17   C24   A    
C20   C25   A    
C20   C22   A    
Cu1   N1    S    
C15   C16   S    
C7    C9    A    
Cu2   N2    S    
C23   C25   A    
C1    O1    A    
C28   H4    S    
C1    O3    A    
C36   O18   D    
C35   H11   S    
C9    C10   A    
C2    O4    A    
Cu1   Cu2   S    
C11   O5    A    
C19   C26   A    
C20   C30   S    
C7    N2    A    
C28   O10   D    
Cu2   O7    S    
C3    C5    A    
C25   C26   A    
C8    N1    A    
C4    C36   S    
C6    C33   S    
C8    C10   A    
Cu1   O1    S    
C23   C28   S    
C18   C23   A    
Cu2   O3    S    
C12   C14   S    
C36   H12   S    
C35   O17   D    
