data_mof_unit_20735.cif
_audit_creation_date              2012-12-11T14:13:31-0500
_audit_creation_method            fapswitch 2.2
_symmetry_space_group_name_H-M    P1
_symmetry_Int_Tables_number       1
_space_group_crystal_system       triclinic
_cell_length_a                    11.499527
_cell_length_b                    18.667238
_cell_length_c                    10.010601
_cell_angle_alpha                 90.000484
_cell_angle_beta                  109.506035
_cell_angle_gamma                 89.999892
_cell_volume                      2025.58533229

loop_
_atom_site_label
_atom_site_type_symbol
_atom_type_description
_atom_site_fract_x
_atom_site_fract_y
_atom_site_fract_z
_atom_type_partial_charge
C1    C     C_R   0.068891 0.647933 0.139180 0.527568
C2    C     C_2   0.602906 0.072640 0.074657 -0.094916
C3    C     C_2   0.602871 0.427346 0.074705 -0.094924
C4    C     C_2   0.397127 0.572652 0.925303 -0.094931
C5    C     C_2   0.500339 0.961147 0.995007 -0.171027
C6    C     C_2   0.499662 0.038852 0.004989 -0.171027
C7    C     C_2   0.499658 0.461146 0.004979 -0.171002
C8    C     C_2   0.500342 0.538852 0.995028 -0.171011
C9    C     C_2   0.005256 0.921233 0.113193 -0.133166
C10   C     C_2   0.994741 0.078766 0.886806 -0.133164
C11   C     C_2   0.994759 0.421227 0.886814 -0.133148
C12   C     C_R   0.931112 0.352065 0.860820 0.527556
C13   C     C_2   0.005247 0.578769 0.113181 -0.133154
C14   C     C_2   0.995256 0.960091 0.995631 -0.000113
C15   C     C_2   0.004743 0.039908 0.004367 -0.000111
C16   C     C_2   0.004754 0.460090 0.004368 -0.000096
C17   C     C_2   0.995263 0.539907 0.995625 -0.000110
C18   C     C_R   0.437097 0.637496 0.373678 0.546609
C19   C     C_R   0.562906 0.362503 0.626327 0.546626
C20   C     C_R   0.562905 0.137496 0.626322 0.546616
C21   C     C_R   0.437095 0.862503 0.373677 0.546617
C22   C     C_R   0.376268 0.645262 0.963084 0.557109
C23   C     C_R   0.931102 0.147931 0.860816 0.527564
C24   C     C_R   0.623731 0.354737 0.036918 0.557112
C25   C     C_R   0.623737 0.145259 0.036908 0.557109
C26   C     C_R   0.376263 0.854741 0.963091 0.557106
C27   C     C_R   0.539265 0.438938 0.585196 -0.033442
C28   C     C_R   0.460743 0.561061 0.414821 -0.033436
C29   C     C_R   0.460731 0.938939 0.414809 -0.033449
C30   C     C_R   0.539268 0.061061 0.585187 -0.033447
C31   C     C_R   0.343662 0.446585 0.643592 -0.072925
C32   C     C_R   0.656344 0.553409 0.356419 -0.072930
C33   C     C_R   0.656304 0.946599 0.356346 -0.072915
C34   C     C_R   0.068897 0.852069 0.139183 0.527565
C35   C     C_R   0.343693 0.053401 0.643648 -0.072916
C36   C     C_R   0.221264 0.468927 0.604288 -0.116336
C37   C     C_R   0.778739 0.531063 0.395715 -0.116342
C38   C     C_R   0.778704 0.968939 0.395635 -0.116327
C39   C     C_R   0.221292 0.031061 0.604356 -0.116328
C40   C     C_R   0.174601 0.513661 0.488341 -0.084170
C41   C     C_R   0.825404 0.486332 0.511666 -0.084158
C42   C     C_R   0.825383 0.013670 0.511586 -0.084181
C43   C     C_R   0.174613 0.986332 0.488402 -0.084179
C44   C     C_R   0.253626 0.539665 0.420463 -0.051949
C45   C     C_R   0.422414 0.470070 0.569121 0.041817
C46   C     C_R   0.746379 0.460333 0.579550 -0.051941
C47   C     C_R   0.746369 0.039674 0.579481 -0.051935
C48   C     C_R   0.253628 0.960328 0.420508 -0.051928
C49   C     C_R   0.379531 0.524899 0.469834 0.007019
C50   C     C_R   0.620476 0.475100 0.530182 0.007009
C51   C     C_R   0.620464 0.024907 0.530133 0.007031
C52   C     C_R   0.379534 0.975093 0.469860 0.007031
C53   C     C_2   0.027186 0.076788 0.142999 0.592583
C54   C     C_2   0.972816 0.923211 0.857000 0.592585
C55   C     C_2   0.972835 0.576787 0.856999 0.592599
C56   C     C_R   0.577594 0.529929 0.430895 0.041814
C57   C     C_2   0.027210 0.423210 0.142999 0.592586
C58   C     C_R   0.577570 0.970080 0.430844 0.041804
C59   C     C_R   0.422429 0.029920 0.569151 0.041803
C60   C     C_2   0.397095 0.927359 0.925339 -0.094916
Cr1   Cr    Cr6+3 0.187610 0.750000 0.979860 1.100442
Cr2   Cr    Cr6+3 0.812390 0.250000 0.020140 1.100431
Cr3   Cr    Cr6+3 0.245810 0.750000 0.341640 1.039385
Cr4   Cr    Cr6+3 0.754190 0.250000 0.658360 1.039388
Cr5   Cr    Cr6+3 0.485760 0.750000 0.219910 1.016847
Cr6   Cr    Cr6+3 0.514240 0.250000 0.780090 1.016845
H1    H     H_    0.161869 0.449165 0.660201 0.122476
H2    H     H_    0.625607 0.589898 0.269009 0.142256
H3    H     H_    0.625549 0.910113 0.268929 0.142263
H4    H     H_    0.374448 0.089886 0.731067 0.142262
H5    H     H_    0.218369 0.566364 0.322215 0.129512
H6    H     H_    0.781640 0.433647 0.677816 0.129484
H7    H     H_    0.781644 0.066353 0.677754 0.129492
H8    H     H_    0.218355 0.933650 0.322232 0.129485
H9    H     H_    0.416607 0.068854 0.951076 0.142995
H10   H     H_    0.583395 0.931145 0.048921 0.142994
H11   H     H_    0.583378 0.568847 0.049017 0.143000
H12   H     H_    0.838132 0.550819 0.339797 0.122463
H13   H     H_    0.416623 0.431152 0.950986 0.143005
H14   H     H_    0.683204 0.042245 0.137352 0.149984
H15   H     H_    0.316798 0.957754 0.862641 0.149984
H16   H     H_    0.316856 0.542269 0.862532 0.149978
H17   H     H_    0.683142 0.457729 0.137482 0.149955
H18   H     H_    0.001590 0.053369 0.792996 0.114950
H19   H     H_    0.998405 0.946630 0.207001 0.114949
H20   H     H_    0.998372 0.553375 0.206979 0.114941
H21   H     H_    0.001616 0.446620 0.793009 0.114959
H22   H     H_    0.968064 0.097753 0.307404 0.336700
H23   H     H_    0.838089 0.949179 0.339707 0.122476
H24   H     H_    0.031940 0.902247 0.692596 0.336702
H25   H     H_    0.031972 0.597762 0.692614 0.336710
H26   H     H_    0.968096 0.402217 0.307393 0.336703
H27   H     H_    0.161906 0.050820 0.660284 0.122477
H28   H     H_    0.077847 0.527565 0.450721 0.113262
H29   H     H_    0.922160 0.472431 0.549288 0.113269
H30   H     H_    0.922141 0.027568 0.549203 0.113243
H31   H     H_    0.077854 0.972435 0.450781 0.113244
H32   H     H_    0.374396 0.410096 0.731002 0.142255
O1    O     O_R   0.267710 0.668200 0.902110 -0.478126
O2    O     O_R   0.883280 0.330790 0.732340 -0.545623
O3    O     O_R   0.883280 0.169210 0.732340 -0.545625
O4    O     O_R   0.116720 0.830790 0.267660 -0.545621
O5    O     O_R   0.366710 0.675440 0.427590 -0.471076
O6    O     O_R   0.633290 0.324560 0.572410 -0.471066
O7    O     O_R   0.633290 0.175440 0.572410 -0.471072
O8    O     O_R   0.366710 0.824560 0.427590 -0.471071
O9    O     O_R   0.534870 0.669390 0.371760 -0.495442
O10   O     O_R   0.465130 0.330610 0.628240 -0.495443
O11   O     O_R   0.465130 0.169390 0.628240 -0.495428
O12   O     O_R   0.732290 0.331800 0.097890 -0.478112
O13   O     O_R   0.534870 0.830610 0.371760 -0.495428
O14   O     O_R   0.453080 0.674480 0.075160 -0.533466
O15   O     O_R   0.546920 0.325520 0.924840 -0.533473
O16   O     O_R   0.546920 0.174480 0.924840 -0.533476
O17   O     O_R   0.453080 0.825520 0.075160 -0.533477
O18   O     O_3   0.306390 0.750000 0.180470 -0.311969
O19   O     O_3   0.693610 0.250000 0.819530 -0.311970
O20   O     O_2   0.117722 0.115265 0.190592 -0.487464
O21   O     O_R   0.942896 0.069613 0.215526 -0.724822
O22   O     O_2   0.882281 0.884733 0.809405 -0.487460
O23   O     O_R   0.732290 0.168200 0.097890 -0.478114
O24   O     O_R   0.057107 0.930388 0.784474 -0.724821
O25   O     O_2   0.882323 0.615278 0.809417 -0.487458
O26   O     O_R   0.057118 0.569601 0.784468 -0.724827
O27   O     O_2   0.117760 0.384747 0.190591 -0.487476
O28   O     O_R   0.942921 0.430372 0.215529 -0.724777
O29   O     O_R   0.267710 0.831800 0.902110 -0.478113
O30   O     O_R   0.099480 0.674460 0.038850 -0.453152
O31   O     O_R   0.900520 0.325540 0.961150 -0.453161
O32   O     O_R   0.900520 0.174460 0.961150 -0.453160
O33   O     O_R   0.099480 0.825540 0.038850 -0.453157
O34   O     O_R   0.116720 0.669210 0.267660 -0.545628

loop_
_geom_bond_atom_site_label_1
_geom_bond_atom_site_label_2
_ccdc_geom_bond_type
C44   C49   A    
C30   C51   A    
C33   C58   A    
Cr6   O15   S    
C54   O22   D    
H24   O24   S    
Cr2   O32   S    
C1    O30   A    
C4    C8    D    
C1    O34   A    
C28   C56   A    
C36   H1    S    
C6    H9    S    
C20   C30   S    
C32   H2    S    
C38   H23   S    
C34   O4    A    
C42   H30   S    
C15   C53   S    
C38   C42   A    
C3    C7    D    
C10   C15   D    
C57   O27   D    
C5    C6    S    
C23   O3    A    
C44   H5    S    
C35   C59   A    
C19   O6    A    
C31   H32   S    
C26   O17   A    
C39   H27   S    
Cr2   O19   S    
C9    H19   S    
C18   O9    A    
Cr5   O13   S    
C35   H4    S    
C11   H21   S    
C16   C17   S    
Cr6   O19   S    
C13   H20   S    
C41   C46   A    
C2    C25   S    
C19   C27   S    
C43   C48   A    
C17   C55   S    
C40   C44   A    
C46   H6    S    
C21   O8    A    
C27   C50   A    
C33   H3    S    
C42   C47   A    
C19   O10   A    
C27   C45   A    
C54   O24   S    
C24   O15   A    
Cr5   O17   S    
Cr2   O31   S    
C3    C24   S    
Cr1   O1    S    
Cr3   O4    S    
C21   O13   A    
Cr4   O3    S    
C55   O25   D    
C12   O31   A    
C48   H8    S    
C7    C8    S    
C24   O12   A    
C47   H7    S    
Cr3   O5    S    
Cr6   O10   S    
C57   O28   S    
C53   O20   D    
C39   C43   A    
Cr3   O34   S    
C21   C29   S    
C50   C56   A    
Cr4   O19   S    
C2    C6    D    
C23   O32   A    
H22   O21   S    
C28   C49   A    
C35   C39   A    
C9    C14   D    
Cr5   O14   S    
C52   C59   A    
C4    C22   S    
C11   C16   D    
Cr2   O12   S    
C45   C49   A    
C30   C59   A    
Cr1   O18   S    
C18   C28   S    
Cr1   O29   S    
C51   C58   A    
C32   C37   A    
Cr3   O8    S    
Cr3   O18   S    
C14   C54   S    
C34   O33   A    
C22   O14   A    
H25   O26   S    
C3    H17   S    
C8    H11   S    
Cr5   O18   S    
C1    C13   S    
C36   C40   A    
C26   O29   A    
C7    H13   S    
C20   O7    A    
Cr4   O6    S    
C55   O26   S    
C22   O1    A    
Cr6   O16   S    
C5    C60   D    
Cr4   O7    S    
C14   C15   S    
C43   H31   S    
C40   H28   S    
H26   O28   S    
C47   C51   A    
C11   C12   S    
C53   O21   S    
C10   C23   S    
C37   H12   S    
C46   C50   A    
C33   C38   A    
C13   C17   D    
C5    H10   S    
Cr4   O2    S    
C25   O16   A    
C18   O5    A    
C41   H29   S    
C25   O23   A    
C10   H18   S    
C60   H15   S    
Cr5   O9    S    
C9    C34   S    
Cr1   O30   S    
C16   C57   S    
Cr6   O11   S    
C37   C41   A    
C12   O2    A    
C2    H14   S    
Cr1   O33   S    
C20   O11   A    
C48   C52   A    
C4    H16   S    
C29   C58   A    
C31   C45   A    
C31   C36   A    
C26   C60   S    
C32   C56   A    
Cr2   O23   S    
C29   C52   A    
