data_mof_unit_32356.cif
_audit_creation_date              2012-12-11T16:35:20-0500
_audit_creation_method            fapswitch 2.2
_symmetry_space_group_name_H-M    P1
_symmetry_Int_Tables_number       1
_space_group_crystal_system       triclinic
_cell_length_a                    6.930226
_cell_length_b                    17.669995
_cell_length_c                    19.516049
_cell_angle_alpha                 109.138744
_cell_angle_beta                  90.430163
_cell_angle_gamma                 90.609117
_cell_volume                      2257.50280251

loop_
_atom_site_label
_atom_site_type_symbol
_atom_type_description
_atom_site_fract_x
_atom_site_fract_y
_atom_site_fract_z
_atom_type_partial_charge
O1    O     O_R   0.505700 0.440210 0.561730 -0.541580
O2    O     O_R   0.169350 0.406300 0.412660 -0.538287
O3    O     O_R   0.005650 0.559790 0.438270 -0.542782
C1    C     C_R   0.337841 0.383306 0.384746 0.693988
O4    O     O_R   0.175560 0.430650 0.559600 -0.544629
O5    O     O_R   0.011900 0.584320 0.586250 -0.534990
C2    C     C_R   0.344699 0.415616 0.581167 0.683172
O6    O     O_R   0.499450 0.415680 0.413750 -0.533319
O7    O     O_3   0.341370 0.550390 0.508570 -0.368160
V1    V     V_3+5 0.063940 0.490650 0.498410 1.412956
O8    O     O_R   0.682570 0.593700 0.587340 -0.538567
C3    C     C_R   0.852685 0.616674 0.614923 0.697907
O9    O     O_R   0.676370 0.569350 0.440400 -0.544620
C4    C     C_R   0.845179 0.584210 0.418684 0.684173
V2    V     V_3+5 0.564750 0.509350 0.501590 1.415598
O10   O     O_3   0.837190 0.449610 0.491430 -0.366307
C5    C     C_R   0.037401 0.679392 0.283676 -0.147797
H1    H     H_    0.169387 0.677361 0.253879 0.101228
C6    C     C_R   0.026411 0.634614 0.330904 -0.157661
H2    H     H_    0.150877 0.600457 0.336541 0.117484
C7    C     C_R   0.856363 0.632744 0.369255 -0.052674
C8    C     C_R   0.697669 0.677094 0.359307 -0.172473
H3    H     H_    0.564659 0.677274 0.388145 0.122483
C9    C     C_R   0.709556 0.722906 0.312864 -0.144511
H4    H     H_    0.585780 0.757851 0.308314 0.103657
C10   C     C_R   0.879548 0.724665 0.274104 0.091009
C11   C     C_R   0.728209 0.785094 0.185892 -0.144526
H5    H     H_    0.590478 0.758027 0.190840 0.097849
C12   C     C_R   0.739771 0.831103 0.139683 -0.133582
H6    H     H_    0.610215 0.838932 0.111483 0.135142
C13   C     C_R   0.916317 0.865590 0.129257 -0.059003
C14   C     C_R   0.080928 0.853030 0.166442 -0.153487
H7    H     H_    0.219082 0.878865 0.159963 0.179433
C15   C     C_R   0.068806 0.808189 0.213658 -0.157132
H8    H     H_    0.197942 0.802106 0.242829 0.103548
C16   C     C_R   0.892295 0.773229 0.224027 0.091829
H9    H     H_    0.603306 0.653724 0.928429 0.112713
C17   C     C_R   0.065491 0.895088 0.750161 -0.144224
C18   C     C_R   0.134785 0.902970 0.685996 -0.123335
C19   C     C_R   0.116016 0.839732 0.621281 -0.120417
C20   C     C_R   0.027907 0.768125 0.620251 -0.130801
C21   C     C_R   0.958229 0.757888 0.684731 0.068616
C22   C     C_R   0.977353 0.822714 0.751056 0.068021
C23   C     C_R   0.866909 0.685233 0.683620 -0.186804
C24   C     C_R   0.794334 0.677442 0.748797 0.068624
C25   C     C_R   0.813632 0.742230 0.815133 0.069734
C26   C     C_R   0.904965 0.814875 0.816237 -0.182395
C27   C     C_R   0.705855 0.605141 0.749673 -0.142005
C28   C     C_R   0.636709 0.597207 0.813837 -0.124172
C29   C     C_R   0.655823 0.660383 0.878584 -0.121272
C30   C     C_R   0.744058 0.731972 0.879626 -0.131985
H10   H     H_    0.080791 0.946653 0.798699 0.109662
H11   H     H_    0.202083 0.958718 0.686449 0.120450
H12   H     H_    0.168652 0.846371 0.571445 0.115223
H13   H     H_    0.013581 0.721425 0.568206 0.105340
H14   H     H_    0.690139 0.553701 0.701098 0.105529
H15   H     H_    0.569256 0.541474 0.813351 0.119647
H16   H     H_    0.758553 0.778635 0.931688 0.098850
H17   H     H_    0.540283 0.483833 0.190329 0.116938
C31   C     C_R   0.253221 0.219288 0.376033 -0.146913
C32   C     C_R   0.224999 0.141165 0.375804 -0.217774
C33   C     C_R   0.265033 0.077026 0.314200 -0.167212
C34   C     C_R   0.332169 0.090084 0.251804 0.586186
C35   C     C_R   0.357356 0.169266 0.249414 -0.038221
C36   C     C_R   0.319304 0.235119 0.313612 0.009822
C37   C     C_R   0.422422 0.183901 0.185646 -0.193069
C38   C     C_R   0.454394 0.263989 0.187385 0.050118
C39   C     C_R   0.419794 0.329302 0.252015 0.082840
C40   C     C_R   0.351634 0.315072 0.315191 -0.154386
C41   C     C_R   0.518388 0.280755 0.125079 -0.149937
C42   C     C_R   0.549658 0.359308 0.126563 -0.109115
C43   C     C_R   0.516596 0.422890 0.189561 -0.122361
C44   C     C_R   0.451612 0.408440 0.251551 -0.142160
H18   H     H_    0.222832 0.266985 0.425858 0.120961
H19   H     H_    0.174031 0.130320 0.424106 0.144416
H20   H     H_    0.246037 0.016412 0.315008 0.142471
H21   H     H_    0.545254 0.233561 0.074539 0.092781
H22   H     H_    0.599206 0.370889 0.078420 0.114310
H23   H     H_    0.424877 0.460097 0.298758 0.098316
C45   C     C_R   0.538629 0.319989 0.715719 -0.148784
H24   H     H_    0.671861 0.322267 0.745655 0.103043
C46   C     C_R   0.527393 0.365051 0.668751 -0.164140
H25   H     H_    0.653030 0.399548 0.663372 0.116471
C47   C     C_R   0.355848 0.366686 0.630283 -0.049972
C48   C     C_R   0.196062 0.321535 0.639661 -0.167325
H26   H     H_    0.062042 0.320986 0.610579 0.121981
C49   C     C_R   0.208124 0.275430 0.685866 -0.142650
H27   H     H_    0.083306 0.239972 0.690101 0.100507
C50   C     C_R   0.379513 0.274111 0.724880 0.090716
C51   C     C_R   0.229444 0.213610 0.813135 -0.147413
H28   H     H_    0.092730 0.240447 0.808070 0.101569
C52   C     C_R   0.241071 0.167945 0.859617 -0.168918
H29   H     H_    0.112427 0.160124 0.887890 0.121598
C53   C     C_R   0.416517 0.133782 0.870214 -0.048242
C54   C     C_R   0.579867 0.146052 0.832686 -0.162325
H30   H     H_    0.716856 0.119950 0.838934 0.117240
C55   C     C_R   0.567664 0.190770 0.785339 -0.144562
H31   H     H_    0.695648 0.196890 0.756051 0.099346
C56   C     C_R   0.392315 0.225540 0.774942 0.088953
O11   O     O_R   0.273230 0.084330 0.086440 -0.522536
O12   O     O_R   0.596660 0.069390 0.940470 -0.550167
O13   O     O_R   0.760270 0.915710 0.913690 -0.540052
C57   C     C_R   0.427469 0.084561 0.919075 0.659203
O14   O     O_R   0.603330 0.093680 0.087390 -0.536891
O15   O     O_R   0.766990 0.940160 0.061660 -0.530341
C58   C     C_R   0.435020 0.116580 0.115476 0.834859
O16   O     O_R   0.266510 0.059870 0.938470 -0.549035
O17   O     O_3   0.431050 0.949630 0.991510 -0.360867
V3    V     V_3+5 0.708490 0.009340 0.001580 1.450938
O18   O     O_R   0.096270 0.930570 0.059390 -0.524525
C59   C     C_R   0.927424 0.915233 0.080764 0.715217
O19   O     O_R   0.089600 0.906290 0.912460 -0.543257
C60   C     C_R   0.919405 0.883374 0.884939 0.680632
V4    V     V_3+5 0.207670 0.990600 0.998190 1.473256
O20   O     O_3   0.935250 0.050360 0.008480 -0.377700
F1    F     F_    0.378466 0.024304 0.195387 -0.724209

loop_
_geom_bond_atom_site_label_1
_geom_bond_atom_site_label_2
_ccdc_geom_bond_type
C49   H27   S    
C11   C12   A    
C20   C21   A    
C54   H30   S    
C1    O6    A    
O19   V4    S    
V4    O20   S    
C18   H11   S    
C48   H26   S    
C32   H19   S    
C12   H6    S    
C50   C56   S    
C5    C10   A    
C4    C7    S    
C6    C7    A    
C9    C10   A    
O5    C3    A    
O14   V3    S    
C17   H10   S    
O12   V3    S    
V2    O10   S    
C28   H15   S    
O17   V3    S    
C27   H14   S    
C15   H8    S    
O17   V4    S    
C45   C50   A    
O18   C59   A    
C20   H13   S    
O8    V2    S    
C6    H2    S    
C39   C40   A    
C41   C42   A    
O1    V2    S    
O7    V1    S    
O18   V4    S    
H17   C43   S    
C2    C47   S    
O15   C59   A    
O12   C57   A    
O9    C4    A    
C41   H21   S    
O19   C60   A    
C33   H20   S    
C53   C54   A    
C21   C23   A    
C37   C58   S    
O14   C58   A    
C1    C40   S    
C55   C56   A    
C55   H31   S    
C48   C49   A    
C38   C39   A    
O11   V4    S    
C9    H4    S    
C45   C46   A    
C18   C19   A    
O4    C2    A    
C45   H24   S    
C29   C30   A    
C39   C44   A    
C24   C25   A    
C25   C30   A    
C31   C32   A    
C35   C37   A    
O2    C1    A    
O16   V4    S    
O5    V1    S    
C33   C34   A    
C51   C52   A    
C13   C14   A    
C52   C53   A    
C5    H1    S    
C44   H23   S    
C30   H16   S    
C47   C48   A    
O3    C4    A    
C34   F1    S    
C10   C16   S    
C19   C20   A    
C31   C36   A    
C28   C29   A    
O6    V2    S    
C19   H12   S    
C49   C50   A    
C8    C9    A    
C21   C22   A    
O2    V1    S    
C51   C56   A    
C23   C24   A    
C24   C27   A    
C26   C60   S    
O15   V3    S    
C25   C26   A    
C27   C28   A    
O1    C2    A    
O11   C58   A    
C43   C44   A    
C53   C57   S    
O8    C3    A    
C54   C55   A    
C11   C16   A    
C46   C47   A    
C38   C41   A    
C35   C36   A    
O9    V2    S    
O7    V2    S    
O4    V1    S    
C12   C13   A    
O3    V1    S    
V1    O10   S    
C14   H7    S    
H9    C29   S    
C51   H28   S    
C17   C18   A    
C36   C40   A    
C31   H18   S    
C52   H29   S    
C5    C6    A    
C37   C38   A    
C15   C16   A    
C32   C33   A    
V3    O20   S    
C34   C35   A    
C17   C22   A    
C42   C43   A    
C3    C23   S    
C46   H25   S    
C11   H5    S    
O13   C60   A    
C13   C59   S    
C8    H3    S    
O13   V3    S    
C57   O16   A    
C7    C8    A    
C22   C26   A    
C42   H22   S    
C14   C15   A    
