data_mof_unit_54672.cif
_audit_creation_date              2012-12-11T14:17:59-0500
_audit_creation_method            fapswitch 2.2
_symmetry_space_group_name_H-M    P1
_symmetry_Int_Tables_number       1
_space_group_crystal_system       triclinic
_cell_length_a                    11.11871
_cell_length_b                    11.094676
_cell_length_c                    18.84314
_cell_angle_alpha                 89.918801
_cell_angle_beta                  90.120549
_cell_angle_gamma                 120.257631
_cell_volume                      2007.79152287

loop_
_atom_site_label
_atom_site_type_symbol
_atom_type_description
_atom_site_fract_x
_atom_site_fract_y
_atom_site_fract_z
_atom_type_partial_charge
C1    C     C_R   0.518190 0.456611 0.147176 0.551461
C2    C     C_R   0.028860 0.427656 0.533761 -0.148571
C3    C     C_R   0.378749 0.924762 0.529258 -0.136406
C4    C     C_R   0.548200 0.601656 0.530053 -0.140107
C5    C     C_R   0.753443 0.110007 0.584478 -0.079151
C6    C     C_R   0.864941 0.626459 0.602300 -0.082956
C7    C     C_R   0.373556 0.238082 0.601654 -0.085474
C8    C     C_R   0.872598 0.674903 0.457940 -0.112953
C9    C     C_R   0.765207 0.040025 0.444679 -0.093587
C10   C     C_R   0.324714 0.192693 0.457557 -0.099393
C11   C     C_R   0.875268 0.120898 0.558567 -0.121148
C12   C     C_R   0.543653 0.062324 0.146958 0.542383
C13   C     C_R   0.849323 0.735439 0.577817 -0.111448
C14   C     C_R   0.265291 0.111258 0.577909 -0.113486
C15   C     C_R   0.859040 0.762660 0.505741 -0.155312
C16   C     C_R   0.881277 0.086198 0.488603 -0.158385
C17   C     C_R   0.236566 0.091239 0.505899 -0.150486
C18   C     C_R   0.540905 0.423168 0.361870 0.539004
C19   C     C_R   0.545592 0.060780 0.353704 0.532070
C20   C     C_R   0.879756 0.457219 0.361705 0.542931
C21   C     C_R   0.457661 0.517387 0.647643 0.530089
C22   C     C_R   0.058607 0.541192 0.647951 0.530586
C23   C     C_R   0.938492 0.482217 0.147307 0.550489
C24   C     C_R   0.480528 0.936684 0.646027 0.528048
C25   C     C_R   0.508347 0.996374 0.924817 -0.006865
C26   C     C_R   0.007289 0.512401 0.925791 -0.005976
C27   C     C_R   0.487561 0.493440 0.925432 -0.006363
C28   C     C_R   0.995538 0.507918 0.075020 -0.007371
C29   C     C_R   0.512785 0.007784 0.074039 -0.005891
C30   C     C_R   0.493467 0.487851 0.074618 -0.007765
C31   C     C_R   0.407033 0.011043 0.961488 0.033365
C32   C     C_R   0.996410 0.398280 0.963622 0.033951
C33   C     C_R   0.603052 0.596116 0.962694 0.033988
C34   C     C_R   0.456499 0.518108 0.852835 0.535242
C35   C     C_R   0.010220 0.406362 0.038339 0.032043
C36   C     C_R   0.398887 0.996963 0.036176 0.033091
C37   C     C_R   0.596102 0.603298 0.037355 0.032392
C38   C     C_R   0.620354 0.005448 0.036356 -0.137660
C39   C     C_R   0.995949 0.616379 0.036476 -0.138614
C40   C     C_R   0.383870 0.379590 0.036521 -0.137674
C41   C     C_R   0.004615 0.620049 0.963469 -0.137536
C42   C     C_R   0.616755 0.997024 0.963345 -0.138118
C43   C     C_R   0.379296 0.384027 0.963542 -0.137034
C44   C     C_R   0.311855 0.036904 0.925812 -0.086263
C45   C     C_R   0.062140 0.543479 0.852986 0.535156
C46   C     C_R   0.971805 0.275939 0.929520 -0.088663
C47   C     C_R   0.725211 0.692501 0.927909 -0.087775
C48   C     C_R   0.036279 0.311141 0.073980 -0.086455
C49   C     C_R   0.276591 0.971854 0.070175 -0.087739
C50   C     C_R   0.692813 0.725533 0.072166 -0.087674
C51   C     C_R   0.197759 0.023783 0.961458 -0.139582
C52   C     C_R   0.982632 0.175095 0.967292 -0.142387
C53   C     C_R   0.826984 0.805430 0.964750 -0.142236
C54   C     C_R   0.024132 0.197273 0.038173 -0.140207
C55   C     C_R   0.175652 0.982110 0.032299 -0.142418
C56   C     C_R   0.482288 0.938653 0.852621 0.536735
C57   C     C_R   0.805928 0.826879 0.035417 -0.142346
C58   C     C_R   0.497490 0.986062 0.573215 0.001601
C59   C     C_R   0.985419 0.495386 0.580781 -0.005910
C60   C     C_R   0.496730 0.491380 0.578682 0.005482
C61   C     C_R   0.922168 0.479126 0.436322 0.003937
C62   C     C_R   0.522663 0.002060 0.425693 0.002925
C63   C     C_R   0.511536 0.443422 0.434870 0.010254
C64   C     C_R   0.630881 0.048724 0.542635 0.022475
C65   C     C_R   0.910335 0.557628 0.555650 0.025679
C66   C     C_R   0.438819 0.352776 0.554492 0.023362
C67   C     C_R   0.391571 0.942170 0.456161 -0.161125
C68   C     C_R   0.898064 0.568278 0.481825 0.020220
C69   C     C_R   0.640254 0.031180 0.469656 0.038016
C70   C     C_R   0.428174 0.328028 0.480917 0.023669
C71   C     C_R   0.989580 0.411634 0.463324 -0.135219
C72   C     C_R   0.560848 0.578608 0.459225 -0.145584
Cr1   Cr    Cr6+3 0.768550 0.541320 0.250660 0.991004
Cr2   Cr    Cr6+3 0.458680 0.227230 0.250660 0.992242
Cr3   Cr    Cr6+3 0.772770 0.231450 0.250660 0.999738
Cr4   Cr    Cr6+3 0.541320 0.768550 0.749340 0.997089
Cr5   Cr    Cr6+3 0.227230 0.458680 0.749340 0.997861
Cr6   Cr    Cr6+3 0.231450 0.772770 0.749340 0.995106
H1    H     H_    0.710336 0.013632 0.063080 0.155998
H2    H     H_    0.067430 0.324647 0.129191 0.127791
H3    H     H_    0.256260 0.940359 0.125252 0.127000
H4    H     H_    0.680585 0.744646 0.127255 0.125866
H5    H     H_    0.127826 0.044569 0.932365 0.094338
H6    H     H_    0.959308 0.081863 0.940111 0.096763
H7    H     H_    0.919838 0.874760 0.936898 0.095634
H8    H     H_    0.045688 0.127628 0.067129 0.095604
H9    H     H_    0.082293 0.958089 0.059311 0.097097
H10   H     H_    0.875848 0.919531 0.063412 0.096614
H11   H     H_    0.299787 0.908685 0.423533 0.124183
H12   H     H_    0.985407 0.697395 0.062486 0.155442
H13   H     H_    0.020319 0.353695 0.428981 0.149068
H14   H     H_    0.608394 0.666908 0.423336 0.129437
H15   H     H_    0.097344 0.390278 0.550951 0.147920
H16   H     H_    0.275144 0.864695 0.551476 0.154206
H17   H     H_    0.579335 0.706890 0.546825 0.148387
H18   H     H_    0.752836 0.140457 0.639000 0.121781
H19   H     H_    0.853538 0.604678 0.658704 0.119717
H20   H     H_    0.395738 0.249766 0.658012 0.120491
H21   H     H_    0.865692 0.699023 0.403599 0.161903
H22   H     H_    0.773285 0.002887 0.392979 0.138572
H23   H     H_    0.302518 0.288329 0.062900 0.156393
H24   H     H_    0.300700 0.161746 0.403136 0.163862
H25   H     H_    0.965130 0.156371 0.592834 0.119330
H26   H     H_    0.826428 0.796488 0.614309 0.124220
H27   H     H_    0.204758 0.028012 0.615153 0.122503
H28   H     H_    0.841215 0.842690 0.485752 0.114677
H29   H     H_    0.975733 0.093406 0.468378 0.109168
H30   H     H_    0.152426 0.992225 0.487059 0.112016
H31   H     H_    0.012846 0.710194 0.936736 0.155685
H32   H     H_    0.697688 0.986638 0.937335 0.155792
H33   H     H_    0.287970 0.302693 0.937172 0.156646
H34   H     H_    0.325378 0.068284 0.870639 0.120224
H35   H     H_    0.940543 0.255611 0.874396 0.122178
H36   H     H_    0.744049 0.679980 0.872821 0.120134
O1    O     O_R   0.910960 0.572410 0.171010 -0.520726
O2    O     O_R   0.528530 0.639750 0.824400 -0.504735
O3    O     O_R   0.111220 0.471470 0.824400 -0.505782
O4    O     O_R   0.360250 0.888780 0.824400 -0.503880
O5    O     O_R   0.909330 0.572400 0.331540 -0.543096
O6    O     O_R   0.427600 0.336930 0.331540 -0.533146
O7    O     O_R   0.663070 0.090670 0.331540 -0.540340
O8    O     O_R   0.572400 0.909330 0.668460 -0.528305
O9    O     O_R   0.336930 0.427600 0.668460 -0.527314
O10   O     O_R   0.090670 0.663070 0.668460 -0.529259
O11   O     O_R   0.638240 0.528520 0.324410 -0.525625
O12   O     O_R   0.427590 0.338550 0.171010 -0.519427
O13   O     O_R   0.471480 0.109720 0.324410 -0.524411
O14   O     O_R   0.890280 0.361760 0.324410 -0.499835
O15   O     O_R   0.528520 0.638240 0.675590 -0.512364
O16   O     O_R   0.109720 0.471480 0.675590 -0.510559
O17   O     O_R   0.361760 0.890280 0.675590 -0.512519
O18   O     O_3   0.666667 0.333333 0.250630 -0.272898
O19   O     O_3   0.333333 0.666667 0.749370 -0.237828
O20   O     O_R   0.661450 0.089040 0.171010 -0.524143
O21   O     O_R   0.572410 0.910960 0.828990 -0.527468
O22   O     O_R   0.338550 0.427590 0.828990 -0.529843
O23   O     O_R   0.089040 0.661450 0.828990 -0.528721
O24   O     O_R   0.639750 0.528530 0.175600 -0.499507
O25   O     O_R   0.471470 0.111220 0.175600 -0.503123
O26   O     O_R   0.888780 0.360250 0.175600 -0.498160

loop_
_geom_bond_atom_site_label_1
_geom_bond_atom_site_label_2
_ccdc_geom_bond_type
C25   C31   A    
C47   H36   S    
C26   C32   A    
Cr1   O5    S    
C7    H20   S    
Cr2   O18   S    
C12   C29   S    
C61   C68   A    
C25   C56   S    
C56   O21   A    
Cr3   O20   S    
C39   C41   A    
Cr2   O12   S    
C27   C33   A    
C48   C54   A    
C29   C36   A    
C43   H33   S    
C62   C67   A    
C15   H28   S    
Cr6   O4    S    
C9    C16   A    
C9    C69   A    
C20   O14   A    
Cr5   O3    S    
Cr3   O26   S    
C18   O11   A    
C72   H14   S    
C18   C63   S    
Cr1   O24   S    
C19   C62   S    
C34   O2    A    
C46   C52   A    
C67   H11   S    
C10   C70   A    
Cr3   O14   S    
C11   C16   A    
C49   H3    S    
C20   C61   S    
C52   H6    S    
C14   H27   S    
C16   H29   S    
C40   H23   S    
C18   O6    A    
C7    C14   A    
C28   C35   A    
C29   C38   A    
Cr5   O22   S    
Cr6   O10   S    
C39   H12   S    
C26   C45   S    
C47   C53   A    
C61   C71   A    
Cr1   O18   S    
C60   C66   A    
C41   H31   S    
C22   O16   A    
C14   C17   A    
Cr5   O19   S    
C35   C48   A    
C24   O8    A    
Cr4   O21   S    
C52   C54   A    
C62   C69   A    
C6    C65   A    
C27   C34   S    
C58   C64   A    
C31   C44   A    
C32   C35   A    
C23   O26   A    
C10   H24   S    
C1    O12   A    
C21   C60   S    
C17   H30   S    
C22   C59   S    
C54   H8    S    
C53   C57   A    
C2    C59   A    
C11   H25   S    
C28   C39   A    
C49   C55   A    
C33   C37   A    
C30   C37   A    
C21   O9    A    
Cr6   O17   S    
C6    H19   S    
C3    C58   A    
Cr5   O9    S    
C4    H17   S    
Cr4   O15   S    
Cr2   O13   S    
C63   C70   A    
C34   O22   A    
C65   C68   A    
C4    C60   A    
C45   O23   A    
C12   O25   A    
C30   C40   A    
C23   C28   S    
C13   H26   S    
C21   O15   A    
C44   H34   S    
C44   C51   A    
C8    C68   A    
C9    H22   S    
C13   C15   A    
C5    C11   A    
C33   C47   A    
C2    C71   A    
Cr6   O23   S    
C51   H5    S    
C4    C72   A    
C5    H18   S    
Cr2   O6    S    
Cr3   O18   S    
C50   H4    S    
C45   O3    A    
C19   O7    A    
C46   H35   S    
Cr3   O7    S    
C50   C57   A    
C32   C46   A    
C8    H21   S    
C2    H15   S    
C3    C67   A    
C25   C42   A    
C53   H7    S    
Cr4   O19   S    
C22   O10   A    
C8    C15   A    
C64   C69   A    
Cr2   O25   S    
Cr1   O1    S    
C57   H10   S    
Cr4   O8    S    
C40   C43   A    
C48   H2    S    
C42   H32   S    
C59   C65   A    
C7    C66   A    
C56   O4    A    
C37   C50   A    
C24   O17   A    
C66   C70   A    
Cr1   O11   S    
C19   O13   A    
C1    C30   S    
Cr4   O2    S    
C3    H16   S    
C51   C55   A    
Cr5   O16   S    
C55   H9    S    
Cr6   O19   S    
C36   C49   A    
C23   O1    A    
C38   C42   A    
C27   C43   A    
C71   H13   S    
C63   C72   A    
C5    C64   A    
C24   C58   S    
C38   H1    S    
C31   C36   A    
C12   O20   A    
C10   C17   A    
C20   O5    A    
C1    O24   A    
C26   C41   A    
C6    C13   A    
