data_mof_unit_16019.cif
_audit_creation_date              2013-03-05T15:41:25-0500
_audit_creation_method            fapswitch 2.2
_symmetry_space_group_name_H-M    P1
_symmetry_Int_Tables_number       1
_space_group_crystal_system       triclinic
_cell_length_a                    11.67619
_cell_length_b                    18.618538
_cell_length_c                    10.124834
_cell_angle_alpha                 89.99828
_cell_angle_beta                  110.385038
_cell_angle_gamma                 90.000591
_cell_volume                      2063.22728294

loop_
_atom_site_label
_atom_site_type_symbol
_atom_site_description
_atom_site_fract_x
_atom_site_fract_y
_atom_site_fract_z
_atom_type_partial_charge
O1    O     O_R   0.267710 0.668200 0.902110 -0.405400
O2    O     O_R   0.732290 0.331800 0.097890 -0.372586
O3    O     O_R   0.732290 0.168200 0.097890 -0.405458
O4    O     O_R   0.267710 0.831800 0.902110 -0.372636
O5    O     O_R   0.099480 0.674460 0.038850 -0.453663
O6    O     O_R   0.900520 0.325540 0.961150 -0.481715
O7    O     O_R   0.900520 0.174460 0.961150 -0.453645
O8    O     O_R   0.099480 0.825540 0.038850 -0.481699
C1    C     C_R   0.072312 0.647280 0.140373 0.591804
C2    C     C_R   0.927964 0.352844 0.860443 0.558801
C3    C     C_R   0.927692 0.147282 0.859629 0.591830
C4    C     C_R   0.072036 0.852845 0.139555 0.558817
O9    O     O_R   0.116720 0.669210 0.267660 -0.457439
O10   O     O_R   0.883280 0.330790 0.732340 -0.473528
O11   O     O_R   0.883280 0.169210 0.732340 -0.457413
O12   O     O_R   0.116720 0.830790 0.267660 -0.473531
O13   O     O_R   0.366710 0.675440 0.427590 -0.451288
O14   O     O_R   0.633290 0.324560 0.572410 -0.475183
O15   O     O_R   0.633290 0.175440 0.572410 -0.451275
O16   O     O_R   0.366710 0.824560 0.427590 -0.475163
C5    C     C_R   0.469147 0.646588 0.441521 0.631975
C6    C     C_R   0.531286 0.353927 0.559092 0.598966
C7    C     C_R   0.530858 0.146589 0.558480 0.631995
C8    C     C_R   0.468710 0.853930 0.440898 0.598969
O17   O     O_R   0.534870 0.669390 0.371760 -0.464417
O18   O     O_R   0.465130 0.330610 0.628240 -0.463695
O19   O     O_R   0.465130 0.169390 0.628240 -0.464386
O20   O     O_R   0.534870 0.830610 0.371760 -0.463684
O21   O     O_R   0.453080 0.674480 0.075160 -0.494157
O22   O     O_R   0.546920 0.325520 0.924840 -0.468374
O23   O     O_R   0.546920 0.174480 0.924840 -0.494115
O24   O     O_R   0.453080 0.825520 0.075160 -0.468385
C9    C     C_R   0.375557 0.644447 0.967539 0.635117
C10   C     C_R   0.643966 0.362580 0.994205 0.567576
C11   C     C_R   0.624431 0.144457 0.032493 0.635131
C12   C     C_R   0.356049 0.862580 0.005760 0.567600
Cr1   Cr    Cr6+3 0.187610 0.750000 0.979860 1.242876
Cr2   Cr    Cr6+3 0.812390 0.250000 0.020140 1.242896
Cr3   Cr    Cr6+3 0.245810 0.750000 0.341640 1.196928
Cr4   Cr    Cr6+3 0.754190 0.250000 0.658360 1.196961
Cr5   Cr    Cr6+3 0.485760 0.750000 0.219910 1.174258
Cr6   Cr    Cr6+3 0.514240 0.250000 0.780090 1.174285
O25   O     O_3   0.306390 0.750000 0.180470 -0.381690
O26   O     O_3   0.693610 0.250000 0.819530 -0.381692
C13   C     C_R   0.503733 0.425612 0.488576 0.050636
C14   C     C_R   0.498487 0.576214 0.514973 0.043815
C15   C     C_R   0.496264 0.925617 0.511399 0.050638
C16   C     C_R   0.501531 0.076220 0.485019 0.043827
C17   C     C_R   0.285149 0.422029 0.455469 0.295911
C18   C     C_R   0.717978 0.579722 0.543889 0.279560
C19   C     C_R   0.714848 0.922022 0.544537 0.295930
C20   C     C_R   0.282039 0.079733 0.456097 0.279568
C21   C     C_R   0.188440 0.451323 0.487084 -0.013433
C22   C     C_R   0.817547 0.547143 0.523116 -0.014177
C23   C     C_R   0.811578 0.951309 0.512955 -0.013468
C24   C     C_R   0.182468 0.047158 0.476876 -0.014151
C25   C     C_R   0.197906 0.519620 0.544133 -0.050116
C26   C     C_R   0.810029 0.476894 0.476397 -0.036880
C27   C     C_R   0.802145 0.019607 0.455927 -0.050185
C28   C     C_R   0.189978 0.976908 0.523591 -0.036892
C29   C     C_R   0.300917 0.562369 0.562460 0.204240
C30   C     C_R   0.702128 0.437621 0.448219 0.235844
C31   C     C_R   0.699148 0.062372 0.437588 0.204194
C32   C     C_R   0.297872 0.937630 0.551763 0.235854
C33   C     C_R   0.399546 0.534112 0.523903 -0.062011
C34   C     C_R   0.603158 0.467577 0.481906 -0.058460
C35   C     C_R   0.600479 0.034117 0.476092 -0.061999
C36   C     C_R   0.396845 0.967584 0.518073 -0.058416
C37   C     C_R   0.395817 0.460434 0.486765 -0.013631
C38   C     C_R   0.606652 0.541625 0.515274 -0.037267
C39   C     C_R   0.604186 0.960435 0.513212 -0.013619
C40   C     C_R   0.393360 0.041632 0.484709 -0.037252
H1    H     H_    0.105624 0.420654 0.468980 0.220628
H2    H     H_    0.901506 0.576786 0.542002 0.225455
H3    H     H_    0.894385 0.920629 0.531065 0.220625
H4    H     H_    0.098513 0.076805 0.457997 0.225461
H5    H     H_    0.122769 0.539996 0.572336 0.217476
H6    H     H_    0.886810 0.454188 0.454382 0.219778
H7    H     H_    0.877304 0.039974 0.427752 0.217460
H8    H     H_    0.113194 0.954205 0.545609 0.219751
C41   C     C_2   0.382833 0.938817 0.992111 0.240980
C42   C     C_2   0.600530 0.070166 0.052473 0.243163
C43   C     C_2   0.617218 0.438824 0.007833 0.240894
C44   C     C_2   0.399493 0.570167 0.947495 0.243113
C45   C     C_2   0.477836 0.972969 0.088519 0.151748
C46   C     C_2   0.498846 0.049805 0.075158 0.168406
C47   C     C_2   0.522247 0.473008 0.911435 0.151654
C48   C     C_2   0.501249 0.549836 0.924952 0.168532
C49   C     C_2   0.003572 0.919803 0.110305 0.288082
C50   C     C_2   0.992734 0.079629 0.882169 0.288311
C51   C     C_2   0.996432 0.419799 0.889686 0.288119
C52   C     C_2   0.007286 0.579621 0.117837 0.288307
C53   C     C_2   0.998992 0.959321 0.995504 0.253064
C54   C     C_2   0.001168 0.039060 0.996567 0.246679
C55   C     C_2   0.001021 0.459317 0.004491 0.253059
C56   C     C_2   0.998855 0.539055 0.003436 0.246688
Cl1   Cl    Cl    0.261611 0.339084 0.366355 -0.357781
Cl2   Cl    Cl    0.742149 0.665751 0.621221 -0.373719
Cl3   Cl    Cl    0.738361 0.839076 0.633655 -0.357755
Cl4   Cl    Cl    0.257875 0.165763 0.378760 -0.373726
N1    N     N_R   0.304125 0.631812 0.627008 0.081485
O27   O     O_R   0.406944 0.663780 0.694611 -0.300081
O28   O     O_R   0.202577 0.665928 0.609728 -0.247082
N2    N     N_R   0.690028 0.371564 0.370527 0.127334
O29   O     O_R   0.785313 0.331357 0.387456 -0.236333
O30   O     O_R   0.584248 0.351425 0.282285 -0.247506
N3    N     N_R   0.696024 0.131827 0.373102 0.081535
O31   O     O_R   0.593249 0.163847 0.305527 -0.299923
O32   O     O_R   0.797612 0.165901 0.390390 -0.247116
N4    N     N_R   0.309966 0.871571 0.629457 0.127326
O33   O     O_R   0.214674 0.831373 0.612547 -0.236378
O34   O     O_R   0.415747 0.851424 0.717687 -0.247490
N5    N     N_R   0.412572 0.102439 0.087252 -0.129309
O35   O     O_R   0.320148 0.084157 0.123601 -0.000002
O36   O     O_R   0.320149 0.084157 0.123601 -0.000002
N6    N     N_R   0.560949 0.937160 0.208659 -0.229155
O37   O     O_R   0.657417 0.904699 0.201779 -0.000077
O38   O     O_R   0.657358 0.904714 0.201766 -0.000077
N7    N     N_R   0.587681 0.602512 0.913382 -0.128884
O39   O     O_R   0.679884 0.584358 0.876518 -0.000143
O40   O     O_R   0.679906 0.584306 0.876494 -0.000143
N8    N     N_R   0.439064 0.437251 0.791274 -0.229213
O41   O     O_R   0.342828 0.404590 0.798255 -0.000079
O42   O     O_R   0.342852 0.404603 0.798328 -0.000079
Cl5   Cl    Cl    0.689345 0.009522 0.994504 -0.501050
Cl6   Cl    Cl    0.287749 0.986699 0.848174 -0.509106
Cl7   Cl    Cl    0.310519 0.509496 0.005150 -0.500976
Cl8   Cl    Cl    0.712324 0.486667 0.151815 -0.509078
Cl9   Cl    Cl    0.030055 0.083845 0.158820 -0.489680
Cl10  Cl    Cl    0.980230 0.913563 0.835917 -0.452520
Cl11  Cl    Cl    0.969991 0.583842 0.841183 -0.489628
Cl12  Cl    Cl    0.019762 0.413556 0.164075 -0.452469
Cl13  Cl    Cl    0.033229 0.053311 0.736904 -0.533171
Cl14  Cl    Cl    0.941226 0.946397 0.238311 -0.545436
Cl15  Cl    Cl    0.966823 0.553297 0.263126 -0.533200
Cl16  Cl    Cl    0.058755 0.446386 0.761651 -0.545378

loop_
_geom_bond_atom_site_label_1
_geom_bond_atom_site_label_2
_geom_bond_distance
_ccdc_geom_bond_type
C26   C30   1.397465 A    
C43   C47   1.354002 D    
C47   C48   1.465734 S    
O4    C12   1.318929 A    
N1    O27   1.300619 A    
C24   H4    1.082412 S    
O23   Cr6   1.969984 S    
O5    Cr1   1.954939 S    
C41   Cl6   1.738955 S    
N3    O32   1.302091 A    
C29   N1    1.443315 S    
C55   C56   1.484814 S    
O19   Cr6   2.081119 S    
C43   Cl8   1.738985 S    
N2    O30   1.302144 A    
O1    C9    1.280231 A    
C45   C46   1.465637 S    
O7    C3    1.280807 A    
C18   C22   1.390736 A    
C19   C39   1.412862 A    
C46   N5    1.440861 S    
C32   C36   1.427380 A    
C5    C14   1.486500 S    
C23   C27   1.384988 A    
C33   C37   1.419029 A    
O21   C9    1.277590 A    
O20   Cr5   2.081117 S    
C52   C56   1.357354 D    
N6    O37   1.301364 A    
O13   Cr3   1.954817 S    
C1    O9    1.277090 A    
N4    O33   1.301814 A    
O14   Cr4   1.954815 S    
C22   H2    1.082407 S    
C3    O11   1.277073 A    
C51   Cl16  1.764145 S    
C4    O12   1.285175 A    
O3    Cr2   2.080082 S    
N3    O31   1.300600 A    
O6    Cr2   1.954938 S    
C49   Cl14  1.764120 S    
C7    O19   1.282856 A    
C8    O20   1.285305 A    
C19   C23   1.388076 A    
O1    Cr1   2.080130 S    
C23   H3    1.082242 S    
O2    C10   1.319010 A    
C44   Cl7   1.765913 S    
N1    O28   1.302082 A    
C17   C37   1.412856 A    
Cr5   O25   1.990769 S    
Cr6   O26   1.990769 S    
C16   C40   1.416744 A    
C1    C52   1.447313 S    
N2    O29   1.301824 A    
C11   C42   1.439200 S    
Cr2   O26   2.021524 S    
C50   C54   1.357306 D    
C30   N2    1.440133 S    
N7    O40   1.301603 A    
C19   Cl3   1.761212 S    
C31   C35   1.438364 A    
C18   Cl2   1.761913 S    
C54   Cl9   1.766870 S    
O9    Cr3   2.075823 S    
O8    Cr1   1.954979 S    
O22   C10   1.303435 A    
C13   C37   1.411497 A    
C25   H5    1.081526 S    
C4    C49   1.454647 S    
C14   C33   1.424777 A    
C2    O10   1.285174 A    
C27   H7    1.081526 S    
C50   Cl13  1.763910 S    
C30   C34   1.427373 A    
Cr3   O25   1.991804 S    
C42   C46   1.340176 D    
C17   Cl1   1.761204 S    
C20   Cl4   1.761908 S    
O13   C5    1.273397 A    
C24   C28   1.383190 A    
C36   C40   1.416643 A    
Cr1   O25   2.021524 S    
O15   C7    1.273335 A    
C42   Cl5   1.766035 S    
O5    C1    1.280788 A    
C20   C40   1.419286 A    
O2    Cr2   2.080129 S    
C32   N4    1.440148 S    
O3    C11   1.280216 A    
C12   C41   1.470289 S    
O8    C4    1.276089 A    
C53   C54   1.484816 S    
C48   N7    1.440973 S    
C15   C39   1.411499 A    
C56   Cl11  1.766879 S    
C2    C51   1.454620 S    
C55   Cl12  1.771463 S    
O23   C11   1.277632 A    
C52   Cl15  1.763930 S    
C10   C43   1.470274 S    
O24   Cr5   1.969982 S    
O17   Cr5   2.081060 S    
C53   Cl10  1.771463 S    
O24   C12   1.303387 A    
C15   C36   1.420323 A    
N8    O42   1.300954 A    
O18   Cr6   2.081060 S    
N5    O35   1.300982 A    
C22   C26   1.383192 A    
O16   Cr3   1.954832 S    
C5    O17   1.282808 A    
C28   H8    1.082303 S    
C21   C25   1.385030 A    
C7    C16   1.486479 S    
O21   Cr5   1.970041 S    
O14   C6    1.274281 A    
C8    C15   1.494841 S    
C45   N6    1.429506 S    
C21   H1    1.082236 S    
C44   C48   1.340121 D    
O6    C2    1.276075 A    
C47   N8    1.429524 S    
N7    O39   1.300962 A    
C25   C29   1.399690 A    
C27   C31   1.399701 A    
C28   C32   1.397464 A    
C18   C38   1.419278 A    
C3    C50   1.447313 S    
C34   C38   1.416655 A    
C17   C21   1.388110 A    
O7    Cr2   1.954980 S    
N6    O38   1.300664 A    
C35   C39   1.419064 A    
C16   C35   1.424857 A    
C49   C53   1.360846 D    
C9    C44   1.439265 S    
N4    O34   1.302147 A    
O11   Cr4   2.075813 S    
C14   C38   1.416736 A    
O15   Cr4   1.954833 S    
C26   H6    1.082304 S    
O12   Cr3   2.075811 S    
O10   Cr4   2.075821 S    
C29   C33   1.438266 A    
Cr4   O26   1.991805 S    
C6    C13   1.494834 S    
O4    Cr1   2.080080 S    
C51   C55   1.360879 D    
C6    O18   1.285310 A    
C13   C34   1.420339 A    
O22   Cr6   1.970040 S    
N8    O41   1.301045 A    
C31   N3    1.443339 S    
O16   C8    1.274279 A    
C41   C45   1.353997 D    
C20   C24   1.390734 A    
N5    O36   1.300982 A    
