data_mof_unit_21313.cif
_audit_creation_date              2012-12-11T15:58:50-0500
_audit_creation_method            fapswitch 2.2
_symmetry_space_group_name_H-M    P1
_symmetry_Int_Tables_number       1
_space_group_crystal_system       triclinic
_cell_length_a                    8.262269
_cell_length_b                    18.856551
_cell_length_c                    19.178364
_cell_angle_alpha                 100.082853
_cell_angle_beta                  95.92888
_cell_angle_gamma                 91.274242
_cell_volume                      2923.58430421

loop_
_atom_site_label
_atom_site_type_symbol
_atom_type_description
_atom_site_fract_x
_atom_site_fract_y
_atom_site_fract_z
_atom_type_partial_charge
Ba1   Ba    Ba6+2 0.152460 0.535140 0.468980 1.766783
Ba2   Ba    Ba6+2 0.657710 0.464850 0.530960 1.763562
C1    C     C_3   0.362214 0.711631 0.214715 -0.308939
C2    C     C_R   0.109435 0.906227 0.563399 0.025888
C3    C     C_R   0.260236 0.934359 0.602312 0.052842
C4    C     C_3   0.856994 0.726586 0.282228 0.263497
C5    C     C_R   0.323282 0.001652 0.593734 -0.102934
C6    C     C_R   0.232314 0.045708 0.554594 0.017072
C7    C     C_R   0.076762 0.021630 0.521043 0.015493
C8    C     C_R   0.291190 0.115713 0.553590 -0.124116
C9    C     C_R   0.192322 0.165152 0.524062 -0.033862
C10   C     C_R   0.034946 0.141795 0.489926 0.020384
C11   C     C_R   0.978964 0.069323 0.487609 0.009871
C12   C     C_3   0.392022 0.692688 0.288741 0.370968
C13   C     C_R   0.242635 0.238343 0.531392 -0.038632
C14   C     C_R   0.135462 0.287501 0.507134 -0.302204
C15   C     C_R   0.983074 0.265708 0.469913 0.026850
C16   C     C_3   0.937444 0.801588 0.287387 0.354840
C17   C     C_R   0.931772 0.191202 0.460242 -0.051224
C18   C     C_R   0.860731 0.926842 0.489632 0.012677
C19   C     C_R   0.799826 0.856140 0.491311 -0.004547
C20   C     C_R   0.897769 0.808344 0.526261 -0.054291
C21   C     C_R   0.047133 0.835885 0.564838 -0.010891
C22   C     C_R   0.778829 0.164742 0.424566 -0.019325
C23   C     C_3   0.426276 0.672787 0.771171 0.298937
C24   C     C_R   0.721619 0.093758 0.424031 0.028848
C25   C     C_R   0.821646 0.045786 0.455655 0.025805
C26   C     C_R   0.762466 0.974723 0.456578 0.043677
C27   C     C_R   0.562872 0.070686 0.394277 -0.031989
C28   C     C_3   0.788490 0.381014 0.313296 0.326009
C29   C     C_R   0.503789 0.000962 0.395585 -0.033347
C30   C     C_R   0.602465 0.952582 0.426463 0.072262
C31   C     C_R   0.638442 0.834116 0.460097 -0.077108
C32   C     C_R   0.541810 0.883003 0.428536 -0.009891
C33   C     C_R   0.573870 0.766192 0.467585 -0.063126
C34   C     C_3   0.367961 0.749207 0.777125 -0.363839
C35   C     C_R   0.665524 0.726962 0.511969 0.162321
C36   C     C_R   0.833859 0.737294 0.527584 -0.002776
C37   C     C_R   0.599825 0.534237 0.302350 -0.288042
C38   C     C_R   0.455127 0.494061 0.277210 0.056436
C39   C     C_R   0.397268 0.484604 0.204727 -0.115905
C40   C     C_3   0.752329 0.361908 0.232671 -0.348390
C41   C     C_R   0.486553 0.513490 0.157072 -0.020350
C42   C     C_R   0.637016 0.550500 0.182291 -0.135431
C43   C     C_R   0.694139 0.560244 0.254990 -0.024104
C44   C     C_R   0.318122 0.545982 0.052135 -0.050894
C45   C     C_3   0.940076 0.265889 0.722941 0.402435
C46   C     C_R   0.268740 0.534920 0.978819 -0.025019
C47   C     C_R   0.328253 0.477501 0.932806 0.109588
C48   C     C_R   0.430446 0.428947 0.961579 0.002927
C49   C     C_R   0.481767 0.440637 0.034773 -0.063366
C50   C     C_R   0.428272 0.500005 0.080275 0.048076
C51   C     C_R   0.140624 0.439789 0.823036 -0.208552
C52   C     C_3   0.004251 0.619450 0.688866 0.284849
C53   C     C_R   0.096371 0.435085 0.750432 0.007226
C54   C     C_R   0.347905 0.500128 0.738317 -0.114144
C55   C     C_R   0.398576 0.501794 0.812777 0.372604
C56   C     C_3   0.923275 0.216487 0.650324 -0.327056
C57   C     C_R   0.291331 0.471411 0.854485 -0.064604
C58   C     C_R   0.200612 0.463782 0.708552 -0.314297
C59   C     C_3   0.991202 0.637639 0.768453 -0.338952
C60   C     C_3   0.291593 0.317368 0.363120 0.341200
C61   C     C_3   0.225910 0.240376 0.331970 0.277539
C62   C     C_3   0.918707 0.221101 0.781290 -0.175494
C63   C     C_3   0.942877 0.267310 0.855671 -0.401357
C64   C     C_3   0.347022 0.900246 0.660745 -0.218485
C65   C     C_3   0.257540 0.914453 0.727352 -0.427918
C66   C     C_3   0.379967 0.273447 0.701019 0.331543
C67   C     C_3   0.444567 0.278488 0.778951 -0.319600
C68   C     C_R   0.017102 0.950879 0.523383 -0.009451
H1    H     H_    0.337301 0.637858 0.286425 0.057146
H2    H     H_    0.195228 0.346522 0.391123 -0.099617
H3    H     H_    0.399623 0.315066 0.401861 0.032720
H4    H     H_    0.231585 0.701919 0.194114 0.124854
H5    H     H_    0.096601 0.241696 0.309980 0.017624
H6    H     H_    0.231522 0.207574 0.374797 -0.067832
H7    H     H_    0.525340 0.693003 0.303825 -0.088364
H8    H     H_    0.436626 0.677798 0.178005 0.065555
H9    H     H_    0.335850 0.639084 0.790701 -0.042651
H10   H     H_    0.543076 0.676763 0.805458 0.124488
H11   H     H_    0.337820 0.769169 0.832053 0.088100
H12   H     H_    0.643399 0.324608 0.218255 0.186708
H13   H     H_    0.465703 0.785026 0.764953 0.149041
H14   H     H_    0.258581 0.750977 0.738764 0.154308
H15   H     H_    0.396405 0.769101 0.216189 0.187635
H16   H     H_    0.064604 0.291199 0.733717 -0.075957
H17   H     H_    0.938989 0.249302 0.608847 0.096978
H18   H     H_    0.016822 0.175069 0.648521 0.045816
H19   H     H_    0.800830 0.188849 0.638682 0.145392
H20   H     H_    0.284002 0.229735 0.686872 -0.027947
H21   H     H_    0.327452 0.326052 0.694750 -0.019659
H22   H     H_    0.343753 0.290157 0.812755 0.046437
H23   H     H_    0.729043 0.411117 0.209767 0.047876
H24   H     H_    0.539527 0.322634 0.794705 0.162045
H25   H     H_    0.802850 0.725357 0.332887 -0.066187
H26   H     H_    0.497503 0.226775 0.787807 0.109232
H27   H     H_    0.439431 0.022402 0.622516 0.067037
H28   H     H_    0.173778 0.343817 0.515133 0.068783
H29   H     H_    0.411844 0.132149 0.579638 0.092361
H30   H     H_    0.113723 0.802632 0.596979 0.111730
H31   H     H_    0.699954 0.199531 0.399048 0.142465
H32   H     H_    0.482881 0.107115 0.371263 0.139293
H33   H     H_    0.380027 0.985027 0.372829 0.103749
H34   H     H_    0.858210 0.335599 0.209342 0.122042
H35   H     H_    0.417021 0.868303 0.407047 0.094599
H36   H     H_    0.760166 0.715762 0.236461 0.052866
H37   H     H_    0.188207 0.572387 0.957574 0.079144
H38   H     H_    0.272675 0.591076 0.086646 0.073621
H39   H     H_    0.285873 0.452790 0.185049 0.095501
H40   H     H_    0.475322 0.383683 0.927012 0.083133
H41   H     H_    0.564675 0.403946 0.055871 0.075704
H42   H     H_    0.056270 0.419939 0.855468 0.090743
H43   H     H_    0.711312 0.569390 0.145382 0.095831
H44   H     H_    0.161469 0.462088 0.652633 0.051349
H45   H     H_    0.124936 0.598442 0.679391 -0.036938
H46   H     H_    0.987507 0.822584 0.343456 0.014076
H47   H     H_    0.645748 0.539969 0.358054 0.062687
H48   H     H_    0.039852 0.798618 0.253862 0.077640
H49   H     H_    0.678825 0.402707 0.336306 -0.008166
H50   H     H_    0.889737 0.422332 0.326281 0.062019
H51   H     H_    0.169775 0.225295 0.178112 0.329344
H52   H     H_    0.696495 0.884196 0.154889 0.380902
H53   H     H_    0.068562 0.291601 0.866895 0.111089
H54   H     H_    0.853866 0.310725 0.860547 0.160994
H55   H     H_    0.924220 0.233082 0.895969 0.133651
H56   H     H_    0.908907 0.577363 0.665736 0.092229
H57   H     H_    0.794785 0.194719 0.772547 0.118329
H58   H     H_    0.009152 0.178151 0.778813 0.074075
H59   H     H_    0.236530 0.972912 0.742155 0.144306
H60   H     H_    0.138559 0.883897 0.718147 0.141542
H61   H     H_    0.331962 0.897755 0.772722 0.139062
H62   H     H_    0.359349 0.842042 0.643471 0.182784
H63   H     H_    0.473608 0.923239 0.675296 0.123938
H64   H     H_    0.702812 0.710549 0.688483 0.352058
H65   H     H_    0.795714 0.502299 0.916396 0.354140
H66   H     H_    0.083301 0.679606 0.795170 0.098449
H67   H     H_    0.006962 0.588715 0.792893 0.105613
H68   H     H_    0.871083 0.660301 0.777390 0.156624
O1    O     O_2   0.118870 0.674530 0.547560 -0.404138
O2    O     O_2   0.767490 0.451020 0.741922 -0.385050
O3    O     O_3   0.817074 0.316321 0.723106 -0.552932
O4    O     O_3   0.870460 0.585330 0.542110 -0.475793
O5    O     O_3   0.436130 0.464210 0.414140 -0.485344
O6    O     O_2   0.629420 0.533310 0.672080 -0.396644
O7    O     O_3   0.451487 0.647560 0.700074 -0.547631
O8    O     O_2   0.582280 0.245243 0.528935 -0.491660
O9    O     O_3   0.506992 0.256759 0.658533 -0.562880
O10   O     O_3   0.354280 0.631750 0.418430 -0.455532
O11   O     O_2   0.229680 0.756919 0.463608 -0.456866
O12   O     O_3   0.335264 0.351659 0.308321 -0.596964
O13   O     O_3   0.985006 0.682673 0.660585 -0.619961
O14   O     O_3   0.319067 0.743263 0.337212 -0.598152
O15   O     O_2   0.180880 0.466650 0.327890 -0.463317
O16   O     O_3   0.939000 0.596010 0.380670 -0.482850
O17   O     O_2   0.021669 0.538580 0.253541 -0.479101
O18   O     O_2   0.516651 0.207984 0.284205 -0.284760
O19   O     O_2   0.293053 0.117390 0.246878 -0.256528
O20   O     O_3   0.289794 0.231489 0.187971 -0.470572
O21   O     O_2   0.634813 0.852687 0.282865 -0.347655
O22   O     O_2   0.862736 0.939294 0.286120 -0.264434
O23   O     O_3   0.976104 0.675178 0.271074 -0.607537
O24   O     O_3   0.777538 0.849497 0.167955 -0.501463
O25   O     O_2   0.400789 0.723397 0.581934 -0.288379
O26   O     O_2   0.588379 0.624859 0.574896 -0.289392
O27   O     O_3   0.676771 0.747719 0.659120 -0.567724
O28   O     O_2   0.690651 0.573360 0.811009 -0.346593
O29   O     O_2   0.555991 0.598820 0.918933 -0.325148
O30   O     O_3   0.695177 0.476920 0.890357 -0.535809
O31   O     O_2   0.691430 0.325420 0.452420 -0.460314
O32   O     O_3   0.939830 0.414660 0.457830 -0.509109
O33   O     O_3   0.456020 0.368240 0.581510 -0.471638
O34   O     O_3   0.831501 0.318460 0.339220 -0.617521
O35   O     O_3   0.374170 0.535780 0.585810 -0.393531
O36   O     O_3   0.871300 0.403980 0.619270 -0.483397
P1    P     P_3+3 0.947550 0.663200 0.567530 1.092362
P2    P     P_3+3 0.354660 0.445020 0.336980 1.006189
P3    P     P_3+3 0.904225 0.592948 0.288598 0.949522
P4    P     P_3+3 0.862750 0.336790 0.432410 0.988888
P5    P     P_3+3 0.892741 0.399928 0.709695 1.010384
P6    P     P_3+3 0.371265 0.725447 0.423094 1.038727
P7    P     P_3+3 0.446500 0.553191 0.678189 1.123864
P8    P     P_3+3 0.445965 0.275026 0.573691 0.963254
S1    S     S_3+6 0.336856 0.196778 0.262177 -0.035150
S2    S     S_3+6 0.797789 0.863577 0.257482 -0.091626
S3    S     S_3+6 0.574546 0.704156 0.582433 -0.086576
S4    S     S_3+6 0.588185 0.541033 0.857890 -0.116214

loop_
_geom_bond_atom_site_label_1
_geom_bond_atom_site_label_2
_ccdc_geom_bond_type
C15   P4    S    
O12   P2    S    
Ba1   P2    S    
C38   C39   A    
C44   C50   A    
C1    H15   S    
C23   H10   S    
Ba2   O6    S    
C12   H1    S    
O33   P8    S    
C58   H44   S    
C40   H12   S    
C67   H26   S    
C59   H67   S    
C56   H17   S    
O2    P5    D    
C2    C68   A    
C51   C57   A    
C5    C6    A    
C52   H56   S    
O15   P2    D    
Ba1   O35   S    
C24   C25   A    
C35   C36   A    
C61   H5    S    
O32   P4    S    
C33   C35   A    
C22   C24   A    
C22   H31   S    
Ba2   O35   S    
C41   C50   S    
C55   C57   A    
C46   H37   S    
C19   C31   A    
C54   P7    S    
C34   H13   S    
C13   C14   A    
C40   H23   S    
C13   P8    S    
O7    P7    S    
Ba1   O32   S    
C48   H40   S    
C66   H21   S    
C54   C55   A    
Ba1   Ba2   S    
C63   H54   S    
C47   C48   A    
C1    H4    S    
C7    C11   A    
Ba1   O4    S    
C15   C17   A    
C9    C13   A    
C35   S3    S    
C66   C67   S    
C62   H58   S    
C44   H38   S    
C66   H20   S    
H65   O30   S    
C60   H3    S    
O21   S2    D    
C67   H22   S    
C5    H27   S    
O20   S1    S    
C16   H48   S    
Ba1   O1    S    
O3    P5    S    
C43   P3    S    
Ba2   O33   S    
C37   C43   A    
C29   H33   S    
C21   H30   S    
O35   P7    S    
O10   P6    S    
C39   H39   S    
C53   C58   A    
Ba2   O5    S    
C39   C41   A    
C18   C68   A    
C65   H59   S    
Ba1   O16   S    
O5    P2    S    
O18   S1    D    
C48   C49   A    
C64   H62   S    
C51   C53   A    
C4    C16   S    
C44   C46   A    
O30   S4    S    
O8    P8    D    
C49   C50   A    
C45   H16   S    
C26   C30   A    
O13   P1    S    
C7    C68   A    
C67   H24   S    
C16   H46   S    
C37   C38   A    
C3    C5    A    
C2    C21   A    
C6    C7    A    
C18   C26   A    
C37   H47   S    
O29   S4    D    
O11   P6    D    
O27   S3    S    
C54   C58   A    
C40   H34   S    
C63   H55   S    
O14   P6    S    
C41   C42   A    
O24   S2    S    
C60   C61   S    
Ba1   O5    S    
C64   H63   S    
C29   C30   A    
C4    O23   S    
C16   S2    S    
C34   H11   S    
C62   H57   S    
C52   H45   S    
Ba2   O31   S    
C31   C32   A    
C4    H36   S    
H64   O27   S    
C60   H2    S    
C18   C19   A    
Ba1   O15   S    
C66   O9    S    
C28   O34   S    
C55   S4    S    
O4    P1    S    
C1    C12   S    
Ba2   O32   S    
O9    P8    S    
C46   C47   A    
C42   H43   S    
O26   S3    D    
H51   O20   S    
Ba2   O4    S    
C65   H60   S    
C28   H49   S    
O23   P3    S    
O31   P4    D    
C45   C62   S    
C42   C43   A    
C51   H42   S    
C38   P2    S    
O34   P4    S    
C33   P6    S    
O6    P7    D    
Ba1   P1    S    
C49   H41   S    
C60   O12   S    
O1    P1    D    
O28   S4    D    
C32   H35   S    
C53   P5    S    
C65   H61   S    
C3    C64   S    
C56   H18   S    
C61   S1    S    
C9    C10   A    
C52   O13   S    
C52   C59   S    
Ba2   P4    S    
C45   O3    S    
C47   C57   S    
H52   O24   S    
O25   S3    D    
C62   C63   S    
C17   C22   A    
C27   C29   A    
Ba2   O36   S    
C45   C56   S    
C14   H28   S    
C36   P1    S    
C14   C15   A    
C28   H50   S    
C34   H14   S    
C10   C17   A    
C31   C33   A    
C27   H32   S    
C64   C65   S    
C28   C40   S    
C63   H53   S    
C8    H29   S    
C59   H68   S    
C56   H19   S    
C23   H9    S    
C8    C9    A    
C23   C34   S    
C2    C3    A    
C10   C11   A    
C24   C27   A    
C6    C8    A    
C4    H25   S    
C61   H6    S    
O16   P3    S    
C12   O14   S    
C25   C26   A    
C12   H7    S    
C20   C21   A    
C11   C25   A    
Ba1   O10   S    
C23   O7    S    
O19   S1    D    
C19   C20   A    
C1    H8    S    
O36   P5    S    
O22   S2    D    
O17   P3    D    
C59   H66   S    
C30   C32   A    
C20   C36   A    
