data_mof_unit_16062.cif
_audit_creation_date              2012-10-26T18:43:30-0400
_audit_creation_method            fapswitch 2.2
_symmetry_space_group_name_H-M    P1
_symmetry_Int_Tables_number       1
_space_group_crystal_system       triclinic
_cell_length_a                    10.792472
_cell_length_b                    10.845378
_cell_length_c                    9.566148
_cell_angle_alpha                 90.146109
_cell_angle_beta                  88.278926
_cell_angle_gamma                 91.113224
_cell_volume                      1118.98415576

loop_
_atom_site_label
_atom_site_type_symbol
_atom_type_description
_atom_site_fract_x
_atom_site_fract_y
_atom_site_fract_z
_atom_type_partial_charge
C1    C     C_R   0.498591 0.262402 0.499983 0.545980
C2    C     C_R   0.500184 0.936718 0.624223 0.000510
C3    C     C_3   0.601969 0.929831 0.725157 -0.261804
C4    C     C_R   0.260432 0.491610 0.501728 0.553406
C5    C     C_3   0.605691 0.069537 0.725370 -0.115335
C6    C     C_R   0.546330 0.599020 0.072059 0.143959
C7    C     C_R   0.439370 0.410363 0.076418 0.018382
C8    C     C_R   0.439201 0.410602 0.927762 0.007663
C9    C     C_R   0.548147 0.598220 0.924700 0.159573
C10   C     C_3   0.679015 0.644301 0.916915 -0.282193
C11   C     C_3   0.674729 0.649296 0.075064 -0.261869
C12   C     C_3   0.879029 0.493457 0.495177 0.009358
C13   C     C_R   0.497884 0.737618 0.499986 0.556663
C14   C     C_R   0.740215 0.496659 0.498283 0.554262
C15   C     C_3   0.065467 0.425170 0.635556 0.115285
C16   C     C_3   0.924164 0.447281 0.640632 -0.236137
C17   C     C_3   0.076769 0.627781 0.502380 -0.165315
C18   C     C_3   0.075395 0.422060 0.371376 -0.175702
C19   C     C_3   0.122665 0.491580 0.503128 0.006274
C20   C     C_3   0.913296 0.342126 0.139799 -0.008460
C21   C     C_3   0.877391 0.387421 0.997501 -0.388616
C22   C     C_1   0.149394 0.709146 0.404002 0.221210
C23   C     C_3   0.933914 0.628000 0.478969 -0.134626
C24   C     C_1   0.902649 0.688450 0.346815 0.264187
C25   C     C_1   0.570654 0.119070 0.863737 0.196081
C26   C     C_3   0.163924 0.254024 0.729596 -0.020885
C27   C     C_3   0.167814 0.114022 0.724054 -0.357176
C28   C     C_1   0.896826 0.273668 0.417886 0.243208
C29   C     C_3   0.931770 0.403334 0.377480 0.242662
C30   C     C_R   0.501204 0.064185 0.625391 0.005003
C31   C     C_R   0.488827 0.129094 0.500721 0.000394
C32   C     C_R   0.461483 0.063709 0.377894 -0.144168
C33   C     C_R   0.461164 0.935040 0.377523 -0.128911
C34   C     C_R   0.487047 0.870744 0.500289 0.013379
Cu1   Cu    Cu3+1 0.499990 0.499980 0.640670 0.928823
Cu2   Cu    Cu3+1 0.500010 0.500020 0.359330 0.983532
H1    H     H_    0.104204 0.468010 0.731789 0.108807
H2    H     H_    0.691465 0.736002 0.868635 0.120844
H3    H     H_    0.738548 0.584444 0.123476 0.221877
H4    H     H_    0.676114 0.745007 0.116811 0.156514
H5    H     H_    0.872910 0.361929 0.674423 0.165626
H6    H     H_    0.903670 0.517703 0.722194 0.077646
H7    H     H_    0.092865 0.667425 0.607970 0.090229
H8    H     H_    0.891233 0.686240 0.562866 0.081077
H9    H     H_    0.102783 0.477394 0.277134 0.147592
H10   H     H_    0.122360 0.331893 0.358869 0.120204
H11   H     H_    0.860529 0.254424 0.159044 0.165396
H12   H     H_    0.445341 0.111550 0.281073 0.153350
H13   H     H_    0.014091 0.322777 0.134428 0.104564
H14   H     H_    0.921790 0.478896 0.976048 0.149241
H15   H     H_    0.908972 0.320761 0.916481 0.109092
H16   H     H_    0.774984 0.393197 0.993925 0.168412
H17   H     H_    0.131068 0.281983 0.836292 0.108453
H18   H     H_    0.259053 0.289922 0.707786 0.168218
H19   H     H_    0.201304 0.083365 0.618874 0.172238
H20   H     H_    0.231901 0.080114 0.803475 0.106696
H21   H     H_    0.073716 0.074066 0.745982 0.165814
H22   H     H_    0.445657 0.886586 0.280281 0.158939
H23   H     H_    0.566753 0.887964 0.824964 0.141256
H24   H     H_    0.687371 0.888609 0.678643 0.124601
H25   H     H_    0.692870 0.110943 0.679829 0.141538
H26   H     H_    0.392607 0.336108 0.133340 0.120309
H27   H     H_    0.393210 0.336016 0.874429 0.108889
H28   H     H_    0.742962 0.574893 0.873060 0.142989
N1    N     N_R   0.500800 0.500930 0.147930 -0.233117
N2    N     N_R   0.500800 0.500890 0.852020 -0.236213
N3    N     N_1   0.205469 0.772481 0.327113 -0.292382
N4    N     N_1   0.882654 0.739648 0.244419 -0.309557
N5    N     N_1   0.544484 0.155393 0.974260 -0.348316
N6    N     N_1   0.869625 0.173437 0.448958 -0.317175
O1    O     O_R   0.500000 0.319640 0.618810 -0.516087
O2    O     O_3   0.084543 0.295820 0.626294 -0.562880
O3    O     O_R   0.500010 0.319680 0.381230 -0.506955
O4    O     O_R   0.317690 0.499960 0.618790 -0.525692
O5    O     O_R   0.317700 0.500000 0.381210 -0.507831
O6    O     O_R   0.499990 0.680320 0.618770 -0.499192
O7    O     O_R   0.500000 0.680360 0.381190 -0.498885
O8    O     O_R   0.682300 0.500000 0.618790 -0.527170
O9    O     O_R   0.682310 0.500040 0.381210 -0.448037
O10   O     O_3   0.882868 0.431602 0.244131 -0.559524

loop_
_geom_bond_atom_site_label_1
_geom_bond_atom_site_label_2
_ccdc_geom_bond_type
C26   H17   S    
Cu1   O4    S    
C8    N2    A    
C33   H22   S    
C12   C29   S    
C26   O2    S    
Cu1   Cu2   S    
C6    C9    A    
C7    C8    A    
C15   C19   S    
C15   O2    S    
C12   C23   S    
C26   C27   S    
C17   C23   S    
C28   C29   S    
Cu2   O7    S    
C30   C31   A    
C27   H19   S    
C15   C16   S    
C18   H10   S    
C1    C31   S    
C18   C19   S    
C9    N2    A    
C15   H1    S    
C4    O5    A    
C4    C19   S    
C6    N1    A    
C12   C16   S    
C23   C24   S    
C9    C10   S    
C4    O4    A    
C3    H24   S    
C2    C34   A    
Cu1   O1    S    
C32   H12   S    
C26   H18   S    
C21   H14   S    
C13   O7    A    
Cu1   O6    S    
C20   O10   S    
Cu2   O3    S    
C6    C11   S    
C27   H20   S    
Cu1   N2    S    
C23   H8    S    
C17   H7    S    
C7    H26   S    
C20   H13   S    
Cu2   O5    S    
C7    N1    A    
C31   C32   A    
C13   O6    A    
C33   C34   A    
C5    H25   S    
C18   C29   S    
C1    O1    A    
C14   O9    A    
C11   H3    S    
C5    C25   S    
C12   C14   S    
C27   H21   S    
C25   N5    T    
C18   H9    S    
C16   H6    S    
C21   H15   S    
C5    C30   S    
Cu2   N1    S    
C10   H28   S    
C3    C5    S    
Cu2   O9    S    
Cu1   O8    S    
C17   C22   S    
C2    C30   A    
C10   H2    S    
C1    O3    A    
C32   C33   A    
C2    C3    S    
C13   C34   S    
C29   O10   S    
C17   C19   S    
C14   O8    A    
C11   H4    S    
C22   N3    T    
C20   H11   S    
C10   C11   S    
C24   N4    T    
C8    H27   S    
C28   N6    T    
C20   C21   S    
C16   H5    S    
C21   H16   S    
C3    H23   S    
