data_mof_unit_53059.cif
_audit_creation_date              2012-12-11T14:13:28-0500
_audit_creation_method            fapswitch 2.2
_symmetry_space_group_name_H-M    P1
_symmetry_Int_Tables_number       1
_space_group_crystal_system       triclinic
_cell_length_a                    11.571075
_cell_length_b                    18.258762
_cell_length_c                    10.0789
_cell_angle_alpha                 89.999555
_cell_angle_beta                  110.747902
_cell_angle_gamma                 89.998646
_cell_volume                      1991.30876936

loop_
_atom_site_label
_atom_site_type_symbol
_atom_type_description
_atom_site_fract_x
_atom_site_fract_y
_atom_site_fract_z
_atom_type_partial_charge
C1    C     C_R   0.070709 0.647243 0.139987 0.562882
C2    C     C_2   0.643728 0.058687 0.987816 -0.120436
C3    C     C_2   0.591179 0.423652 0.090364 -0.083880
C4    C     C_2   0.356262 0.558691 0.012242 -0.120487
C5    C     C_2   0.524213 0.946332 0.937326 -0.163337
C6    C     C_2   0.542567 0.023146 0.907912 -0.150296
C7    C     C_2   0.475818 0.446346 0.062714 -0.163301
C8    C     C_2   0.457451 0.523160 0.092103 -0.150284
C9    C     C_2   0.036826 0.931086 0.121872 -0.119420
C10   C     C_2   0.004341 0.081608 0.888793 -0.094661
C11   C     C_2   0.963132 0.431096 0.878107 -0.119466
C12   C     C_R   0.920612 0.356225 0.857750 0.557659
C13   C     C_2   0.995656 0.581612 0.111212 -0.094642
C14   C     C_2   0.062190 0.971950 0.026232 -0.165070
C15   C     C_2   0.027796 0.048118 0.012684 -0.173491
C16   C     C_2   0.937794 0.471955 0.973774 -0.165139
C17   C     C_2   0.972180 0.548124 0.987316 -0.173514
C18   C     C_R   0.475724 0.652764 0.452951 0.576494
C19   C     C_R   0.566487 0.362862 0.627173 0.555930
C20   C     C_R   0.524294 0.152752 0.547071 0.576459
C21   C     C_R   0.433511 0.862863 0.372834 0.555944
C22   C     C_R   0.349198 0.638635 0.014241 0.589801
C23   C     C_R   0.929291 0.147242 0.860015 0.562859
C24   C     C_R   0.622460 0.354686 0.038261 0.580841
C25   C     C_R   0.650799 0.138631 0.985772 0.589781
C26   C     C_R   0.377546 0.854672 0.961702 0.580634
C27   C     C_R   0.563761 0.445271 0.611931 -0.032884
C28   C     C_R   0.524467 0.595953 0.563549 0.016392
C29   C     C_R   0.436241 0.945271 0.388099 -0.032894
C30   C     C_R   0.475580 0.095943 0.436481 0.016361
C31   C     C_R   0.387639 0.449195 0.706829 -0.101010
C32   C     C_R   0.735770 0.617055 0.597608 -0.106667
C33   C     C_R   0.612371 0.949174 0.293202 -0.100988
C34   C     C_R   0.079371 0.856220 0.142244 0.557662
C35   C     C_R   0.264267 0.117094 0.402226 -0.106576
C36   C     C_R   0.272550 0.477413 0.688958 0.001838
C37   C     C_R   0.840132 0.595695 0.573130 -0.022144
C38   C     C_R   0.727490 0.977356 0.311126 0.001749
C39   C     C_R   0.159832 0.095771 0.426563 -0.022218
C40   C     C_R   0.251391 0.551363 0.660075 -0.101869
C41   C     C_R   0.849435 0.523324 0.536909 -0.057450
C42   C     C_R   0.748693 0.051298 0.340046 -0.101991
C43   C     C_R   0.150461 0.023415 0.462823 -0.057418
C44   C     C_R   0.345884 0.594391 0.645034 0.032885
C45   C     C_R   0.468174 0.483638 0.648076 -0.017137
C46   C     C_R   0.759668 0.469480 0.533653 0.012263
C47   C     C_R   0.654214 0.094348 0.355071 0.032834
C48   C     C_R   0.240267 0.969541 0.466305 0.012280
C49   C     C_R   0.446625 0.559067 0.619376 0.016150
C50   C     C_R   0.655792 0.489956 0.577564 -0.036631
C51   C     C_R   0.553438 0.059046 0.380694 0.016162
C52   C     C_R   0.344200 0.989974 0.422439 -0.036792
C53   C     C_2   0.180031 0.428579 0.710351 0.193934
C54   C     C_2   0.929173 0.652160 0.565533 0.203710
C55   C     C_2   0.819987 0.928495 0.289744 0.193898
C56   C     C_R   0.640575 0.567121 0.584928 -0.008826
C57   C     C_2   0.070777 0.152268 0.433993 0.203714
C58   C     C_2   0.342444 0.674160 0.672222 0.318461
C59   C     C_2   0.775051 0.402904 0.454490 0.271813
C60   C     C_2   0.657691 0.174113 0.327867 0.318560
C61   C     C_2   0.224830 0.903008 0.545602 0.271530
C62   C     C_R   0.531853 0.983624 0.351971 -0.017049
C63   C     C_R   0.359454 0.067134 0.415040 -0.008826
C64   C     C_2   0.408847 0.923589 0.909437 -0.084483
Cr1   Cr    Cr6+3 0.187610 0.750000 0.979860 1.020765
Cr2   Cr    Cr6+3 0.812390 0.250000 0.020140 1.020772
Cr3   Cr    Cr6+3 0.245810 0.750000 0.341640 1.040706
Cr4   Cr    Cr6+3 0.754190 0.250000 0.658360 1.040622
Cr5   Cr    Cr6+3 0.485760 0.750000 0.219910 1.024708
Cr6   Cr    Cr6+3 0.514240 0.250000 0.780090 1.024752
H1    H     H_    0.169649 0.576057 0.668938 0.160075
H2    H     H_    0.602265 0.911746 0.994685 0.132517
H3    H     H_    0.534868 0.553311 0.165599 0.172560
H4    H     H_    0.397758 0.411712 0.005595 0.132526
H5    H     H_    0.721749 0.028568 0.059006 0.086947
H6    H     H_    0.333182 0.960782 0.857237 0.157569
H7    H     H_    0.278224 0.528565 0.941105 0.086927
H8    H     H_    0.666831 0.460913 0.142229 0.157526
H9    H     H_    0.004233 0.073219 0.097758 0.155462
H10   H     H_    0.104080 0.948838 0.954463 0.183606
H11   H     H_    0.995723 0.573229 0.902231 0.155490
H12   H     H_    0.925644 0.510026 0.502888 0.234974
H13   H     H_    0.895939 0.448837 0.045575 0.183520
H14   H     H_    0.023859 0.055030 0.802386 0.153828
H15   H     H_    0.000435 0.956239 0.195797 0.136657
H16   H     H_    0.976152 0.555032 0.197628 0.153833
H17   H     H_    0.999474 0.456257 0.804145 0.136708
H18   H     H_    0.203028 0.395864 0.806087 0.089564
H19   H     H_    0.932868 0.704622 0.617591 0.122839
H20   H     H_    0.796949 0.895735 0.194063 0.089563
H21   H     H_    0.067065 0.204685 0.381773 0.122803
H22   H     H_    0.254405 0.701498 0.651269 0.135727
H23   H     H_    0.830455 0.075971 0.331202 0.160062
H24   H     H_    0.770852 0.347591 0.484544 0.198806
H25   H     H_    0.745744 0.201431 0.348816 0.135907
H26   H     H_    0.229820 0.847670 0.516254 0.198496
H27   H     H_    0.074155 0.010165 0.496697 0.235062
H28   H     H_    0.407631 0.399556 0.765030 0.167305
H29   H     H_    0.723088 0.674750 0.614912 0.133258
H30   H     H_    0.592340 0.899552 0.234951 0.167281
H31   H     H_    0.276998 0.174780 0.384907 0.133266
H32   H     H_    0.465173 0.053288 0.834350 0.172486
O1    O     O_R   0.267710 0.668200 0.902110 -0.538436
O2    O     O_R   0.883280 0.330790 0.732340 -0.521729
O3    O     O_R   0.883280 0.169210 0.732340 -0.466474
O4    O     O_R   0.116720 0.830790 0.267660 -0.521212
O5    O     O_R   0.366710 0.675440 0.427590 -0.494612
O6    O     O_R   0.633290 0.324560 0.572410 -0.525109
O7    O     O_R   0.633290 0.175440 0.572410 -0.494603
O8    O     O_R   0.366710 0.824560 0.427590 -0.525215
O9    O     O_R   0.534870 0.669390 0.371760 -0.522947
O10   O     O_R   0.465130 0.330610 0.628240 -0.509382
O11   O     O_R   0.465130 0.169390 0.628240 -0.522915
O12   O     O_R   0.732290 0.331800 0.097890 -0.461923
O13   O     O_R   0.534870 0.830610 0.371760 -0.509413
O14   O     O_R   0.453080 0.674480 0.075160 -0.470581
O15   O     O_R   0.546920 0.325520 0.924840 -0.538270
O16   O     O_R   0.546920 0.174480 0.924840 -0.470544
O17   O     O_R   0.453080 0.825520 0.075160 -0.538142
O18   O     O_3   0.306390 0.750000 0.180470 -0.309870
O19   O     O_3   0.693610 0.250000 0.819530 -0.309914
O20   O     O_2   0.080870 0.419486 0.615337 -0.499354
O21   O     O_2   0.995353 0.642156 0.496088 -0.527777
O22   O     O_2   0.919180 0.919430 0.384718 -0.498942
O23   O     O_R   0.732290 0.168200 0.097890 -0.538341
O24   O     O_2   0.004621 0.142350 0.503497 -0.527868
O25   O     O_2   0.437710 0.709619 0.721023 -0.500050
O26   O     O_2   0.811441 0.409661 0.355375 -0.527683
O27   O     O_2   0.562439 0.209589 0.279050 -0.499882
O28   O     O_2   0.187741 0.909791 0.644171 -0.527358
O29   O     O_R   0.267710 0.831800 0.902110 -0.462239
O30   O     O_R   0.099480 0.674460 0.038850 -0.530253
O31   O     O_R   0.900520 0.325540 0.961150 -0.499029
O32   O     O_R   0.900520 0.174460 0.961150 -0.530252
O33   O     O_R   0.099480 0.825540 0.038850 -0.499009
O34   O     O_R   0.116720 0.669210 0.267660 -0.466350

loop_
_geom_bond_atom_site_label_1
_geom_bond_atom_site_label_2
_ccdc_geom_bond_type
C44   C49   A    
C54   O21   D    
Cr5   O14   S    
C24   O12   A    
C40   H1    S    
C46   C59   S    
C42   H23   S    
C4    C8    D    
C1    O30   A    
C25   O16   A    
C21   O8    A    
C28   C56   A    
C61   H26   S    
C7    C8    S    
C20   C30   S    
C19   O10   A    
C24   O15   A    
C30   C51   A    
C38   C42   A    
C5    H2    S    
C3    C7    D    
C10   C15   D    
C20   O11   A    
Cr6   O15   S    
C23   O3    A    
C11   C16   D    
C31   H28   S    
C26   C64   S    
C18   O5    A    
C25   O23   A    
C36   C53   S    
C9    H15   S    
C47   C60   S    
Cr2   O32   S    
C15   H9    S    
C38   C55   S    
C11   H17   S    
C33   C62   A    
C13   H16   S    
C41   C46   A    
C59   H24   S    
C14   H10   S    
C2    C25   S    
C1    O34   A    
C19   C27   S    
Cr3   O18   S    
C40   C44   A    
C27   C50   A    
C21   O13   A    
Cr4   O7    S    
C19   O6    A    
C27   C45   A    
C22   O14   A    
C58   O25   D    
C30   C63   A    
C3    C24   S    
C2    C6    D    
C51   C62   A    
Cr1   O29   S    
C7    H4    S    
Cr6   O11   S    
C34   O4    A    
C43   H27   S    
C36   C40   A    
C18   C28   S    
C26   O17   A    
C29   C62   A    
C54   H19   S    
C44   C58   S    
C57   O24   D    
C16   C17   S    
C39   C43   A    
C59   O26   D    
C21   C29   S    
Cr5   O17   S    
C16   H13   S    
C50   C56   A    
C22   O1    A    
C5    C64   D    
Cr4   O19   S    
C35   C39   A    
C9    C14   D    
Cr2   O31   S    
C4    C22   S    
C28   C49   A    
Cr3   O8    S    
C45   C49   A    
C64   H6    S    
Cr2   O19   S    
C32   C37   A    
C18   O9    A    
Cr1   O33   S    
Cr6   O10   S    
C61   O28   D    
C57   H21   S    
C37   C54   S    
C12   O31   A    
C9    C34   S    
C1    C13   S    
Cr4   O3    S    
Cr1   O1    S    
Cr1   O30   S    
C43   C48   A    
C55   O22   D    
Cr5   O13   S    
Cr2   O12   S    
C23   O32   A    
C31   C36   A    
Cr4   O2    S    
C35   H31   S    
C52   C63   A    
C60   O27   D    
C47   C51   A    
C11   C12   S    
C32   H29   S    
Cr3   O4    S    
C12   O2    A    
C10   C23   S    
C55   H20   S    
C46   C50   A    
Cr5   O18   S    
C33   C38   A    
Cr2   O23   S    
C13   C17   D    
C53   O20   D    
C33   H30   S    
Cr3   O34   S    
C4    H7    S    
Cr5   O9    S    
Cr6   O19   S    
Cr3   O5    S    
C48   C61   S    
C5    C6    S    
C34   O33   A    
Cr6   O16   S    
C41   H12   S    
C10   H14   S    
C8    H3    S    
Cr1   O18   S    
C53   H18   S    
C17   H11   S    
C42   C47   A    
C6    H32   S    
C37   C41   A    
C2    H5    S    
C20   O7    A    
C60   H25   S    
C48   C52   A    
C31   C45   A    
C14   C15   S    
C35   C63   A    
Cr4   O6    S    
C3    H8    S    
C58   H22   S    
C32   C56   A    
C26   O29   A    
C29   C52   A    
C39   C57   S    
