data_mof_unit_6815.cif
_audit_creation_date              2012-12-10T19:54:21-0500
_audit_creation_method            fapswitch 2.2
_symmetry_space_group_name_H-M    P1
_symmetry_Int_Tables_number       1
_space_group_crystal_system       triclinic
_cell_length_a                    15.721882
_cell_length_b                    14.970749
_cell_length_c                    14.153656
_cell_angle_alpha                 89.983787
_cell_angle_beta                  89.869845
_cell_angle_gamma                 90.173371
_cell_volume                      3331.2986622

loop_
_atom_site_label
_atom_site_type_symbol
_atom_type_description
_atom_site_fract_x
_atom_site_fract_y
_atom_site_fract_z
_atom_type_partial_charge
C1    C     C_R   0.503795 0.327529 0.500098 0.951360
C2    C     C_R   0.499540 0.671854 0.499892 1.000986
C3    C     C_R   0.534748 0.184904 0.583883 0.370139
C4    C     C_R   0.446544 0.816356 0.446123 0.326867
C5    C     C_R   0.516242 0.231661 0.499861 -0.317245
C6    C     C_R   0.504654 0.766893 0.499031 -0.274055
C7    C     C_R   0.512567 0.186419 0.413613 -0.369120
C8    C     C_R   0.572014 0.807232 0.546208 -0.403115
C9    C     C_R   0.522593 0.095004 0.410322 0.486383
C10   C     C_R   0.584169 0.898364 0.539437 0.522062
C11   C     C_R   0.527162 0.046995 0.495907 -0.171264
C12   C     C_R   0.521377 0.950307 0.494007 -0.159222
C13   C     C_R   0.432333 0.463518 0.105037 -0.273441
C14   C     C_R   0.521990 0.576180 0.895324 -0.283025
C15   C     C_R   0.433402 0.463742 0.204290 -0.036739
C16   C     C_R   0.522217 0.575133 0.796051 -0.029697
C17   C     C_R   0.566965 0.536452 0.204739 -0.106300
C18   C     C_R   0.477598 0.424354 0.795206 -0.104956
C19   C     C_R   0.569951 0.535619 0.105087 0.432350
C20   C     C_R   0.479066 0.421188 0.894919 0.442360
C21   C     C_R   0.500956 0.499545 0.053376 0.038216
C22   C     C_R   0.500327 0.498869 0.946770 0.038425
C23   C     C_R   0.337788 0.500200 0.500063 0.920205
C24   C     C_R   0.662218 0.500001 0.499930 0.882289
C25   C     C_3   0.971649 0.510201 0.590225 -0.318425
C26   C     C_3   0.028382 0.492711 0.409866 -0.319842
C27   C     C_3   0.027585 0.434248 0.551460 0.648168
C28   C     C_3   0.972452 0.568690 0.448608 0.648873
C29   C     C_1   0.248927 0.501135 0.500185 -0.173923
C30   C     C_1   0.751087 0.500143 0.499796 -0.185990
C31   C     C_3   0.027860 0.579780 0.537500 -0.320288
C32   C     C_3   0.972203 0.423156 0.462586 -0.327634
C33   C     C_3   0.082859 0.502493 0.499728 0.053113
C34   C     C_3   0.917166 0.500434 0.500328 0.053405
C35   C     C_1   0.173667 0.501922 0.500081 0.011943
C36   C     C_1   0.826354 0.500313 0.499925 0.005161
C37   C     C_R   0.532139 0.092159 0.583423 0.392217
C38   C     C_R   0.450607 0.909191 0.449534 0.399050
H1    H     H_    0.619001 0.565718 0.243992 0.160530
H2    H     H_    0.458823 0.365580 0.756051 0.189796
H3    H     H_    0.946394 0.516063 0.663262 0.160658
H4    H     H_    0.053603 0.486835 0.336815 0.158885
H5    H     H_    0.947373 0.359487 0.433230 0.155297
H6    H     H_    0.052711 0.643445 0.566847 0.160597
H7    H     H_    0.502053 0.221762 0.347859 0.216705
H8    H     H_    0.617697 0.767265 0.584806 0.193593
H9    H     H_    0.377517 0.436157 0.068934 0.196670
H10   H     H_    0.537959 0.637594 0.931639 0.195796
H11   H     H_    0.380391 0.435342 0.242871 0.149736
H12   H     H_    0.539780 0.634990 0.757884 0.154073
N1    N     N_R   0.500000 0.499980 0.252470 -0.117882
N2    N     N_R   0.500000 0.500020 0.747530 -0.119995
O1    O     O_R   0.500010 0.369070 0.579480 -0.598572
O2    O     O_R   0.499990 0.630930 0.420520 -0.613762
O3    O     O_R   0.500010 0.369060 0.420520 -0.623687
O4    O     O_R   0.499990 0.630940 0.579480 -0.634367
O5    O     O_R   0.376780 0.500000 0.579460 -0.600950
O6    O     O_R   0.623220 0.500000 0.420540 -0.621196
O7    O     O_R   0.376780 0.499990 0.420510 -0.635946
O8    O     O_R   0.623220 0.500010 0.579490 -0.626193
Zn1   Zn    Zn3+2 0.500000 0.500010 0.606140 0.952782
Zn2   Zn    Zn3+2 0.500000 0.499990 0.393860 0.937665
O9    O     O_3   0.064082 0.364869 0.605112 -0.598220
C39   C     C_3   0.998903 0.310548 0.642437 -0.322244
H13   H     H_    0.962536 0.276902 0.585256 0.155234
H14   H     H_    0.955437 0.349276 0.688965 0.164027
H15   H     H_    0.028282 0.257584 0.686273 0.201530
O10   O     O_3   0.936261 0.638043 0.394657 -0.601441
C40   C     C_3   0.001651 0.692921 0.358640 -0.332266
H16   H     H_    0.047583 0.654302 0.315010 0.159130
H17   H     H_    0.035254 0.728629 0.416509 0.164086
H18   H     H_    0.972831 0.744098 0.312084 0.193062
O11   O     O_3   0.639228 0.572601 0.059218 -0.616745
C41   C     C_3   0.702455 0.506537 0.050797 -0.312032
H19   H     H_    0.679656 0.448910 0.008004 0.150934
H20   H     H_    0.724584 0.483460 0.121348 0.161134
H21   H     H_    0.758026 0.535887 0.013511 0.198513
O12   O     O_3   0.456544 0.343223 0.941036 -0.609887
C42   C     C_3   0.526928 0.285128 0.940213 -0.338052
H22   H     H_    0.582734 0.315594 0.976351 0.151456
H23   H     H_    0.544149 0.265010 0.867026 0.181061
H24   H     H_    0.509588 0.223538 0.979462 0.200196
O13   O     O_3   0.544924 0.047342 0.668029 -0.589085
C43   C     C_3   0.467088 0.015362 0.705470 0.106737
H25   H     H_    0.483031 0.963664 0.758835 0.173733
H26   H     H_    0.427290 0.981011 0.651910 0.101232
C44   C     C_3   0.417020 0.089873 0.754806 -0.336292
H27   H     H_    0.459348 0.125682 0.804989 0.253552
H28   H     H_    0.393552 0.138316 0.701483 0.223548
C45   C     C_3   0.340925 0.052324 0.808981 -0.960285
H29   H     H_    0.297908 0.015578 0.760412 0.260964
H30   H     H_    0.304964 0.107939 0.841985 0.281195
H31   H     H_    0.362663 0.006404 0.865601 0.264460
O14   O     O_3   0.390094 0.957847 0.400374 -0.600104
C46   C     C_3   0.328778 0.994303 0.462548 0.110362
H32   H     H_    0.294176 0.046723 0.422680 0.176466
H33   H     H_    0.357806 0.028887 0.523859 0.103788
C47   C     C_3   0.264172 0.923622 0.495183 -0.350485
H34   H     H_    0.238822 0.887331 0.432738 0.251488
H35   H     H_    0.295822 0.874798 0.542527 0.221321
C48   C     C_3   0.190334 0.966200 0.548661 -0.977060
H36   H     H_    0.214178 0.003345 0.611154 0.267156
H37   H     H_    0.145759 0.913315 0.573105 0.268954
H38   H     H_    0.155218 0.012814 0.501878 0.269006
O15   O     O_3   0.549634 0.228403 0.668663 -0.640295
C49   C     C_3   0.634232 0.261390 0.670571 0.115472
H39   H     H_    0.634891 0.321367 0.716793 0.163567
H40   H     H_    0.657903 0.283997 0.600039 0.112040
C50   C     C_3   0.694748 0.191830 0.712226 -0.321765
H41   H     H_    0.670943 0.170202 0.782640 0.235241
H42   H     H_    0.697434 0.132601 0.665127 0.245169
C51   C     C_3   0.784409 0.229776 0.722594 -1.030104
H43   H     H_    0.809371 0.251091 0.652631 0.260565
H44   H     H_    0.827140 0.177762 0.751794 0.275650
H45   H     H_    0.784230 0.287924 0.771335 0.267250
O16   O     O_3   0.381120 0.773474 0.398774 -0.645281
C52   C     C_3   0.399734 0.772535 0.301021 0.140627
H46   H     H_    0.467647 0.755246 0.286920 0.134989
H47   H     H_    0.385740 0.838960 0.269714 0.180190
C53   C     C_3   0.343790 0.702575 0.252852 -0.335491
H48   H     H_    0.355701 0.636117 0.285082 0.252704
H49   H     H_    0.275711 0.719659 0.263771 0.216114
C54   C     C_3   0.362324 0.697579 0.147077 -0.972138
H50   H     H_    0.348599 0.762726 0.112857 0.265286
H51   H     H_    0.321590 0.645424 0.114353 0.270387
H52   H     H_    0.430010 0.679993 0.134622 0.270149
O17   O     O_3   0.517371 0.053266 0.323222 -0.566903
C55   C     C_3   0.599371 0.026717 0.293714 0.100311
H53   H     H_    0.618362 0.964445 0.330737 0.128432
H54   H     H_    0.647985 0.079674 0.307273 0.073836
C56   C     C_3   0.598924 0.008551 0.187412 -0.334504
H55   H     H_    0.578337 0.069646 0.149208 0.215847
H56   H     H_    0.664624 0.992183 0.164130 0.169744
C57   C     C_3   0.540093 0.930963 0.161710 -0.790539
H57   H     H_    0.559552 0.869372 0.199601 0.231365
H58   H     H_    0.543722 0.918281 0.084523 0.232260
H59   H     H_    0.473264 0.947306 0.180176 0.284847
O18   O     O_3   0.653205 0.935389 0.586245 -0.593246
C58   C     C_3   0.716542 0.963107 0.521309 0.074077
H60   H     H_    0.763189 0.004206 0.561162 0.169345
H61   H     H_    0.690868 0.007504 0.465623 0.098642
C59   C     C_3   0.763933 0.883430 0.477812 -0.369102
H62   H     H_    0.788703 0.839980 0.535122 0.242082
H63   H     H_    0.719803 0.843414 0.433434 0.212826
C60   C     C_3   0.837853 0.914720 0.416030 -0.943265
H64   H     H_    0.814164 0.957490 0.357626 0.251292
H65   H     H_    0.870362 0.855865 0.385074 0.281241
H66   H     H_    0.884578 0.953018 0.458770 0.261432

loop_
_geom_bond_atom_site_label_1
_geom_bond_atom_site_label_2
_ccdc_geom_bond_type
O6    Zn2   S    
C43   H26   S    
C44   H27   S    
C26   C32   S    
C48   H36   S    
O11   C41   S    
C46   H32   S    
C43   C44   S    
C56   C57   S    
C55   H53   S    
C17   N1    A    
C57   H59   S    
C51   H44   S    
C60   H64   S    
C46   C47   S    
C18   N2    A    
C54   H50   S    
C3    O15   S    
C23   O7    A    
C9    O17   S    
C41   H20   S    
C1    C5    S    
C23   C29   S    
C13   H9    S    
C19   C21   A    
C16   H12   S    
N2    Zn1   S    
C50   H42   S    
C58   C59   S    
C54   H51   S    
C49   H39   S    
O3    Zn2   S    
O16   C52   S    
C11   C37   A    
C17   H1    S    
C40   H17   S    
C1    O1    A    
C18   H2    S    
C33   C35   S    
O1    Zn1   S    
O10   C40   S    
C41   H21   S    
C31   C33   S    
C15   N1    A    
C18   C20   A    
C53   C54   S    
C25   C34   S    
C28   C34   S    
C24   O6    A    
C48   H37   S    
C21   C22   S    
C59   C60   S    
C2    C6    S    
N1    Zn2   S    
C10   C12   A    
C51   H43   S    
C60   H65   S    
C53   H49   S    
C8    H8    S    
C31   H6    S    
C39   H15   S    
C19   O11   S    
C43   H25   S    
C4    C6    A    
C2    O2    A    
C52   C53   S    
C25   H3    S    
C5    C7    A    
O12   C42   S    
C54   H52   S    
C57   H58   S    
O2    Zn2   S    
C3    C5    A    
C27   C33   S    
O9    C39   S    
O8    Zn1   S    
C39   H14   S    
C40   H18   S    
C26   C33   S    
C45   H30   S    
O13   C43   S    
C24   O8    A    
C38   O14   S    
C13   C21   A    
C9    C11   A    
C27   O9    S    
C23   O5    A    
C40   H16   S    
C4    C38   A    
C48   H38   S    
C47   H35   S    
C13   C15   A    
C14   C16   A    
C50   C51   S    
O17   C55   S    
C55   C56   S    
C7    H7    S    
C59   H63   S    
C60   H66   S    
C26   H4    S    
C45   H31   S    
C42   H23   S    
C7    C9    A    
O7    Zn2   S    
C28   O10   S    
C27   C32   S    
O4    Zn1   S    
C25   C31   S    
C4    O16   S    
C28   C31   S    
C16   N2    A    
C20   C22   A    
C56   H56   S    
C55   H54   S    
C42   H24   S    
C6    C8    A    
C58   H60   S    
C46   H33   S    
O5    Zn1   S    
C57   H57   S    
C30   C36   T    
C25   C27   S    
C47   C48   S    
O15   C49   S    
C29   C35   T    
C26   C28   S    
C20   O12   S    
C39   H13   S    
C14   C22   A    
C52   H47   S    
C1    O3    A    
C2    O4    A    
C52   H46   S    
C58   H61   S    
C45   H29   S    
C49   H40   S    
C17   C19   A    
C32   H5    S    
C34   C36   S    
C15   H11   S    
C12   C38   A    
O14   C46   S    
C24   C30   S    
O18   C58   S    
C42   H22   S    
C41   H19   S    
C3    C37   A    
C8    C10   A    
C47   H34   S    
C44   C45   S    
C59   H62   S    
C44   H28   S    
C14   H10   S    
C53   H48   S    
C37   O13   S    
C10   O18   S    
C50   H41   S    
C51   H45   S    
C56   H55   S    
C11   C12   S    
C32   C34   S    
C49   C50   S    
