data_mof_unit_49264.cif
_audit_creation_date              2012-12-10T17:11:48-0500
_audit_creation_method            fapswitch 2.2
_symmetry_space_group_name_H-M    P1
_symmetry_Int_Tables_number       1
_space_group_crystal_system       triclinic
_cell_length_a                    19.213273
_cell_length_b                    10.718324
_cell_length_c                    9.999927
_cell_angle_alpha                 89.580843
_cell_angle_beta                  90.41387
_cell_angle_gamma                 90.053169
_cell_volume                      2059.21619955

loop_
_atom_site_label
_atom_site_type_symbol
_atom_type_description
_atom_site_fract_x
_atom_site_fract_y
_atom_site_fract_z
_atom_type_partial_charge
C1    C     C_R   0.496111 0.262615 0.500293 0.997706
C2    C     C_R   0.289021 0.502046 0.501632 -0.294788
C3    C     C_R   0.929798 0.469187 0.539335 0.375231
C4    C     C_R   0.069923 0.464941 0.533542 0.348375
C5    C     C_R   0.816742 0.546832 0.630477 0.415460
C6    C     C_R   0.744788 0.564222 0.613771 0.321516
C7    C     C_R   0.710158 0.507884 0.504246 -0.372552
C8    C     C_R   0.748216 0.448378 0.404508 0.618490
C9    C     C_R   0.819632 0.437520 0.417250 -0.332681
C10   C     C_R   0.854147 0.482899 0.530881 -0.179325
C11   C     C_2   0.467923 0.932262 0.397187 0.567320
C12   C     C_R   0.365260 0.502095 0.499594 0.910334
C13   C     C_2   0.499593 0.869618 0.496698 -0.551389
C14   C     C_2   0.472625 0.066660 0.390672 0.620396
C15   C     C_2   0.483193 0.131741 0.502691 -0.586359
C16   C     C_2   0.490710 0.598406 0.925401 0.077061
C17   C     C_2   0.477730 0.590968 0.072744 0.071066
C18   C     C_R   0.499141 0.737479 0.499314 0.958770
C19   C     C_R   0.634424 0.502239 0.500622 0.926210
C20   C     C_R   0.256716 0.499228 0.626949 -0.328762
C21   C     C_R   0.185522 0.484388 0.637378 0.473626
C22   C     C_R   0.144878 0.474713 0.520813 -0.234760
C23   C     C_R   0.175679 0.484010 0.393231 0.357807
C24   C     C_R   0.247986 0.499629 0.383492 0.399315
H1    H     H_    0.286736 0.505471 0.718765 0.216698
H2    H     H_    0.528637 0.914323 0.576362 0.121063
H3    H     H_    0.480066 0.088972 0.601158 0.149890
H4    H     H_    0.488978 0.689582 0.877937 0.057883
H5    H     H_    0.449283 0.666498 0.118632 0.100398
H6    H     H_    0.847788 0.390957 0.338560 0.215144
N1    N     N_R   0.032629 0.386020 0.455842 -0.129952
N2    N     N_R   0.963554 0.388130 0.458801 -0.187188
N3    N     N_R   0.967556 0.545935 0.618384 -0.147857
N4    N     N_R   0.036409 0.543895 0.615820 -0.152909
N5    N     N_2   0.500750 0.501330 0.852150 0.196916
N6    N     N_2   0.500770 0.501360 0.147810 0.206172
O1    O     O_R   0.499990 0.319060 0.613040 -0.576236
O2    O     O_R   0.500010 0.319100 0.386900 -0.506150
O3    O     O_R   0.398130 0.499970 0.613110 -0.629858
O4    O     O_R   0.398150 0.500010 0.386970 -0.605203
O5    O     O_R   0.499990 0.680900 0.613100 -0.664629
O6    O     O_R   0.500010 0.680940 0.386960 -0.598512
O7    O     O_R   0.601850 0.499990 0.613030 -0.573985
O8    O     O_R   0.601870 0.500030 0.386890 -0.540331
Zn1   Zn    Zn3+2 0.499990 0.499970 0.650990 1.073623
Zn2   Zn    Zn3+2 0.500010 0.500030 0.349010 1.148854
F1    F     F_    0.467055 0.122387 0.268259 -0.558559
F2    F     F_    0.480038 0.392147 0.904242 -0.483183
F3    F     F_    0.553158 0.434166 0.098124 -0.438902
O9    O     O_3   0.155733 0.481611 0.763016 -0.602737
C25   C     C_3   0.150783 0.356813 0.809670 0.059073
H7    H     H_    0.162267 0.284314 0.733091 0.134314
H8    H     H_    0.096471 0.340364 0.842817 0.178759
C26   C     C_3   0.199132 0.337731 0.929454 -0.732040
H9    H     H_    0.185755 0.404007 0.010025 0.292783
H10   H     H_    0.193557 0.241075 0.968641 0.223599
H11   H     H_    0.254039 0.352877 0.899562 0.256520
O10   O     O_3   0.136551 0.466867 0.277715 -0.567393
C27   C     C_3   0.102557 0.579322 0.241576 0.094908
H12   H     H_    0.139636 0.644381 0.193277 0.147212
H13   H     H_    0.078597 0.627088 0.328421 0.127099
C28   C     C_3   0.045039 0.551119 0.140817 -0.758071
H14   H     H_    0.006306 0.486586 0.185678 0.266257
H15   H     H_    0.018340 0.638962 0.111018 0.202958
H16   H     H_    0.067289 0.507557 0.050256 0.266123
O11   O     O_3   0.277634 0.504877 0.257812 -0.558706
C29   C     C_3   0.288227 0.631189 0.220223 0.135225
H17   H     H_    0.339452 0.664234 0.257619 0.195433
H18   H     H_    0.247988 0.695847 0.259644 0.095149
C30   C     C_3   0.287877 0.641560 0.068304 -0.798549
H19   H     H_    0.235510 0.618268 0.028077 0.262590
H20   H     H_    0.301303 0.738310 0.037465 0.223165
H21   H     H_    0.326513 0.576373 0.025439 0.258257
O12   O     O_3   0.848435 0.574114 0.752049 -0.556059
C31   C     C_3   0.860063 0.703913 0.763183 0.150362
H22   H     H_    0.811948 0.751391 0.795443 0.178321
H23   H     H_    0.878645 0.746541 0.667754 0.110209
C32   C     C_3   0.914782 0.726968 0.871146 -0.788029
H24   H     H_    0.964761 0.682087 0.844431 0.272183
H25   H     H_    0.923574 0.828806 0.882150 0.203933
H26   H     H_    0.896850 0.688170 0.968291 0.261900
O13   O     O_3   0.708202 0.627242 0.711197 -0.543953
C33   C     C_3   0.688041 0.745548 0.660177 0.075741
H27   H     H_    0.649465 0.736743 0.577521 0.130153
H28   H     H_    0.733616 0.799064 0.622058 0.101788
C34   C     C_3   0.654516 0.820238 0.771197 -0.724312
H29   H     H_    0.691868 0.832645 0.855305 0.251710
H30   H     H_    0.638839 0.913511 0.732523 0.205566
H31   H     H_    0.607646 0.770729 0.808356 0.257356
F4    F     F_    0.716178 0.395456 0.297483 -0.588131
F5    F     F_    0.433742 0.872431 0.296484 -0.651919

loop_
_geom_bond_atom_site_label_1
_geom_bond_atom_site_label_2
_ccdc_geom_bond_type
C16   H4    S    
C23   O10   S    
C6    O13   S    
C17   H5    S    
C2    C12   S    
C7    C8    A    
O4    Zn2   S    
C13   C18   S    
C18   O6    A    
C16   N5    D    
C5    C6    A    
C11   C14   S    
C32   H25   S    
C20   H1    S    
C3    N3    A    
C4    C22   S    
O6    Zn2   S    
C5    O12   S    
C28   H15   S    
C33   H27   S    
C19   O7    A    
C8    C9    A    
C23   C24   A    
N6    Zn2   S    
C30   H19   S    
C1    C15   S    
C17   N6    D    
C9    C10   A    
C24   O11   S    
O3    Zn1   S    
O11   C29   S    
C27   H12   S    
C21   C22   A    
N5    F2    S    
C21   O9    S    
O8    Zn2   S    
O9    C25   S    
C4    N4    A    
C26   H10   S    
C27   H13   S    
O12   C31   S    
C2    C20   A    
C25   H7    S    
C18   O5    A    
C34   H29   S    
C16   C17   S    
O10   C27   S    
C29   H17   S    
C25   H8    S    
C12   O4    A    
C31   H22   S    
C28   H14   S    
C31   H23   S    
C15   H3    S    
N1    N2    A    
C14   C15   D    
C30   H21   S    
N3    N4    A    
O7    Zn1   S    
C14   F1    S    
C1    O2    A    
C9    H6    S    
C33   H28   S    
C7    C19   S    
C2    C24   A    
C13   H2    S    
C8    F4    S    
O1    Zn1   S    
N5    Zn1   S    
C19   O8    A    
C26   H9    S    
C27   C28   S    
C28   H16   S    
C32   H24   S    
C34   H31   S    
C6    C7    A    
C1    O1    A    
C29   C30   S    
C25   C26   S    
C12   O3    A    
C5    C10   A    
C3    C10   S    
C11   C13   D    
C32   H26   S    
C34   H30   S    
C3    N2    A    
C31   C32   S    
O2    Zn2   S    
C4    N1    A    
C11   F5    S    
C33   C34   S    
C20   C21   A    
O13   C33   S    
O5    Zn1   S    
C22   C23   A    
C30   H20   S    
C29   H18   S    
N6    F3    S    
C26   H11   S    
