data_mof_unit_13878.cif
_audit_creation_date              2012-12-10T16:49:28-0500
_audit_creation_method            fapswitch 2.2
_symmetry_space_group_name_H-M    P1
_symmetry_Int_Tables_number       1
_space_group_crystal_system       triclinic
_cell_length_a                    7.749327
_cell_length_b                    8.579926
_cell_length_c                    12.857701
_cell_angle_alpha                 90.242488
_cell_angle_beta                  87.571699
_cell_angle_gamma                 93.533175
_cell_volume                      852.498964681

loop_
_atom_site_label
_atom_site_type_symbol
_atom_type_description
_atom_site_fract_x
_atom_site_fract_y
_atom_site_fract_z
_atom_type_partial_charge
C1    C     C_R   0.454683 0.205235 0.497293 0.957688
C2    C     C_R   0.719014 0.532096 0.138660 0.609143
C3    C     C_R   0.590732 0.534678 0.868285 -0.285517
C4    C     C_R   0.409268 0.465322 0.131715 -0.285517
C5    C     C_R   0.580781 0.520302 0.974755 0.082196
C6    C     C_R   0.419219 0.479698 0.025245 0.082196
C7    C     C_2   0.430792 0.041811 0.495742 -0.359472
C8    C     C_2   0.569208 0.958189 0.504258 -0.359472
C9    C     C_R   0.545317 0.794765 0.502707 0.957688
C10   C     C_R   0.465212 0.503785 0.699891 0.919689
C11   C     C_R   0.534788 0.496215 0.300109 0.919689
C12   C     C_R   0.557263 0.494933 0.188708 -0.191481
C13   C     C_R   0.442737 0.505067 0.811292 -0.191481
C14   C     C_R   0.269681 0.455400 0.968761 -0.250981
C15   C     C_R   0.730319 0.544600 0.031239 -0.250980
C16   C     C_R   0.280986 0.467904 0.861340 0.609143
F1    F     F_    0.863836 0.561713 0.193100 -0.673885
F2    F     F_    0.136164 0.438286 0.806900 -0.673885
H1    H     H_    0.284780 0.433857 0.170312 0.211647
H2    H     H_    0.715220 0.566143 0.829688 0.211647
H3    H     H_    0.145285 0.424840 0.007511 0.180009
H4    H     H_    0.854715 0.575159 0.992489 0.180009
H5    H     H_    0.998629 0.615371 0.421893 0.224794
H6    H     H_    0.001371 0.384628 0.578107 0.224794
H7    H     H_    0.300010 0.990822 0.487612 0.185090
H8    H     H_    0.699990 0.009178 0.512388 0.185090
N1    N     N_2   0.054030 0.541640 0.471970 -0.162566
N2    N     N_2   0.945970 0.458360 0.528030 -0.162567
O1    O     O_R   0.609680 0.261530 0.506880 -0.616962
O2    O     O_R   0.390320 0.738470 0.493120 -0.616962
O3    O     O_R   0.323330 0.288220 0.488910 -0.630524
O4    O     O_R   0.676670 0.711780 0.511090 -0.630524
O5    O     O_R   0.619510 0.488830 0.661140 -0.621474
O6    O     O_R   0.380490 0.511170 0.338860 -0.621474
O7    O     O_R   0.333160 0.515520 0.643180 -0.571445
O8    O     O_R   0.666840 0.484480 0.356820 -0.571445
Zn1   Zn    Zn3+2 0.691200 0.482180 0.511990 0.994051
Zn2   Zn    Zn3+2 0.308800 0.517820 0.488010 0.994051

loop_
_geom_bond_atom_site_label_1
_geom_bond_atom_site_label_2
_ccdc_geom_bond_type
C11   C12   S    
C10   O7    A    
H5    N1    S    
C4    C12   A    
C8    H8    S    
C7    H7    S    
O3    Zn2   S    
C1    O3    A    
C2    C12   A    
C1    O1    A    
C3    H2    S    
C1    C7    S    
O4    Zn1   S    
C2    F1    S    
C2    C15   A    
N2    Zn1   S    
C9    O2    A    
C14   H3    S    
C4    C6    A    
C11   O8    A    
C10   O5    A    
C11   O6    A    
C5    C6    A    
C14   C16   A    
C5    C15   A    
C6    C14   A    
N1    Zn2   S    
C7    C8    D    
O7    Zn2   S    
O2    Zn2   S    
C16   F2    S    
C13   C16   A    
O1    Zn1   S    
N1    N2    D    
O8    Zn1   S    
C9    O4    A    
O6    Zn2   S    
C4    H1    S    
C15   H4    S    
O5    Zn1   S    
H6    N2    S    
C8    C9    S    
C3    C5    A    
C10   C13   S    
C3    C13   A    
