data_mof_unit_9924.cif
_audit_creation_date              2012-12-11T15:52:22-0500
_audit_creation_method            fapswitch 2.2
_symmetry_space_group_name_H-M    P1
_symmetry_Int_Tables_number       1
_space_group_crystal_system       triclinic
_cell_length_a                    11.056892
_cell_length_b                    10.977787
_cell_length_c                    18.776836
_cell_angle_alpha                 90.010387
_cell_angle_beta                  89.76109
_cell_angle_gamma                 119.932213
_cell_volume                      1975.11478874

loop_
_atom_site_label
_atom_site_type_symbol
_atom_type_description
_atom_site_fract_x
_atom_site_fract_y
_atom_site_fract_z
_atom_type_partial_charge
C1    C     C_R   0.523177 0.452495 0.145097 0.534429
C2    C     C_3   0.938863 0.704388 0.469378 -0.105572
C3    C     C_3   0.767724 0.117733 0.478860 -0.106681
C4    C     C_3   0.345079 0.200534 0.487492 -0.122794
C5    C     C_R   0.545063 0.421982 0.361245 0.572589
C6    C     C_R   0.542186 0.058304 0.352053 0.548898
C7    C     C_R   0.942202 0.483813 0.351976 0.542163
C8    C     C_R   0.455752 0.520582 0.645822 0.537350
C9    C     C_R   0.118799 0.574381 0.638225 0.538458
C10   C     C_R   0.454696 0.877279 0.638561 0.539496
C11   C     C_R   0.510547 0.020244 0.918323 -0.002340
C12   C     C_R   0.578387 0.124162 0.139961 0.540591
C13   C     C_R   0.998990 0.499287 0.922400 0.015199
C14   C     C_R   0.498676 0.497282 0.921009 -0.000121
C15   C     C_R   0.914915 0.469209 0.065996 0.002155
C16   C     C_R   0.556644 0.094542 0.063821 0.005667
C17   C     C_R   0.511481 0.471721 0.070084 -0.007761
C18   C     C_R   0.402918 0.009999 0.961734 0.011521
C19   C     C_R   0.079988 0.489688 0.976717 -0.000792
C20   C     C_R   0.583191 0.611330 0.964195 0.012041
C21   C     C_R   0.038934 0.476383 0.046800 0.020237
C22   C     C_R   0.425384 0.042891 0.033175 0.016980
C23   C     C_R   0.873227 0.453317 0.140048 0.537800
C24   C     C_R   0.591933 0.598609 0.035331 -0.004878
C25   C     C_R   0.669969 0.128242 0.017986 -0.170712
C26   C     C_R   0.837049 0.488639 0.013107 -0.170630
C27   C     C_R   0.429825 0.352161 0.027271 -0.166937
C28   C     C_R   0.879578 0.505809 0.941537 -0.157027
C29   C     C_R   0.647160 0.091636 0.945635 -0.159878
C30   C     C_R   0.427371 0.363992 0.953218 -0.172427
C31   C     C_3   0.257845 0.891948 0.975644 -0.105252
C32   C     C_3   0.142949 0.397743 0.988700 -0.109401
C33   C     C_3   0.672204 0.767803 0.965715 -0.103390
C34   C     C_R   0.458090 0.518983 0.851727 0.550136
C35   C     C_3   0.094455 0.382986 0.066261 -0.121150
C36   C     C_3   0.282421 0.929936 0.054807 -0.116769
C37   C     C_3   0.695945 0.750208 0.045399 -0.138963
C38   C     C_R   0.469919 0.926210 0.566246 -0.003103
C39   C     C_R   0.066603 0.536864 0.567041 -0.006645
C40   C     C_R   0.498728 0.500441 0.577058 0.004476
C41   C     C_R   0.999539 0.509803 0.422376 0.005667
C42   C     C_R   0.513617 0.005401 0.423250 0.014999
C43   C     C_R   0.529822 0.449817 0.434536 0.019373
C44   C     C_R   0.593822 0.042568 0.544498 0.022220
C45   C     C_R   0.060267 0.540860 0.852104 0.551748
C46   C     C_R   0.980249 0.583711 0.540219 0.021041
C47   C     C_R   0.463764 0.366541 0.554755 0.013087
C48   C     C_R   0.951862 0.574344 0.469907 0.023500
C49   C     C_R   0.616524 0.079067 0.474159 0.019239
C50   C     C_R   0.479165 0.340426 0.484451 0.001079
C51   C     C_R   0.384740 0.894187 0.444573 -0.187419
C52   C     C_R   0.076080 0.449682 0.448904 -0.183763
C53   C     C_R   0.569826 0.586591 0.457019 -0.170782
C54   C     C_R   0.111452 0.464646 0.521445 -0.186224
C55   C     C_R   0.362707 0.856127 0.516525 -0.190429
C56   C     C_R   0.480693 0.939216 0.852483 0.545451
C57   C     C_R   0.555228 0.612130 0.528105 -0.182850
C58   C     C_3   0.146452 0.917973 0.944001 -0.411488
C59   C     C_3   0.071515 0.257103 0.949387 -0.408782
C60   C     C_3   0.801781 0.824233 0.918593 -0.410355
C61   C     C_3   0.209407 0.450301 0.121792 -0.401636
C62   C     C_3   0.277127 0.812061 0.100595 -0.404277
C63   C     C_3   0.648694 0.825476 0.096734 -0.396712
C64   C     C_3   0.816186 0.204020 0.608010 -0.390045
C65   C     C_3   0.856904 0.699245 0.598341 -0.388852
C66   C     C_3   0.340439 0.137077 0.619700 -0.384863
C67   C     C_3   0.741353 0.079422 0.557496 -0.122649
C68   C     C_3   0.046791 0.828531 0.424452 -0.405305
C69   C     C_3   0.807766 0.021563 0.438072 -0.396976
C70   C     C_3   0.225986 0.187993 0.441032 -0.405215
C71   C     C_3   0.974432 0.716780 0.548843 -0.115353
C72   C     C_3   0.329408 0.232746 0.564589 -0.128223
Cr1   Cr    Cr6+3 0.769160 0.541570 0.250690 0.986200
Cr2   Cr    Cr6+3 0.458430 0.227590 0.250690 0.976188
Cr3   Cr    Cr6+3 0.772410 0.230840 0.250690 0.974095
Cr4   Cr    Cr6+3 0.541570 0.769160 0.749310 0.972796
Cr5   Cr    Cr6+3 0.227590 0.458430 0.749310 0.975689
Cr6   Cr    Cr6+3 0.230840 0.772410 0.749310 0.974175
H1    H     H_    0.774571 0.174823 0.038865 0.120745
H2    H     H_    0.010507 0.275818 0.081834 0.152198
H3    H     H_    0.219796 0.974764 0.077409 0.144962
H4    H     H_    0.801214 0.766120 0.057933 0.154295
H5    H     H_    0.304389 0.835715 0.405821 0.122239
H6    H     H_    0.108082 0.393348 0.413570 0.122146
H7    H     H_    0.608461 0.672532 0.419312 0.131774
H8    H     H_    0.177384 0.425373 0.541153 0.133188
H9    H     H_    0.265339 0.769401 0.532618 0.123371
H10   H     H_    0.580093 0.717043 0.543810 0.130338
H11   H     H_    0.752187 0.987460 0.573052 0.158210
H12   H     H_    0.741561 0.484804 0.026947 0.130121
H13   H     H_    0.076645 0.808411 0.563462 0.149169
H14   H     H_    0.238465 0.247927 0.574253 0.163535
H15   H     H_    0.830895 0.678269 0.457824 0.162855
H16   H     H_    0.837788 0.230602 0.468460 0.167085
H17   H     H_    0.362914 0.110967 0.481681 0.160572
H18   H     H_    0.171115 0.027647 0.953199 0.111120
H19   H     H_    0.137281 0.897670 0.885900 0.179192
H20   H     H_    0.046567 0.845582 0.970748 0.135744
H21   H     H_    0.956766 0.209238 0.951252 0.123393
H22   H     H_    0.105935 0.270248 0.893155 0.185976
H23   H     H_    0.366459 0.249421 0.050802 0.147284
H24   H     H_    0.099445 0.184324 0.975646 0.111395
H25   H     H_    0.841306 0.749403 0.916469 0.135874
H26   H     H_    0.776183 0.840002 0.863560 0.171334
H27   H     H_    0.883492 0.927467 0.939185 0.116294
H28   H     H_    0.305069 0.541734 0.100102 0.126792
H29   H     H_    0.172612 0.485309 0.168430 0.165080
H30   H     H_    0.233117 0.369386 0.140541 0.169374
H31   H     H_    0.324538 0.757705 0.072250 0.118257
H32   H     H_    0.331130 0.852653 0.151984 0.172220
H33   H     H_    0.166724 0.734722 0.112493 0.168822
H34   H     H_    0.818303 0.520843 0.901328 0.123138
H35   H     H_    0.547548 0.813927 0.080485 0.140526
H36   H     H_    0.638705 0.782729 0.151354 0.161026
H37   H     H_    0.729096 0.938373 0.097057 0.161847
H38   H     H_    0.928681 0.237221 0.608703 0.151906
H39   H     H_    0.802302 0.293364 0.591324 0.145889
H40   H     H_    0.774388 0.172680 0.662876 0.171157
H41   H     H_    0.825346 0.777692 0.584491 0.121959
H42   H     H_    0.766600 0.591305 0.594634 0.153591
H43   H     H_    0.893100 0.717711 0.654345 0.163456
H44   H     H_    0.327364 0.169275 0.673918 0.154325
H45   H     H_    0.734134 0.107449 0.912622 0.132981
H46   H     H_    0.256412 0.027291 0.610668 0.141553
H47   H     H_    0.443887 0.144171 0.616956 0.164223
H48   H     H_    0.140624 0.899308 0.455475 0.127344
H49   H     H_    0.081352 0.794441 0.376973 0.169178
H50   H     H_    0.999071 0.890641 0.405584 0.115798
H51   H     H_    0.886047 0.008509 0.468650 0.104721
H52   H     H_    0.715719 0.915991 0.429591 0.142271
H53   H     H_    0.855556 0.069033 0.385947 0.165988
H54   H     H_    0.225279 0.139197 0.389219 0.168903
H55   H     H_    0.124776 0.119416 0.467723 0.108096
H56   H     H_    0.360178 0.271323 0.922330 0.138556
H57   H     H_    0.236047 0.292228 0.432133 0.158684
H58   H     H_    0.244509 0.787622 0.961413 0.161123
H59   H     H_    0.257300 0.458863 0.981403 0.163209
H60   H     H_    0.609837 0.820071 0.956225 0.168920
O1    O     O_R   0.911480 0.572650 0.170990 -0.521543
O2    O     O_R   0.528970 0.640340 0.824320 -0.502163
O3    O     O_R   0.111370 0.471030 0.824320 -0.500299
O4    O     O_R   0.359660 0.888630 0.824320 -0.497599
O5    O     O_R   0.909980 0.572450 0.331530 -0.527771
O6    O     O_R   0.427550 0.337530 0.331530 -0.521132
O7    O     O_R   0.662470 0.090020 0.331530 -0.517864
O8    O     O_R   0.572450 0.909980 0.668470 -0.528824
O9    O     O_R   0.337530 0.427550 0.668470 -0.540146
O10   O     O_R   0.090020 0.662470 0.668470 -0.531727
O11   O     O_R   0.638950 0.528780 0.324500 -0.506987
O12   O     O_R   0.427350 0.338830 0.170990 -0.540323
O13   O     O_R   0.471220 0.110170 0.324500 -0.515908
O14   O     O_R   0.889830 0.361050 0.324500 -0.503671
O15   O     O_R   0.528780 0.638950 0.675500 -0.522470
O16   O     O_R   0.110170 0.471220 0.675500 -0.508153
O17   O     O_R   0.361050 0.889830 0.675500 -0.521340
O18   O     O_3   0.666667 0.333333 0.250560 -0.294572
O19   O     O_3   0.333333 0.666667 0.749440 -0.270092
O20   O     O_R   0.661170 0.088520 0.170990 -0.536940
O21   O     O_R   0.572650 0.911480 0.829010 -0.532021
O22   O     O_R   0.338830 0.427350 0.829010 -0.535641
O23   O     O_R   0.088520 0.661170 0.829010 -0.529241
O24   O     O_R   0.640340 0.528970 0.175680 -0.511718
O25   O     O_R   0.471030 0.111370 0.175680 -0.507049
O26   O     O_R   0.888630 0.359660 0.175680 -0.521439

loop_
_geom_bond_atom_site_label_1
_geom_bond_atom_site_label_2
_ccdc_geom_bond_type
C44   C49   A    
C40   C47   A    
Cr4   O21   S    
C64   H38   S    
C68   H48   S    
C59   H21   S    
Cr4   O15   S    
C58   H20   S    
C9    C39   S    
C38   C55   A    
C4    C70   S    
C3    C49   S    
C5    O11   A    
C11   C18   A    
Cr3   O7    S    
C14   C34   S    
C31   C58   S    
C23   O1    A    
C3    C69   S    
C56   O21   A    
C2    C68   S    
Cr6   O4    S    
Cr2   O25   S    
C72   H14   S    
Cr6   O17   S    
C39   C54   A    
C65   H42   S    
C35   H2    S    
C67   H11   S    
C64   H40   S    
C52   H6    S    
C61   H30   S    
C45   O23   A    
C58   H18   S    
C63   H36   S    
Cr3   O18   S    
C43   C53   A    
C66   C72   S    
C62   H33   S    
C12   C16   S    
C69   H52   S    
C30   H56   S    
C70   H55   S    
C66   H44   S    
C13   C28   A    
C65   H43   S    
C60   H25   S    
Cr5   O9    S    
C41   C52   A    
Cr6   O10   S    
C42   C51   A    
C63   H37   S    
C15   C23   S    
C5    C43   S    
Cr4   O8    S    
C18   C22   A    
C27   C30   A    
C45   O3    A    
C59   H22   S    
C58   H19   S    
C14   C30   A    
C36   C62   S    
C19   C32   S    
C7    O5    A    
C37   C63   S    
C52   C54   A    
C47   C50   A    
Cr5   O3    S    
Cr4   O2    S    
C25   C29   A    
C46   C48   A    
Cr4   O19   S    
C17   C24   A    
Cr5   O22   S    
C13   C19   A    
C17   C27   A    
C32   C35   S    
C14   C20   A    
C54   H8    S    
C6    O7    A    
C53   C57   A    
C15   C26   A    
Cr1   O1    S    
C36   H3    S    
C2    C48   S    
C65   C71   S    
C27   H23   S    
C28   H34   S    
C64   H39   S    
C4    C50   S    
Cr3   O26   S    
C64   C67   S    
C38   C44   A    
Cr1   O24   S    
C8    O15   A    
Cr5   O16   S    
C4    H17   S    
Cr6   O19   S    
C62   H32   S    
C33   H60   S    
C69   H53   S    
C70   H54   S    
C24   C37   S    
C65   H41   S    
Cr2   O18   S    
C1    O12   A    
C35   C61   S    
C61   H28   S    
C68   H49   S    
C46   C71   S    
C10   O8    A    
C39   C46   A    
C20   C33   S    
C68   H50   S    
Cr3   O20   S    
C1    O24   A    
C33   C60   S    
C70   H57   S    
C66   H46   S    
Cr2   O13   S    
C8    O9    A    
C6    O13   A    
C2    C71   S    
C51   H5    S    
C4    C72   S    
C23   O26   A    
Cr1   O5    S    
C16   C25   A    
Cr2   O6    S    
C16   C22   A    
C40   C57   A    
Cr1   O11   S    
C25   H1    S    
C59   H24   S    
C26   C28   A    
C2    H15   S    
C3    C67   S    
C31   H58   S    
C5    O6    A    
C10   O17   A    
C9    O16   A    
C66   H47   S    
C43   C50   A    
C21   C35   S    
C26   H12   S    
Cr3   O14   S    
C22   C36   S    
C9    O10   A    
C1    C17   S    
C57   H10   S    
C10   C38   S    
C56   O4    A    
C32   H59   S    
C12   O25   A    
C13   C45   S    
C62   H31   S    
C29   H45   S    
Cr1   O18   S    
C34   O2    A    
C41   C48   A    
C3    H16   S    
C51   C55   A    
C7    C41   S    
C55   H9    S    
C37   H4    S    
C33   C37   S    
C47   C72   S    
C60   H27   S    
C42   C49   A    
C7    O14   A    
C63   H35   S    
C15   C21   A    
C71   H13   S    
C11   C29   A    
Cr6   O23   S    
C69   H51   S    
C6    C42   S    
C61   H29   S    
C31   C36   S    
Cr2   O12   S    
C44   C67   S    
C53   H7    S    
C18   C31   S    
C8    C40   S    
C32   C59   S    
C12   O20   A    
C60   H26   S    
C20   C24   A    
C11   C56   S    
Cr5   O19   S    
C19   C21   A    
C34   O22   A    
