data_mof_unit_7746.cif
_audit_creation_date              2012-12-10T20:38:15-0500
_audit_creation_method            fapswitch 2.2
_symmetry_space_group_name_H-M    P1
_symmetry_Int_Tables_number       1
_space_group_crystal_system       triclinic
_cell_length_a                    9.845653
_cell_length_b                    10.634916
_cell_length_c                    16.856206
_cell_angle_alpha                 90.891066
_cell_angle_beta                  85.985947
_cell_angle_gamma                 89.259879
_cell_volume                      1760.2583154

loop_
_atom_site_label
_atom_site_type_symbol
_atom_type_description
_atom_site_fract_x
_atom_site_fract_y
_atom_site_fract_z
_atom_type_partial_charge
C1    C     C_R   0.498987 0.739641 0.501731 0.838327
C2    C     C_R   0.518537 0.560235 0.265549 -0.218196
C3    C     C_R   0.398406 0.935155 0.466036 0.048588
C4    C     C_R   0.481997 0.498636 0.652662 0.928825
C5    C     C_R   0.495214 0.871327 0.506406 -0.030124
C6    C     C_R   0.587143 0.935819 0.551213 -0.209320
C7    C     C_R   0.590076 0.065550 0.548229 -0.140861
C8    C     C_R   0.501846 0.128081 0.499949 0.009096
C9    C     C_R   0.403402 0.062914 0.461277 -0.048316
C10   C     C_3   0.371276 0.059012 0.375237 0.309865
C11   C     C_3   0.362535 0.916999 0.382171 -0.476509
C12   C     C_R   0.383038 0.436936 0.786700 0.381383
C13   C     C_R   0.920153 0.544496 0.564557 0.143822
C14   C     C_R   0.935793 0.438433 0.442050 -0.010124
C15   C     C_R   0.080069 0.439293 0.441616 -0.123785
C16   C     C_R   0.501091 0.260112 0.498107 0.961440
C17   C     C_R   0.062256 0.546859 0.563879 0.236623
C18   C     C_3   0.058955 0.675916 0.601039 0.269816
C19   C     C_3   0.903792 0.671248 0.602547 -0.575429
C20   C     C_R   0.517293 0.514460 0.347744 1.008791
C21   C     C_R   0.472451 0.510336 0.738210 -0.152012
C22   C     C_R   0.554413 0.600510 0.771731 -0.264068
C23   C     C_R   0.377205 0.612964 0.156804 0.527145
C24   C     C_R   0.547768 0.619696 0.853071 -0.124150
C25   C     C_R   0.457747 0.549198 0.901783 0.117160
C26   C     C_R   0.376522 0.457895 0.868639 -0.258771
C27   C     C_3   0.107192 0.887818 0.587160 0.118214
C28   C     C_3   0.044511 0.984599 0.533685 -0.381400
C29   C     C_3   0.052173 0.117761 0.568149 -0.833854
C30   C     C_3   0.174933 0.513370 0.131738 0.097863
C31   C     C_3   0.076006 0.509162 0.065789 -0.304424
C32   C     C_3   0.990886 0.390254 0.069505 -0.870652
C33   C     C_R   0.390970 0.565500 0.232279 -0.351176
C34   C     C_R   0.633221 0.614424 0.223462 0.384578
C35   C     C_R   0.618896 0.658750 0.146832 -0.280168
C36   C     C_R   0.493658 0.654452 0.113256 0.040601
C37   C     C_2   0.452651 0.561108 0.987973 -0.169402
C38   C     C_2   0.492109 0.663108 0.027327 -0.128961
H1    H     H_    0.623136 0.657150 0.734644 0.158045
H2    H     H_    0.101846 0.675860 0.660547 0.070962
H3    H     H_    0.299984 0.533824 0.265253 0.191084
H4    H     H_    0.854608 0.667220 0.663770 0.158827
H5    H     H_    0.857504 0.740381 0.563301 0.241033
H6    H     H_    0.533633 0.745264 0.997639 0.154485
H7    H     H_    0.308996 0.402206 0.907056 0.174170
H8    H     H_    0.416218 0.479866 0.021181 0.156514
H9    H     H_    0.615316 0.687522 0.877157 0.137961
H10   H     H_    0.728120 0.079570 0.297409 0.391495
H11   H     H_    0.212779 0.915117 0.598221 0.172745
H12   H     H_    0.706962 0.691140 0.111132 0.198341
H13   H     H_    0.046917 0.890862 0.645900 0.125769
H14   H     H_    0.098643 0.981296 0.473752 0.233533
H15   H     H_    0.936105 0.961357 0.527046 0.230566
H16   H     H_    0.996316 0.124345 0.627680 0.279441
H17   H     H_    0.005108 0.185190 0.528186 0.247089
H18   H     H_    0.159937 0.144330 0.573521 0.302075
H19   H     H_    0.726653 0.779613 0.343865 0.360146
H20   H     H_    0.115267 0.514210 0.190215 0.210672
H21   H     H_    0.240850 0.427038 0.126196 0.122049
H22   H     H_    0.006954 0.592777 0.071369 0.264933
H23   H     H_    0.658177 0.886166 0.586182 0.141602
H24   H     H_    0.134301 0.512124 0.006981 0.213264
H25   H     H_    0.057821 0.305435 0.061822 0.268960
H26   H     H_    0.920016 0.390849 0.021081 0.265180
H27   H     H_    0.930100 0.385834 0.127363 0.301003
H28   H     H_    0.105126 0.434655 0.745602 0.331881
H29   H     H_    0.662058 0.116427 0.581947 0.157470
H30   H     H_    0.272361 0.105399 0.364932 0.079156
H31   H     H_    0.257634 0.881172 0.378599 0.199422
H32   H     H_    0.441741 0.862149 0.345545 0.222146
H33   H     H_    0.887563 0.388584 0.395605 0.188095
H34   H     H_    0.140908 0.392282 0.393816 0.149820
N1    N     N_R   0.857140 0.500860 0.500530 -0.089383
N2    N     N_R   0.142780 0.500820 0.500530 -0.092487
O1    O     O_R   0.385310 0.683210 0.499990 -0.585910
O2    O     O_2   0.514291 0.244777 0.303406 -0.337326
O3    O     O_3   0.657508 0.047358 0.336361 -0.568558
O4    O     O_3   0.112237 0.768122 0.548506 -0.587636
O5    O     O_2   0.856920 0.501490 0.269398 -0.327865
O6    O     O_2   0.888533 0.705551 0.207075 -0.301719
O7    O     O_3   0.781640 0.702640 0.351479 -0.498197
O8    O     O_3   0.251506 0.624801 0.124300 -0.612628
O9    O     O_2   0.369437 0.239065 0.686878 -0.311674
O10   O     O_2   0.231419 0.229836 0.812985 -0.294573
O11   O     O_3   0.151082 0.378313 0.704448 -0.553798
O12   O     O_R   0.614650 0.683240 0.500000 -0.608201
O13   O     O_R   0.371780 0.500000 0.615800 -0.575452
O14   O     O_R   0.601120 0.500040 0.615800 -0.633505
O15   O     O_R   0.385350 0.316760 0.500000 -0.610890
O16   O     O_R   0.614690 0.316790 0.500010 -0.628922
O17   O     O_R   0.398880 0.499960 0.384200 -0.638025
O18   O     O_R   0.628220 0.500000 0.384200 -0.534015
O19   O     O_2   0.486382 0.051623 0.225614 -0.271241
S1    S     S_3+6 0.509243 0.104045 0.306842 0.011369
S2    S     S_3+6 0.795397 0.630174 0.261863 0.023357
S3    S     S_3+6 0.283968 0.315257 0.747903 0.012094
Zn1   Zn    Zn3+2 0.346870 0.499980 0.499990 1.025455
Zn2   Zn    Zn3+2 0.653130 0.500020 0.500010 1.019361

loop_
_geom_bond_atom_site_label_1
_geom_bond_atom_site_label_2
_ccdc_geom_bond_type
C31   H22   S    
C16   O16   A    
O19   S1    D    
C23   O8    S    
C14   H33   S    
C35   C36   A    
C27   O4    S    
H28   O11   S    
C11   H32   S    
O18   Zn2   S    
C7    C8    A    
C4    O13   A    
C38   H6    S    
C15   H34   S    
C20   O18   A    
C1    C5    S    
C6    H23   S    
C28   C29   S    
C18   C19   S    
C30   C31   S    
O7    S2    S    
O11   S3    S    
C29   H16   S    
C10   S1    S    
O3    S1    S    
O1    Zn1   S    
C34   C35   A    
O10   S3    D    
C18   H2    S    
C26   H7    S    
C25   C37   S    
C27   H13   S    
C8    C9    A    
C23   C33   A    
C9    C10   S    
C19   H4    S    
O2    S1    D    
C2    C34   A    
C16   O15   A    
C8    C16   S    
C21   C22   A    
C31   H24   S    
C19   H5    S    
N2    Zn1   S    
N1    Zn2   S    
C20   O17   A    
C13   C19   S    
C2    C20   S    
C1    O1    A    
C14   N1    A    
C24   C25   A    
C32   H26   S    
C29   H17   S    
C25   C26   A    
C12   C21   A    
O17   Zn1   S    
O15   Zn1   S    
H10   O3    S    
C30   O8    S    
O5    S2    D    
C37   C38   D    
C3    C9    A    
C31   C32   S    
C18   O4    S    
C30   H21   S    
C35   H12   S    
C17   C18   S    
C34   S2    S    
O6    S2    D    
C2    C33   A    
C13   N1    A    
C17   N2    A    
H19   O7    S    
C1    O12   A    
C24   H9    S    
C32   H25   S    
C3    C5    A    
C28   H15   S    
C11   H31   S    
C6    C7    A    
C4    O14   A    
C29   H18   S    
C10   H30   S    
C13   C17   A    
C33   H3    S    
C36   C38   S    
C4    C21   S    
C28   H14   S    
C5    C6    A    
O9    S3    D    
C22   H1    S    
C30   H20   S    
C22   C24   A    
O12   Zn2   S    
C3    C11   S    
C10   C11   S    
C7    H29   S    
C15   N2    A    
C23   C36   A    
C12   C26   A    
C27   C28   S    
C14   C15   A    
C12   S3    S    
C37   H8    S    
O16   Zn2   S    
O14   Zn2   S    
C27   H11   S    
C32   H27   S    
O13   Zn1   S    
