data_mof_unit_13873.cif
_audit_creation_date              2012-10-26T20:37:34-0400
_audit_creation_method            fapswitch 2.2
_symmetry_space_group_name_H-M    P1
_symmetry_Int_Tables_number       1
_space_group_crystal_system       triclinic
_cell_length_a                    11.091562
_cell_length_b                    11.028604
_cell_length_c                    9.673144
_cell_angle_alpha                 88.844927
_cell_angle_beta                  102.97443
_cell_angle_gamma                 91.381922
_cell_volume                      1152.58632643

loop_
_atom_site_label
_atom_site_type_symbol
_atom_type_description
_atom_site_fract_x
_atom_site_fract_y
_atom_site_fract_z
_atom_type_partial_charge
C1    C     C_R   0.509850 0.266056 0.503967 0.557938
C2    C     C_2   0.128919 0.499049 0.408832 -0.159088
C3    C     C_2   0.068308 0.490635 0.513533 -0.136016
C4    C     C_2   0.873234 0.493172 0.590749 0.242914
C5    C     C_2   0.935963 0.516238 0.487785 0.250596
C6    C     C_2   0.510024 0.937875 0.392673 0.252669
C7    C     C_3   0.904884 0.688748 0.348763 -0.013037
C8    C     C_3   0.819483 0.762787 0.417036 -0.255467
C9    C     C_3   0.849946 0.897347 0.412376 -0.497973
C10   C     C_3   0.943192 0.539673 0.826582 -0.001607
C11   C     C_3   0.072597 0.598604 0.857220 -0.273534
C12   C     C_2   0.535790 0.862486 0.505869 -0.067667
C13   C     C_3   0.089347 0.687953 0.978552 -0.477561
C14   C     C_3   0.340005 0.949426 0.204577 0.011947
C15   C     C_3   0.236244 0.896086 0.270030 -0.261522
C16   C     C_3   0.112905 0.954693 0.204292 -0.499860
C17   C     C_3   0.598045 0.123680 0.281889 -0.264428
C18   C     C_3   0.721440 0.195067 0.329717 -0.294140
C19   C     C_3   0.759236 0.258523 0.204160 -0.421305
C20   C     C_3   0.606610 0.102783 0.758009 -0.002021
C21   C     C_3   0.739338 0.096213 0.732262 -0.288649
C22   C     C_3   0.837172 0.120422 0.867533 -0.468016
C23   C     C_2   0.548651 0.068451 0.405398 -0.035146
C24   C     C_2   0.526178 0.134395 0.514825 0.232614
C25   C     C_2   0.429344 0.427958 0.905502 -0.037347
C26   C     C_2   0.425966 0.431268 0.060388 -0.037769
C27   C     C_R   0.263071 0.497319 0.442281 0.543632
C28   C     C_R   0.505484 0.734110 0.499965 0.547756
C29   C     C_R   0.737485 0.499552 0.557710 0.546902
Cu1   Cu    Cu3+1 0.500020 0.500020 0.638640 0.918322
Cu2   Cu    Cu3+1 0.499980 0.499980 0.361360 0.941592
H1    H     H_    0.553413 0.563431 0.906331 0.208058
H2    H     H_    0.722196 0.746616 0.359649 0.208666
H3    H     H_    0.829415 0.735220 0.529921 0.130055
H4    H     H_    0.948148 0.915973 0.465296 0.148465
H5    H     H_    0.790449 0.945367 0.470272 0.138995
H6    H     H_    0.831633 0.930972 0.300753 0.148032
H7    H     H_    0.928086 0.494650 0.925310 0.163566
H8    H     H_    0.872376 0.611696 0.798341 0.123466
H9    H     H_    0.143498 0.527300 0.885597 0.176626
H10   H     H_    0.086829 0.648100 0.760767 0.154062
H11   H     H_    0.019270 0.760019 0.952290 0.136004
H12   H     H_    0.359013 0.372265 0.096044 0.132381
H13   H     H_    0.183027 0.730758 0.995770 0.163975
H14   H     H_    0.079823 0.640402 0.077919 0.145919
H15   H     H_    0.315520 0.932806 0.088651 0.147645
H16   H     H_    0.345885 0.049690 0.216164 0.117157
H17   H     H_    0.228092 0.796656 0.252739 0.175832
H18   H     H_    0.258370 0.911598 0.386229 0.168489
H19   H     H_    0.115976 0.051972 0.232656 0.155023
H20   H     H_    0.038059 0.908052 0.244869 0.137660
H21   H     H_    0.091366 0.947289 0.087014 0.142065
H22   H     H_    0.769010 0.190567 0.124876 0.125824
H23   H     H_    0.565490 0.551448 0.121703 0.216805
H24   H     H_    0.688800 0.325336 0.153929 0.181972
H25   H     H_    0.849378 0.306996 0.240767 0.169899
H26   H     H_    0.716290 0.264172 0.409139 0.188423
H27   H     H_    0.796245 0.133795 0.380668 0.143031
H28   H     H_    0.614823 0.050038 0.212023 0.164541
H29   H     H_    0.526935 0.180910 0.213543 0.160514
H30   H     H_    0.598935 0.034595 0.841870 0.145332
H31   H     H_    0.593123 0.191398 0.803917 0.173050
H32   H     H_    0.755156 0.005217 0.694121 0.139726
H33   H     H_    0.753492 0.165062 0.651798 0.156704
H34   H     H_    0.118154 0.469280 0.620899 0.164419
H35   H     H_    0.828904 0.214157 0.903742 0.168037
H36   H     H_    0.930784 0.111368 0.846105 0.156617
H37   H     H_    0.826963 0.053954 0.952178 0.130399
H38   H     H_    0.080472 0.514571 0.299444 0.129453
H39   H     H_    0.587045 0.892004 0.607929 0.108402
H40   H     H_    0.368542 0.362892 0.839767 0.142400
H41   H     H_    0.889546 0.715297 0.234833 0.141997
H42   H     H_    0.003651 0.711671 0.397088 0.121274
N1    N     N_2   0.498650 0.498660 0.846590 -0.351177
N2    N     N_2   0.498620 0.498630 0.152710 -0.341729
O1    O     O_R   0.500020 0.321960 0.617050 -0.486717
O2    O     O_3   0.934202 0.449007 0.722807 -0.620039
O3    O     O_3   0.453443 0.891364 0.260716 -0.562992
O4    O     O_3   0.508671 0.076081 0.637996 -0.603858
O5    O     O_R   0.499980 0.321920 0.382890 -0.532168
O6    O     O_R   0.320700 0.500020 0.574050 -0.490831
O7    O     O_R   0.320660 0.499980 0.339890 -0.492195
O8    O     O_R   0.500020 0.678080 0.617110 -0.509341
O9    O     O_R   0.499980 0.678040 0.382950 -0.449502
O10   O     O_R   0.679340 0.500020 0.660110 -0.510134
O11   O     O_R   0.679300 0.499980 0.425950 -0.475497
O12   O     O_3   0.876517 0.563202 0.356211 -0.579511

loop_
_geom_bond_atom_site_label_1
_geom_bond_atom_site_label_2
_ccdc_geom_bond_type
C19   H25   S    
C28   O9    A    
C16   H20   S    
Cu2   O5    S    
C14   H15   S    
C17   C23   S    
Cu2   O7    S    
C12   C28   S    
C16   H19   S    
C18   C19   S    
H1    N1    S    
Cu1   Cu2   S    
Cu1   N1    S    
C6    O3    S    
C15   C16   S    
Cu1   O8    S    
C25   N1    D    
C20   H30   S    
C22   H35   S    
C21   H33   S    
C24   O4    S    
C18   H27   S    
C7    O12   S    
C8    C9    S    
C9    H5    S    
C23   C24   D    
C2    C27   S    
C25   H40   S    
C2    H38   S    
C29   O10   A    
C4    C29   S    
C19   H22   S    
C14   O3    S    
Cu2   O11   S    
C21   C22   S    
C28   O8    A    
C3    H34   S    
C15   H17   S    
C6    C12   D    
C13   H11   S    
C10   O2    S    
C26   H12   S    
C26   N2    D    
C27   O6    A    
C7    H42   S    
C7    H41   S    
C25   C26   S    
Cu2   O9    S    
C10   H8    S    
Cu1   O1    S    
C18   H26   S    
Cu2   N2    S    
C9    H6    S    
C17   C18   S    
C8    H3    S    
Cu1   O10   S    
C22   H37   S    
C29   O11   A    
C17   H28   S    
C19   H24   S    
C12   H39   S    
C20   O4    S    
C1    O1    A    
C27   O7    A    
C16   H21   S    
C4    C5    D    
C3    C5    S    
C14   H16   S    
C10   H7    S    
Cu1   O6    S    
C2    C3    D    
C4    O2    S    
C13   H14   S    
C11   C13   S    
C6    C23   S    
C11   H10   S    
C8    H2    S    
C15   H18   S    
C20   H31   S    
C11   H9    S    
C22   H36   S    
C21   H32   S    
C7    C8    S    
C10   C11   S    
C17   H29   S    
H23   N2    S    
C5    O12   S    
C20   C21   S    
C1    C24   S    
C9    H4    S    
C1    O5    A    
C14   C15   S    
C13   H13   S    
