data_mof_unit_57884.cif
_audit_creation_date              2012-12-10T17:11:52-0500
_audit_creation_method            fapswitch 2.2
_symmetry_space_group_name_H-M    P1
_symmetry_Int_Tables_number       1
_space_group_crystal_system       triclinic
_cell_length_a                    19.199709
_cell_length_b                    10.596053
_cell_length_c                    10.096511
_cell_angle_alpha                 88.437447
_cell_angle_beta                  87.242095
_cell_angle_gamma                 89.793207
_cell_volume                      2050.89822653

loop_
_atom_site_label
_atom_site_type_symbol
_atom_type_description
_atom_site_fract_x
_atom_site_fract_y
_atom_site_fract_z
_atom_type_partial_charge
C1    C     C_R   0.509528 0.263228 0.500323 0.901779
C2    C     C_R   0.290226 0.501778 0.512368 -0.207291
C3    C     C_R   0.930735 0.508933 0.492453 0.269743
C4    C     C_R   0.069011 0.509543 0.528447 0.271282
C5    C     C_R   0.817076 0.605701 0.539699 -0.085327
C6    C     C_R   0.744612 0.604916 0.546215 -0.019952
C7    C     C_R   0.709823 0.503629 0.490081 -0.207529
C8    C     C_R   0.747444 0.406546 0.424183 -0.077628
C9    C     C_R   0.821051 0.409192 0.418530 -0.031545
C10   C     C_R   0.855247 0.508636 0.479456 -0.073307
C11   C     C_2   0.552448 0.930240 0.404197 0.116132
C12   C     C_R   0.365978 0.500205 0.503177 0.809134
C13   C     C_2   0.505737 0.872088 0.488850 -0.349963
C14   C     C_2   0.548168 0.067243 0.390962 0.004255
C15   C     C_2   0.539610 0.136475 0.502431 -0.090306
C16   C     C_2   0.546167 0.554387 0.922216 -0.023165
C17   C     C_2   0.553906 0.527234 0.066856 0.176453
C18   C     C_R   0.500904 0.737984 0.497728 0.920353
C19   C     C_R   0.634046 0.500920 0.497083 0.786925
C20   C     C_R   0.254203 0.410495 0.594770 -0.043103
C21   C     C_R   0.180622 0.414276 0.606514 -0.036965
C22   C     C_R   0.144899 0.509166 0.535329 -0.072602
C23   C     C_R   0.181708 0.600748 0.458608 -0.088565
C24   C     C_R   0.254065 0.599233 0.446653 -0.026083
H1    H     H_    0.468789 0.924834 0.550812 0.142044
H2    H     H_    0.584758 0.614682 0.870436 0.137135
H3    H     H_    0.452683 0.524567 0.114146 0.168522
H4    H     H_    0.153443 0.673180 0.405366 0.202971
H5    H     H_    0.844335 0.681139 0.585689 0.204156
N1    N     N_R   0.033657 0.399320 0.527371 -0.153862
N2    N     N_R   0.965559 0.399117 0.511565 -0.151134
N3    N     N_R   0.965974 0.619460 0.493770 -0.138057
N4    N     N_R   0.034076 0.619716 0.510859 -0.138354
N5    N     N_2   0.500750 0.501330 0.852150 -0.076665
N6    N     N_2   0.500770 0.501360 0.147810 -0.177913
O1    O     O_R   0.499990 0.319060 0.613040 -0.617665
O2    O     O_R   0.500010 0.319100 0.386900 -0.575004
O3    O     O_R   0.398130 0.499970 0.613110 -0.601956
O4    O     O_R   0.398150 0.500010 0.386970 -0.615367
O5    O     O_R   0.499990 0.680900 0.613100 -0.609202
O6    O     O_R   0.500010 0.680940 0.386960 -0.607544
O7    O     O_R   0.601850 0.499990 0.613030 -0.610927
O8    O     O_R   0.601870 0.500030 0.386890 -0.616773
Zn1   Zn    Zn3+2 0.499990 0.499970 0.650990 0.958352
Zn2   Zn    Zn3+2 0.500010 0.500030 0.349010 0.964572
C25   C     C_2   0.294477 0.312768 0.667990 0.518255
H6    H     H_    0.339931 0.269117 0.620053 0.032572
O9    O     O_2   0.279388 0.284855 0.783934 -0.538949
C26   C     C_2   0.542799 0.116517 0.252397 0.438737
H7    H     H_    0.511800 0.065713 0.184328 0.060531
O10   O     O_2   0.577103 0.207024 0.210395 -0.543150
C27   C     C_3   0.564882 0.088670 0.635532 -0.826110
H8    H     H_    0.599197 0.160669 0.676496 0.255610
H9    H     H_    0.519675 0.072028 0.706554 0.240370
H10   H     H_    0.596514 0.001045 0.628328 0.268892
C28   C     C_3   0.456673 0.398792 0.905793 -0.553896
H11   H     H_    0.439999 0.340631 0.824066 0.245663
H12   H     H_    0.484686 0.334051 0.973585 0.202902
H13   H     H_    0.407475 0.436315 0.951554 0.189128
C29   C     C_3   0.626520 0.532373 0.114353 -0.705890
H14   H     H_    0.665360 0.548166 0.030456 0.203630
H15   H     H_    0.631437 0.612059 0.181937 0.233155
H16   H     H_    0.639712 0.440919 0.162514 0.294777
C30   C     C_2   0.140598 0.320776 0.692119 0.536057
H17   H     H_    0.095797 0.351441 0.752723 0.062732
O11   O     O_2   0.155275 0.208568 0.691209 -0.505996
C31   C     C_2   0.290814 0.703183 0.369488 0.426219
H18   H     H_    0.346524 0.716510 0.374796 0.072443
O12   O     O_2   0.258929 0.776892 0.299517 -0.544833
C32   C     C_2   0.706383 0.711784 0.610231 0.393637
H19   H     H_    0.650138 0.719023 0.609295 0.072928
O13   O     O_2   0.737561 0.794648 0.664569 -0.544712
C33   C     C_2   0.708931 0.302404 0.364272 0.533186
H20   H     H_    0.661809 0.265598 0.414074 0.066323
O14   O     O_2   0.727837 0.260416 0.256962 -0.511677
C34   C     C_2   0.862763 0.309338 0.350499 0.535492
H21   H     H_    0.908015 0.335268 0.287153 0.060942
O15   O     O_2   0.849083 0.197684 0.369703 -0.500590
C35   C     C_3   0.605503 0.860999 0.317067 -0.793163
H22   H     H_    0.645634 0.927175 0.273425 0.259099
H23   H     H_    0.632800 0.787684 0.375624 0.218775
H24   H     H_    0.579272 0.817014 0.234395 0.236859

loop_
_geom_bond_atom_site_label_1
_geom_bond_atom_site_label_2
_ccdc_geom_bond_type
N5    C28   S    
C33   H20   S    
C2    C12   S    
C7    C8    A    
C13   C18   S    
C29   H16   S    
C34   O15   D    
C5    C6    A    
C11   C14   S    
C14   C26   S    
C28   H11   S    
C29   H15   S    
C18   O5    A    
C21   C30   S    
C24   C31   S    
C16   N5    D    
C25   H6    S    
C19   O8    A    
C8    C9    A    
C26   O10   D    
C23   C24   A    
C32   H19   S    
C1    C15   S    
C9    C34   S    
C9    C10   A    
C19   O7    A    
C1    O2    A    
O4    Zn2   S    
C21   C22   A    
C33   O14   D    
C13   H1    S    
O7    Zn1   S    
C27   H9    S    
C5    H5    S    
C16   H2    S    
C25   O9    D    
C2    C20   A    
C31   H18   S    
N5    Zn1   S    
C34   H21   S    
C18   O6    A    
C35   H23   S    
C16   C17   S    
H3    N6    S    
C23   H4    S    
C29   H14   S    
C31   O12   D    
C30   O11   D    
O3    Zn1   S    
C4    C22   S    
C15   C27   S    
C3    N2    A    
O8    Zn2   S    
C11   C35   S    
C7    C19   S    
C2    C24   A    
O1    Zn1   S    
O2    Zn2   S    
N6    Zn2   S    
C27   H8    S    
C6    C32   S    
C4    N4    A    
C22   C23   A    
C35   H24   S    
C27   H10   S    
C6    C7    A    
C28   H13   S    
C30   H17   S    
C12   O4    A    
C5    C10   A    
C3    C10   S    
N3    N4    A    
C11   C13   D    
N1    N2    A    
C8    C33   S    
C28   H12   S    
C12   O3    A    
C3    N3    A    
C4    N1    A    
C17   C29   S    
C35   H22   S    
O5    Zn1   S    
C20   C21   A    
C26   H7    S    
O6    Zn2   S    
C14   C15   D    
C32   O13   D    
C17   N6    D    
C20   C25   S    
C1    O1    A    
