data_mof_unit_22308.cif
_audit_creation_date              2012-12-11T16:09:01-0500
_audit_creation_method            fapswitch 2.2
_symmetry_space_group_name_H-M    P1
_symmetry_Int_Tables_number       1
_space_group_crystal_system       triclinic
_cell_length_a                    12.97923
_cell_length_b                    13.276869
_cell_length_c                    27.726377
_cell_angle_alpha                 94.881586
_cell_angle_beta                  90.214021
_cell_angle_gamma                 119.34947
_cell_volume                      4143.85471541

loop_
_atom_site_label
_atom_site_type_symbol
_atom_type_description
_atom_site_fract_x
_atom_site_fract_y
_atom_site_fract_z
_atom_type_partial_charge
C1    C     C_R   0.627765 0.895879 0.427184 0.549761
C2    C     C_R   0.209377 0.765934 0.296184 0.003607
C3    C     C_R   0.194977 0.762741 0.195874 0.014900
C4    C     C_R   0.600917 0.221740 0.440495 0.548074
C5    C     C_R   0.225003 0.687511 0.216428 -0.120341
C6    C     C_R   0.230407 0.687925 0.266383 -0.114979
C7    C     C_R   0.175425 0.752665 0.146036 -0.129772
C8    C     C_R   0.129291 0.816224 0.126000 -0.004919
C9    C     C_R   0.179635 0.930389 0.357647 0.038855
C10   C     C_R   0.163660 0.925135 0.306669 -0.013480
C11   C     C_R   0.183560 0.845408 0.276278 0.040700
C12   C     C_R   0.668479 0.427066 0.238130 -0.101680
C13   C     C_R   0.128762 0.996828 0.284943 -0.101613
C14   C     C_R   0.117643 0.992040 0.234679 -0.130155
C15   C     C_R   0.140240 0.915234 0.204964 0.008460
C16   C     C_R   0.268858 0.875916 0.425480 0.570129
C17   C     C_R   0.174562 0.842408 0.225723 0.066374
C18   C     C_R   0.119620 0.903062 0.154949 -0.131029
C19   C     C_R   0.213055 0.854145 0.376638 -0.013405
C20   C     C_R   0.746244 0.947868 0.355587 -0.120972
C21   C     C_R   0.747209 0.943093 0.305286 -0.000193
C22   C     C_R   0.747927 0.925159 0.204177 -0.041287
C23   C     C_R   0.660146 0.410756 0.287424 -0.095645
C24   C     C_R   0.832161 0.026572 0.231203 -0.090155
C25   C     C_R   0.832317 0.037398 0.281474 0.219769
C26   C     C_R   0.753968 0.913166 0.154354 -0.134626
C27   C     C_R   0.681128 0.806065 0.127642 0.000327
C28   C     C_R   0.627404 0.898407 0.564823 0.549760
C29   C     C_R   0.564994 0.761861 0.351305 -0.133467
C30   C     C_R   0.570809 0.749192 0.301075 0.015900
C31   C     C_R   0.659541 0.841647 0.277896 0.029415
C32   C     C_R   0.486860 0.647789 0.273468 -0.137105
C33   C     C_R   0.491149 0.637109 0.223117 -0.139964
C34   C     C_R   0.671132 0.319691 0.304099 0.037609
C35   C     C_R   0.578196 0.728580 0.199784 0.019792
C36   C     C_R   0.661067 0.832220 0.227278 0.051819
C37   C     C_R   0.588920 0.715905 0.149811 -0.136318
C38   C     C_R   0.650265 0.863257 0.378342 -0.005349
C39   C     C_R   0.739675 0.290973 0.650766 -0.115032
C40   C     C_R   0.604131 0.228136 0.578049 0.542057
C41   C     C_R   0.757538 0.322267 0.700488 0.010624
C42   C     C_R   0.769911 0.355542 0.801946 0.028705
C43   C     C_R   0.843165 0.319934 0.778009 -0.124301
C44   C     C_R   0.836659 0.302903 0.727528 -0.125308
C45   C     C_R   0.687422 0.352229 0.205178 0.035082
C46   C     C_R   0.772630 0.369006 0.852625 -0.112338
C47   C     C_R   0.697298 0.402849 0.875869 0.005985
C48   C     C_R   0.590260 0.350226 0.647248 -0.099146
C49   C     C_R   0.609817 0.386984 0.696864 -0.010253
C50   C     C_R   0.688380 0.364922 0.723966 0.022900
C51   C     C_R   0.544594 0.434206 0.720941 0.056099
C52   C     C_R   0.271609 0.879303 0.563343 0.550320
C53   C     C_R   0.548293 0.445037 0.771618 -0.130725
C54   C     C_R   0.619518 0.415307 0.798205 -0.011479
C55   C     C_R   0.693289 0.379455 0.774692 0.056515
C56   C     C_1   0.695850 0.371089 0.154601 -0.056200
C57   C     C_R   0.619980 0.424052 0.848317 -0.120417
C58   C     C_R   0.649517 0.296238 0.625014 -0.008083
C59   C     C_1   0.221085 0.862082 0.609851 0.010891
C60   C     C_R   0.062444 0.752452 0.716886 0.248163
C61   C     C_R   0.048432 0.739990 0.767366 0.237253
C62   C     C_R   0.237681 0.916588 0.785424 -0.174914
C63   C     C_R   0.254084 0.925425 0.735992 -0.176277
C64   C     C_1   0.633432 0.269167 0.394816 0.002518
C65   C     C_R   0.167578 0.843661 0.701770 0.046560
C66   C     C_R   0.135923 0.824055 0.801207 0.043253
C67   C     C_1   0.653674 0.296792 0.354127 -0.045970
C68   C     C_1   0.121267 0.813123 0.852370 0.007744
C69   C     C_1   0.191414 0.852148 0.651100 0.019686
C70   C     C_1   0.099268 0.796795 0.894119 0.007966
C71   C     C_1   0.647378 0.859392 0.608871 -0.005504
C72   C     C_R   0.776545 0.816206 0.714483 -0.097026
C73   C     C_R   0.788914 0.800757 0.763074 -0.098988
C74   C     C_R   0.586628 0.756648 0.774865 -0.098253
C75   C     C_R   0.574370 0.772528 0.726388 -0.077552
C76   C     C_R   0.690923 0.245262 0.271221 -0.093796
C77   C     C_R   0.669615 0.803570 0.696183 0.056094
C78   C     C_1   0.704102 0.396216 0.113455 -0.012928
C79   C     C_R   0.694482 0.772405 0.793533 0.029676
C80   C     C_1   0.710148 0.764735 0.844315 -0.050761
C81   C     C_1   0.659464 0.831466 0.647895 -0.037067
C82   C     C_1   0.725773 0.760001 0.886806 -0.007800
C83   C     C_R   0.065899 0.773698 0.078794 0.548944
C84   C     C_R   0.717018 0.441390 0.067307 0.548854
C85   C     C_R   0.719991 0.782870 0.080755 0.557601
C86   C     C_R   0.056472 0.766275 0.941233 0.537814
C87   C     C_R   0.712003 0.439146 0.927800 0.536601
C88   C     C_R   0.699391 0.261642 0.221866 -0.097118
C89   C     C_R   0.218077 0.767421 0.345742 -0.146186
C90   C     C_R   0.748752 0.754185 0.936922 0.565197
C91   C     C_2   0.162717 0.014048 0.391062 0.582483
C92   C     C_2   0.473280 0.474297 0.694756 0.560894
Cr1   Cr    Cr6+3 0.416430 0.829200 0.492370 1.040743
Cr2   Cr    Cr6+3 0.674630 0.087020 0.504170 1.035368
Cr3   Cr    Cr6+3 0.408920 0.083740 0.503490 1.078888
Cr4   Cr    Cr6+3 0.914010 0.832750 0.013970 1.018826
Cr5   Cr    Cr6+3 0.922310 0.578600 0.003000 1.028033
Cr6   Cr    Cr6+3 0.656280 0.574630 0.003870 1.022089
H1    H     H_    0.698110 0.173652 0.283653 0.122133
H2    H     H_    0.714382 0.203454 0.196819 0.114233
H3    H     H_    0.491572 0.695691 0.368971 0.126235
H4    H     H_    0.834200 0.355285 0.873853 0.120690
H5    H     H_    0.787570 0.251430 0.633278 0.139120
H6    H     H_    0.903340 0.302656 0.798321 0.121931
H7    H     H_    0.890759 0.271063 0.709688 0.126843
H8    H     H_    0.564036 0.454103 0.865854 0.138371
H9    H     H_    0.496513 0.478362 0.790536 0.141480
H10   H     H_    0.521085 0.352970 0.626553 0.182264
H11   H     H_    0.659387 0.497647 0.225644 0.121348
H12   H     H_    0.088889 0.046837 0.219051 0.120873
H13   H     H_    0.305466 0.980807 0.811373 0.128651
H14   H     H_    0.335025 0.996019 0.724357 0.129022
H15   H     H_    0.851117 0.840964 0.691646 0.133326
H16   H     H_    0.872896 0.813815 0.777211 0.144570
H17   H     H_    0.512977 0.734667 0.798010 0.122538
H18   H     H_    0.491425 0.763050 0.712727 0.125793
H19   H     H_    0.643599 0.468056 0.312346 0.123285
H20   H     H_    0.184626 0.686911 0.123490 0.130044
H21   H     H_    0.240328 0.706391 0.359896 0.146261
H22   H     H_    0.240286 0.625757 0.193895 0.110260
H23   H     H_    0.107748 0.055767 0.306249 0.189968
H24   H     H_    0.251068 0.627205 0.281776 0.113805
H25   H     H_    0.085093 0.953421 0.139354 0.130730
H26   H     H_    0.085731 0.038997 0.450493 0.339429
H27   H     H_    0.878454 0.161519 0.332981 0.321196
H28   H     H_    0.457548 0.553148 0.638301 0.342827
H29   H     H_    0.897973 0.646239 0.696297 0.332326
H30   H     H_    0.923261 0.579295 0.759738 0.339128
H31   H     H_    0.823681 0.984055 0.137144 0.128767
H32   H     H_    0.815438 0.021873 0.377412 0.157986
H33   H     H_    0.898692 0.098122 0.213224 0.130715
H34   H     H_    0.531615 0.633364 0.129063 0.125592
H35   H     H_    0.427081 0.557114 0.202483 0.108726
H36   H     H_    0.418548 0.576421 0.290865 0.113362
O1    O     O_R   0.296680 0.802170 0.437540 -0.527401
O2    O     O_R   0.637200 0.461990 0.052510 -0.508345
O3    O     O_R   0.664790 0.681920 0.057970 -0.496567
O4    O     O_R   0.525380 0.838530 0.443500 -0.502461
O5    O     O_R   0.815840 0.852920 0.961840 -0.502606
O6    O     O_R   0.012100 0.822630 0.963670 -0.514557
O7    O     O_R   0.037010 0.668460 0.953040 -0.500069
O8    O     O_R   0.813390 0.478970 0.949660 -0.497035
O9    O     O_R   0.632250 0.456930 0.945520 -0.529060
O10   O     O_R   0.660200 0.677230 0.958780 -0.497145
O11   O     O_3   0.830870 0.661990 0.006950 -0.266616
O12   O     O_R   0.662610 0.183990 0.557860 -0.503926
O13   O     O_R   0.702130 0.995190 0.446810 -0.517218
O14   O     O_R   0.661770 0.181390 0.458760 -0.499935
O15   O     O_R   0.499820 0.198480 0.455280 -0.481823
O16   O     O_R   0.311660 0.976250 0.449080 -0.463883
O17   O     O_R   0.297580 0.804960 0.544440 -0.499760
O18   O     O_R   0.526220 0.841130 0.542590 -0.492668
O19   O     O_R   0.703030 0.997990 0.553710 -0.507380
O20   O     O_2   0.215136 0.117583 0.385546 -0.514490
O21   O     O_R   0.089460 0.974134 0.429884 -0.688567
O22   O     O_3   0.915883 0.141560 0.305559 -0.706648
O23   O     O_R   0.500730 0.201280 0.562180 -0.514467
O24   O     O_2   0.382185 0.464672 0.711524 -0.526769
O25   O     O_R   0.512694 0.527809 0.652108 -0.706041
O26   O     O_3   0.976262 0.678475 0.681914 -0.698055
O27   O     O_3   0.952779 0.646479 0.784672 -0.715109
O28   O     O_R   0.312500 0.978850 0.548170 -0.491824
O29   O     O_3   0.499990 0.999990 0.500010 -0.261067
O30   O     O_R   0.820790 0.857990 0.068830 -0.519219
O31   O     O_R   0.016700 0.827330 0.062850 -0.504361
O32   O     O_R   0.041970 0.673520 0.060040 -0.514530
O33   O     O_R   0.817980 0.483660 0.048840 -0.490028

loop_
_geom_bond_atom_site_label_1
_geom_bond_atom_site_label_2
_ccdc_geom_bond_type
Cr4   O6    S    
Cr2   O12   S    
C15   C18   A    
C66   C68   S    
C39   H5    S    
C63   C65   A    
Cr6   O9    S    
C8    C83   S    
C35   C36   A    
C9    C91   S    
Cr4   O5    S    
C90   O5    A    
C7    C8    A    
C39   C41   A    
C48   H10   S    
C44   H7    S    
C76   H1    S    
Cr4   O11   S    
C83   O31   A    
C12   C23   A    
C26   C27   A    
C72   C77   A    
C92   O25   S    
C61   O27   S    
C35   C37   A    
C3    C7    A    
C16   C19   S    
C30   C31   A    
C42   C55   A    
Cr1   O29   S    
Cr5   O32   S    
C4    O14   A    
Cr6   O2    S    
C56   C78   T    
C92   O24   D    
C42   C46   A    
C63   H14   S    
C27   C85   S    
C43   H6    S    
Cr1   O4    S    
C46   C47   A    
C61   C66   A    
C9    C19   A    
C11   C17   A    
C62   H13   S    
C89   H21   S    
C45   C56   S    
C49   C51   A    
C29   C38   A    
C13   H23   S    
Cr3   O15   S    
Cr2   O19   S    
C29   C30   A    
C9    C10   A    
C76   C88   A    
C31   C36   A    
H27   O22   S    
C86   O6    A    
C18   H25   S    
C4    O15   A    
C57   H8    S    
C13   C14   A    
C25   O22   S    
C7    H20   S    
C2    C6    A    
C32   H36   S    
C2    C11   A    
C12   H11   S    
Cr2   O14   S    
C83   O32   A    
C40   C58   S    
C74   C75   A    
C62   C66   A    
Cr6   O3    S    
C64   C67   T    
C40   O23   A    
C45   C88   A    
C24   C25   A    
C91   O20   D    
C80   C82   T    
Cr3   O28   S    
C72   C73   A    
C5    H22   S    
Cr1   O1    S    
H28   O25   S    
C39   C58   A    
C72   H15   S    
C8    C18   A    
C73   H16   S    
Cr4   O30   S    
C60   C61   A    
C51   C53   A    
C47   C87   S    
C2    C89   A    
C43   C44   A    
C91   O21   S    
C62   C63   A    
C19   C89   A    
C52   C59   S    
Cr3   O29   S    
C51   C92   S    
C47   C57   A    
C20   C38   A    
C53   H9    S    
C77   C81   S    
C23   C34   A    
C21   C31   A    
C73   C79   A    
C29   H3    S    
Cr3   O16   S    
C48   C58   A    
C75   C77   A    
Cr5   O7    S    
C88   H2    S    
C26   H31   S    
C1    C38   S    
C59   C69   T    
C48   C49   A    
C60   C65   A    
C28   O18   A    
C74   C79   A    
C28   O19   A    
C41   C44   A    
C22   C24   A    
C1    O13   A    
C28   C71   S    
C42   C43   A    
C6    H24   S    
C70   C86   S    
C85   O3    A    
C41   C50   A    
Cr2   O13   S    
C14   H12   S    
C21   C25   A    
C54   C55   A    
C84   O2    A    
Cr6   O10   S    
Cr3   O23   S    
Cr5   O11   S    
C33   H35   S    
C60   O26   S    
C20   H32   S    
C12   C45   A    
C3    C5    A    
C10   C13   A    
C82   C90   S    
C34   C67   S    
C23   H19   S    
C53   C54   A    
Cr6   O11   S    
C71   C81   T    
C22   C36   A    
C4    C64   S    
C50   C55   A    
Cr4   O31   S    
C37   H34   S    
C40   O12   A    
C32   C33   A    
C84   O33   A    
Cr5   O33   S    
C30   C32   A    
C24   H33   S    
C5    C6    A    
C27   C37   A    
C52   O17   A    
C65   C69   S    
C74   H17   S    
H29   O26   S    
H30   O27   S    
C33   C35   A    
C3    C17   A    
C87   O8    A    
Cr5   O8    S    
Cr1   O17   S    
C10   C11   A    
C79   C80   S    
C78   C84   S    
C20   C21   A    
C68   C70   T    
C49   C50   A    
C22   C26   A    
H26   O21   S    
C52   O28   A    
C85   O30   A    
C14   C15   A    
Cr1   O18   S    
C16   O16   A    
C75   H18   S    
C87   O9    A    
C15   C17   A    
C16   O1    A    
Cr2   O29   S    
C90   O10   A    
C1    O4    A    
C86   O7    A    
C34   C76   A    
C46   H4    S    
C54   C57   A    
