data_mof_unit_60813.cif
_audit_creation_date              2013-03-05T16:03:32-0500
_audit_creation_method            fapswitch 2.2
_symmetry_space_group_name_H-M    P1
_symmetry_Int_Tables_number       1
_space_group_crystal_system       triclinic
_cell_length_a                    8.19949
_cell_length_b                    14.452624
_cell_length_c                    22.992308
_cell_angle_alpha                 94.610847
_cell_angle_beta                  88.895811
_cell_angle_gamma                 91.872125
_cell_volume                      2714.03734477

loop_
_atom_site_label
_atom_site_type_symbol
_atom_site_description
_atom_site_fract_x
_atom_site_fract_y
_atom_site_fract_z
_atom_type_partial_charge
P1    P     P_3+3 0.074990 0.420800 0.372080 0.521096
O1    O     O_2   0.901900 0.448470 0.362340 -0.336197
O2    O     O_3   0.142240 0.449440 0.433360 -0.409996
O3    O     O_3   0.645560 0.619080 0.391970 -0.386006
O4    O     O_2   0.785293 0.554691 0.291987 -0.358956
O5    O     O_3   0.064388 0.299373 0.360451 -0.556081
O6    O     O_3   0.679921 0.723488 0.292251 -0.528254
H1    H     H_    0.690603 0.790272 0.375357 0.137679
C1    C     C_3   0.635126 0.885564 0.312293 -0.929520
H2    H     H_    0.589300 0.938233 0.345978 0.211404
H3    H     H_    0.765059 0.902785 0.302183 0.284613
P2    P     P_3+3 0.618830 0.715330 0.538180 0.547275
P3    P     P_3+3 0.070461 0.786723 0.414505 0.475564
O7    O     O_2   0.793170 0.729090 0.520590 -0.373491
O8    O     O_3   0.052800 0.667320 0.419180 -0.402234
O9    O     O_2   0.924657 0.831758 0.448150 -0.378406
O10   O     O_3   0.614318 0.742677 0.614031 -0.528322
O11   O     O_3   0.044958 0.810856 0.341893 -0.531385
C2    C     C_3   0.107978 0.737407 0.305362 0.432164
H4    H     H_    0.031100 0.673347 0.308704 0.141773
H5    H     H_    0.235480 0.723759 0.316616 -0.000990
C3    C     C_3   0.107137 0.762432 0.242429 -0.890730
H6    H     H_    0.980693 0.775658 0.229513 0.281354
H7    H     H_    0.185318 0.825614 0.237453 0.257776
C4    C     C_3   0.174666 0.733353 0.689080 0.118257
H8    H     H_    0.074459 0.714628 0.719558 -0.001940
H9    H     H_    0.290451 0.703736 0.702257 0.076498
C5    C     C_3   0.195296 0.839429 0.695139 0.396100
H10   H     H_    0.253833 0.858791 0.737948 0.009640
Ba1   Ba    Ba6+2 0.846250 0.544220 0.470860 1.667449
C6    C     C_3   0.049835 0.260051 0.414180 0.466897
H11   H     H_    0.935288 0.280275 0.436746 0.011439
H12   H     H_    0.148447 0.284597 0.443182 0.167307
C7    C     C_3   0.055755 0.154845 0.404018 -1.003228
H13   H     H_    0.948471 0.127182 0.378780 0.246562
H14   H     H_    0.055112 0.123048 0.446300 0.230854
H15   H     H_    0.169147 0.135221 0.379516 0.277004
C8    C     C_3   0.695680 0.676791 0.643091 0.988230
H16   H     H_    0.824239 0.673815 0.627484 0.007173
C9    C     C_3   0.695458 0.707271 0.708166 -0.882177
H17   H     H_    0.744994 0.779294 0.715929 0.281116
H18   H     H_    0.771012 0.660820 0.731812 0.180298
H19   H     H_    0.569356 0.704640 0.726444 0.241606
P4    P     P_3+3 0.114710 0.579280 0.627920 0.535569
O12   O     O_2   0.287790 0.551560 0.637690 -0.292321
O13   O     O_3   0.047460 0.550640 0.566640 -0.368492
O14   O     O_3   0.544140 0.380990 0.608030 -0.387199
O15   O     O_3   0.136399 0.700697 0.631462 -0.485166
P5    P     P_3+3 0.120274 0.212971 0.585689 0.437229
O16   O     O_3   0.640350 0.387150 0.474440 -0.342286
O17   O     O_3   0.136890 0.332750 0.580830 -0.380100
O18   O     O_2   0.262148 0.169694 0.548939 -0.390411
O19   O     O_3   0.172162 0.193703 0.657103 -0.563276
Ba2   Ba    Ba6+2 0.343570 0.455860 0.529140 1.639048
P6    P     P_3+3 0.639617 0.612574 0.315696 0.508957
C10   C     C_3   0.619266 0.789534 0.334790 0.462388
H20   H     H_    0.488577 0.774930 0.344977 -0.010974
H21   H     H_    0.562433 0.887680 0.272187 0.263105
O20   O     O_3   0.549340 0.612930 0.525560 -0.367403
C11   C     C_3   0.654334 0.259819 0.344744 0.816469
H22   H     H_    0.772286 0.272658 0.365209 0.000428
C12   C     C_3   0.675185 0.182003 0.296241 -0.944911
H23   H     H_    0.559417 0.168219 0.272276 0.275436
H24   H     H_    0.773659 0.201410 0.265226 0.264945
H25   H     H_    0.708762 0.117212 0.315349 0.219226
P7    P     P_3+3 0.578038 0.268591 0.457205 0.453750
O21   O     O_2   0.396530 0.270940 0.479440 -0.342845
O22   O     O_3   0.534471 0.231461 0.384133 -0.612695
H26   H     H_    0.155234 0.704255 0.213254 0.228279
C13   C     C_3   0.043582 0.220315 0.695744 0.907888
H27   H     H_    0.977361 0.280517 0.681726 0.007008
C14   C     C_3   0.113364 0.250529 0.755615 -0.823440
H28   H     H_    0.192742 0.313737 0.752921 0.265925
H29   H     H_    0.012749 0.266642 0.787486 0.218526
H30   H     H_    0.186549 0.194494 0.771354 0.255846
P8    P     P_3+3 0.552138 0.390202 0.684083 0.521414
C15   C     C_3   0.575714 0.213609 0.664552 0.366257
H31   H     H_    0.704698 0.227188 0.651601 0.053661
O23   O     O_2   0.394595 0.438718 0.706029 -0.311321
O24   O     O_3   0.526799 0.279374 0.709171 -0.515908
H32   H     H_    0.497180 0.214773 0.625830 0.162674
H33   H     H_    0.610764 0.065873 0.653019 0.238617
C16   C     C_3   0.558889 0.117179 0.686252 -0.670144
H34   H     H_    0.428192 0.098749 0.693998 0.255684
H35   H     H_    0.625086 0.114666 0.727728 0.279877
H36   H     H_    0.806095 0.360021 0.080923 0.210912
C17   C     C_R   0.331256 0.532787 0.331928 -0.386705
C18   C     C_R   0.195930 0.510257 0.926621 -0.031071
C19   C     C_R   0.154047 0.499748 0.866919 0.540022
O25   O     O_2   0.261400 0.509766 0.830316 -0.568121
N1    N     N_R   0.993722 0.477621 0.850242 -0.167351
C20   C     C_R   0.880322 0.457900 0.894264 0.575560
O26   O     O_2   0.734341 0.459299 0.885286 -0.554259
C21   C     C_R   0.931107 0.442603 0.951284 -0.211444
C22   C     C_R   0.086244 0.477350 0.968532 -0.033392
C23   C     C_R   0.345012 0.552603 0.945486 -0.051879
C24   C     C_R   0.379388 0.566138 0.005094 -0.074057
C25   C     C_R   0.272686 0.530074 0.047087 -0.001172
C26   C     C_R   0.130773 0.481212 0.028120 -0.001823
C27   C     C_R   0.828913 0.399728 0.992873 0.376530
C28   C     C_R   0.883071 0.395332 0.050295 -0.192051
C29   C     C_R   0.032486 0.437345 0.068718 -0.106621
C30   C     C_R   0.087978 0.433965 0.126483 0.601268
N2    N     N_R   0.216264 0.492525 0.148107 -0.161969
C31   C     C_R   0.301561 0.544647 0.107701 0.523198
C32   C     C_2   0.803591 0.433212 0.768716 -0.242576
C33   C     C_3   0.735545 0.458948 0.712168 0.276304
C34   C     C_1   0.999585 0.522065 0.686297 0.197016
C35   C     C_2   0.038866 0.531480 0.743108 -0.198536
C36   C     C_2   0.942559 0.478994 0.788583 0.107216
C37   C     C_R   0.413954 0.537290 0.230598 -0.131408
C38   C     C_R   0.444839 0.558493 0.290027 0.248167
C39   C     C_R   0.192109 0.481275 0.315502 0.271982
C40   C     C_R   0.148775 0.472333 0.256179 -0.227703
C41   C     C_R   0.258817 0.500718 0.211205 0.088235
O27   O     O_2   0.023944 0.376523 0.156322 -0.573379
O28   O     O_2   0.398862 0.606503 0.123928 -0.606008
C42   C     C_2   0.872888 0.469077 0.668719 -0.474287
H37   H     H_    0.491891 0.602711 0.018126 0.163146
H38   H     H_    0.514381 0.548509 0.200819 0.197623
H39   H     H_    0.432119 0.579139 0.914432 0.177449
H40   H     H_    0.135547 0.580523 0.756648 0.160025
H41   H     H_    0.734771 0.384071 0.793399 0.219582
H42   H     H_    0.028305 0.443879 0.247322 0.223026
H43   H     H_    0.358230 0.545942 0.377787 0.178504
H44   H     H_    0.883346 0.419475 0.630923 0.151150
C43   C     C_R   0.691886 0.935076 0.529781 0.015079
C44   C     C_R   0.507518 0.800644 0.498836 0.246736
C45   C     C_R   0.363967 0.769120 0.471003 -0.400619
C46   C     C_R   0.264125 0.830552 0.445563 0.289598
C47   C     C_R   0.310648 0.923859 0.444710 -0.269432
C48   C     C_R   0.455262 0.957628 0.471426 0.075441
C49   C     C_R   0.553215 0.897024 0.500277 -0.039896
H45   H     H_    0.326473 0.696658 0.471111 0.167242
C50   C     C_R   0.638946 0.089660 0.499687 -0.062464
C51   C     C_R   0.737990 0.029907 0.528925 -0.057891
C52   C     C_R   0.681862 0.185410 0.500814 0.187004
C53   C     C_R   0.817238 0.220042 0.532908 -0.536681
C54   C     C_R   0.922923 0.161165 0.558050 0.052555
C55   C     C_R   0.883793 0.064789 0.556007 0.433745
C56   C     C_R   0.499612 0.052005 0.470675 -0.113833
H46   H     H_    0.232763 0.970124 0.423921 0.151936
H47   H     H_    0.847715 0.293628 0.534697 0.176618
H48   H     H_    0.764903 0.891459 0.553991 0.228512
H49   H     H_    0.422068 0.095773 0.448026 0.173753
N3    N     N_R   0.300830 0.872907 0.648742 0.241623
O29   O     O_R   0.445860 0.907221 0.660975 -0.415642
O30   O     O_R   0.251433 0.868852 0.595125 -0.339117
N4    N     N_R   0.036282 0.882375 0.695388 0.218227
O31   O     O_R   0.940284 0.866659 0.651069 -0.345521
O32   O     O_R   0.981674 0.926959 0.742828 -0.421367
O33   O     O_3   0.613741 0.590391 0.635595 -0.715475
H50   H     H_    0.676485 0.552007 0.605911 0.308326
N5    N     N_R   0.604541 0.345367 0.321960 0.232116
O34   O     O_R   0.589936 0.353238 0.266293 -0.411330
O35   O     O_R   0.574268 0.415492 0.358884 -0.377339
O36   O     O_3   0.932723 0.145337 0.700454 -0.788875
H51   H     H_    0.997151 0.090900 0.708188 0.375654
N6    N     N_R   0.676114 0.354025 0.976855 0.263242
O37   O     O_R   0.668149 0.296152 0.930536 -0.327550
O38   O     O_R   0.553173 0.357286 0.013535 -0.390678
O39   O     O_3   0.986488 0.002265 0.577519 -0.673115
H52   H     H_    0.076593 0.035109 0.599170 0.369797

loop_
_geom_bond_atom_site_label_1
_geom_bond_atom_site_label_2
_geom_bond_distance
_ccdc_geom_bond_type
P7    O22   1.761795 S    
C18   C23   1.409195 A    
C24   H37   1.083261 S    
O36   H51   0.991442 S    
P6    C38   1.841331 S    
C7    H15   1.110682 S    
C2    H4    1.109901 S    
P8    O23   1.546649 D    
O6    P6    1.751241 S    
C51   C55   1.417731 A    
C44   C45   1.396297 A    
H1    C10   1.109605 S    
C24   C25   1.409919 A    
N4    O31   1.300596 A    
C50   C51   1.420359 A    
C15   H31   1.108784 S    
C10   H20   1.109595 S    
C4    C5    1.532305 S    
Ba1   Ba2   4.569525 S    
O16   Ba2   2.885944 S    
C25   C31   1.415977 A    
C23   H39   1.083273 S    
C17   C38   1.390630 A    
C16   H34   1.110282 S    
N1    C36   1.488016 S    
P1    Ba1   3.355709 S    
C5    H10   1.114733 S    
C2    H5    1.109484 S    
O14   P8    1.745329 S    
C39   C40   1.410937 A    
C53   H47   1.082212 S    
N4    O32   1.300944 A    
C8    H16   1.108011 S    
O2    Ba2   2.771408 S    
C22   C26   1.420982 A    
C35   H40   1.079376 S    
C32   C33   1.503124 S    
C15   C16   1.518832 S    
C55   O39   1.381261 S    
C34   C35   1.346579 D    
C11   C12   1.530125 S    
C7    H13   1.108964 S    
C20   O26   1.219652 D    
C12   H24   1.111008 S    
P2    O20   1.575222 S    
C9    H19   1.109241 S    
C37   C38   1.402164 A    
C48   C49   1.418508 A    
P5    O17   1.744394 S    
C32   H41   1.082220 S    
P3    C46   1.827021 S    
C6    H12   1.090090 S    
C13   H27   1.112854 S    
C15   H32   1.110330 S    
C19   N1    1.396305 Am   
C1    H2    1.110488 S    
C33   C42   1.502321 S    
N5    O35   1.295958 A    
C56   H49   1.080548 S    
C43   H48   1.076854 S    
C40   H42   1.074265 S    
C9    H18   1.108554 S    
P7    O21   1.564820 D    
Ba1   O16   2.790084 S    
C18   C22   1.405677 A    
C5    N4    1.461944 S    
C23   C24   1.401515 A    
C31   O28   1.219081 D    
C21   C22   1.404720 A    
P1    C39   1.859613 S    
O6    C10   1.406171 S    
O7    Ba1   2.863783 S    
C14   H30   1.110921 S    
O19   C13   1.408630 S    
C8    O33   1.398366 S    
N2    C31   1.404553 Am   
P4    O13   1.543324 S    
C40   C41   1.435171 A    
N3    O30   1.301267 A    
Ba2   O20   2.789468 S    
P4    C34   1.858764 S    
N3    O29   1.300434 A    
P1    O5    1.753378 S    
C28   C29   1.406789 A    
C34   C42   1.320395 D    
C2    C3    1.519624 S    
C43   C51   1.411360 A    
C14   H29   1.110691 S    
N1    C20   1.401108 Am   
O11   C2    1.405376 S    
Ba2   O21   2.864043 S    
C4    H8    1.110480 S    
C37   H38   1.077302 S    
P1    O2    1.543326 S    
P2    O10   1.756914 S    
O2    Ba1   2.908035 S    
C12   H23   1.111087 S    
N2    C41   1.493216 S    
C1    H3    1.110610 S    
N6    O37   1.301508 A    
C21   C27   1.425121 A    
P5    O18   1.543733 D    
Ba1   O20   2.886847 S    
O13   Ba2   2.908866 S    
C20   C21   1.419385 A    
C6    C7    1.521891 S    
C1    C10   1.520445 S    
O33   H50   0.991194 S    
O16   P7    1.787607 S    
C4    O15   1.407864 S    
N5    O34   1.302177 A    
C47   H46   1.083717 S    
O14   Ba2   2.777120 S    
P3    O11   1.750569 S    
C9    H17   1.107091 S    
C16   H35   1.110020 S    
P2    O7    1.489517 D    
O12   Ba2   2.791709 S    
H33   C16   1.109762 S    
P8    C33   1.871457 S    
P5    C54   1.861961 S    
O3    P6    1.750204 S    
C3    H7    1.110668 S    
P8    O24   1.750343 S    
C47   C48   1.401296 A    
O5    C6    1.402172 S    
C17   H43   1.082062 S    
P4    O12   1.512913 D    
O8    Ba1   2.740607 S    
O39   H52   0.986020 S    
C32   C36   1.366404 D    
C15   O24   1.403215 S    
C48   C56   1.401481 A    
C50   C52   1.415018 A    
C1    H21   1.110588 S    
C3    H26   1.110509 S    
C12   H25   1.110534 S    
P2    Ba1   3.400491 S    
O4    P6    1.546166 D    
C6    H11   1.100709 S    
C43   C49   1.408672 A    
C14   H28   1.109360 S    
C37   C41   1.427001 A    
C54   C55   1.416381 A    
P2    C44   1.859128 S    
C4    H9    1.111217 S    
C52   C53   1.401094 A    
C5    N3    1.463211 S    
Ba1   O13   2.770808 S    
O1    Ba1   2.791257 S    
C13   O36   1.401051 S    
O17   Ba2   2.741440 S    
P3    O8    1.738803 S    
C46   C47   1.390962 A    
C45   C46   1.396444 A    
C44   C49   1.428548 A    
C8    C9    1.525346 S    
C27   N6    1.437446 S    
P7    C52   1.862491 S    
P5    O19   1.750091 S    
P1    O1    1.512639 D    
C27   C28   1.407938 A    
C30   O27   1.218514 D    
C7    H14   1.108035 S    
O10   C8    1.399722 S    
C29   C30   1.417250 A    
C11   N5    1.454359 S    
C17   C39   1.383660 A    
C53   C54   1.398482 A    
C45   H45   1.081959 S    
P4    Ba2   3.356262 S    
C50   C56   1.405969 A    
C26   C29   1.398396 A    
C18   C19   1.416522 A    
C11   O22   1.397547 S    
C25   C26   1.399716 A    
P3    O9    1.544535 D    
C35   C36   1.532557 S    
C30   N2    1.401529 Am   
C3    H6    1.110661 S    
C11   H22   1.087649 S    
C13   C14   1.526558 S    
C42   H44   1.085119 S    
C19   O25   1.219334 D    
N6    O38   1.301386 A    
H36   C28   1.083655 S    
O3    Ba1   2.777661 S    
P4    O15   1.753499 S    
