data_mof_unit_40915.cif
_audit_creation_date              2012-12-10T16:56:35-0500
_audit_creation_method            fapswitch 2.2
_symmetry_space_group_name_H-M    P1
_symmetry_Int_Tables_number       1
_space_group_crystal_system       triclinic
_cell_length_a                    7.774378
_cell_length_b                    8.579407
_cell_length_c                    15.695846
_cell_angle_alpha                 90.863445
_cell_angle_beta                  85.889733
_cell_angle_gamma                 93.634198
_cell_volume                      1042.05512073

loop_
_atom_site_label
_atom_site_type_symbol
_atom_type_description
_atom_site_fract_x
_atom_site_fract_y
_atom_site_fract_z
_atom_type_partial_charge
C1    C     C_R   0.545759 0.794716 0.497807 0.960835
C2    C     C_3   0.388979 0.383842 0.030078 -0.167774
C3    C     C_1   0.506436 0.499603 0.750833 -0.181035
C4    C     C_1   0.493564 0.500397 0.249167 -0.181036
C5    C     C_3   0.340991 0.521508 0.975781 -0.163904
C6    C     C_3   0.659009 0.478492 0.024219 -0.163904
C7    C     C_3   0.504080 0.499678 0.917238 0.212295
C8    C     C_3   0.495920 0.500322 0.082762 0.212295
C9    C     C_1   0.506957 0.499494 0.826211 -0.084692
C10   C     C_1   0.493043 0.500506 0.173789 -0.084692
C11   C     C_R   0.454241 0.205284 0.502193 0.960835
C12   C     C_R   0.502171 0.500037 0.661982 0.904373
C13   C     C_R   0.497829 0.499963 0.338018 0.904373
C14   C     C_2   0.569828 0.958197 0.496557 -0.379255
C15   C     C_2   0.430172 0.041803 0.503443 -0.379255
C16   C     C_3   0.447918 0.637991 0.030279 -0.165138
C17   C     C_3   0.552082 0.362009 0.969720 -0.165138
C18   C     C_3   0.611020 0.616158 0.969922 -0.167774
H1    H     H_    0.701944 0.710924 0.943110 0.131163
H2    H     H_    0.298262 0.990773 0.510013 0.180883
H3    H     H_    0.298056 0.289076 0.056890 0.131163
H4    H     H_    0.788921 0.460953 0.046234 0.132175
H5    H     H_    0.211079 0.539047 0.953766 0.132175
H6    H     H_    0.013356 0.381987 0.436421 0.192520
H7    H     H_    0.986644 0.618013 0.563579 0.192520
H8    H     H_    0.405129 0.750667 0.057251 0.131893
H9    H     H_    0.594871 0.249333 0.942749 0.131893
H10   H     H_    0.701738 0.009227 0.489987 0.180883
N1    N     N_2   0.950320 0.457950 0.477300 -0.172913
N2    N     N_2   0.049680 0.542050 0.522700 -0.172913
O1    O     O_R   0.389250 0.738570 0.505570 -0.613107
O2    O     O_R   0.610750 0.261430 0.494430 -0.613107
O3    O     O_R   0.678390 0.711630 0.491020 -0.630916
O4    O     O_R   0.321610 0.288370 0.508980 -0.630916
O5    O     O_R   0.355460 0.513480 0.630490 -0.612025
O6    O     O_R   0.644540 0.486520 0.369510 -0.612024
O7    O     O_R   0.644600 0.486540 0.615950 -0.621719
O8    O     O_R   0.355400 0.513460 0.384050 -0.621719
Zn1   Zn    Zn3+2 0.306940 0.517990 0.509710 0.946342
Zn2   Zn    Zn3+2 0.693060 0.482010 0.490290 0.946342

loop_
_geom_bond_atom_site_label_1
_geom_bond_atom_site_label_2
_ccdc_geom_bond_type
N2    Zn1   S    
C7    C17   S    
O5    Zn1   S    
N1    N2    D    
C3    C9    T    
C1    C14   S    
C17   H9    S    
C5    H5    S    
C1    O1    A    
C7    C18   S    
C2    H3    S    
C1    O3    A    
C8    C16   S    
C2    C17   S    
C13   O8    A    
O8    Zn1   S    
N1    Zn2   S    
C16   C18   S    
O1    Zn1   S    
C11   O2    A    
O7    Zn2   S    
O2    Zn2   S    
C16   H8    S    
C15   H2    S    
C6    C18   S    
O3    Zn2   S    
C4    C10   T    
O4    Zn1   S    
C2    C5    S    
C7    C9    S    
O6    Zn2   S    
C13   O6    A    
C8    C10   S    
C18   H1    S    
C12   O7    A    
C4    C13   S    
C5    C7    S    
C6    C17   S    
C14   C15   D    
H7    N2    S    
C5    C16   S    
C6    C8    S    
C3    C12   S    
C14   H10   S    
H6    N1    S    
C11   C15   S    
C11   O4    A    
C2    C8    S    
C12   O5    A    
C6    H4    S    
