data_mof_unit_6628.cif
_audit_creation_date              2013-03-05T16:04:34-0500
_audit_creation_method            fapswitch 2.2
_symmetry_space_group_name_H-M    P1
_symmetry_Int_Tables_number       1
_space_group_crystal_system       triclinic
_cell_length_a                    8.456105
_cell_length_b                    14.529092
_cell_length_c                    18.815789
_cell_angle_alpha                 98.283058
_cell_angle_beta                  91.742063
_cell_angle_gamma                 92.610522
_cell_volume                      2283.6123548

loop_
_atom_site_label
_atom_site_type_symbol
_atom_site_description
_atom_site_fract_x
_atom_site_fract_y
_atom_site_fract_z
_atom_type_partial_charge
P1    P     P_3+3 0.061800 0.409390 0.339760 0.535964
O1    O     O_2   0.887710 0.436190 0.327560 -0.401900
O2    O     O_3   0.135370 0.443490 0.416520 -0.361540
O3    O     O_3   0.634420 0.609440 0.364670 -0.384020
O4    O     O_2   0.739300 0.529717 0.242585 -0.402021
O5    O     O_3   0.063593 0.288958 0.312827 -0.557493
O6    O     O_3   0.659025 0.703690 0.245850 -0.535297
H1    H     H_    0.717853 0.774782 0.347596 0.142870
C1    C     C_3   0.648830 0.869382 0.274266 -0.273367
H2    H     H_    0.770000 0.878609 0.256917 0.230378
P2    P     P_3+3 0.622760 0.718740 0.547830 0.458592
P3    P     P_3+3 0.077125 0.777332 0.389310 0.505051
O7    O     O_2   0.795290 0.730930 0.525800 -0.405577
O8    O     O_3   0.044470 0.660110 0.398750 -0.381977
O9    O     O_2   0.961766 0.825025 0.443711 -0.374563
O10   O     O_3   0.646714 0.754509 0.640643 -0.545212
O11   O     O_3   0.993375 0.802486 0.305963 -0.535597
C2    C     C_3   0.075336 0.772461 0.242072 0.663699
C3    C     C_3   0.015878 0.824785 0.178309 0.307955
H3    H     H_    0.000443 0.898034 0.203056 0.077163
C4    C     C_3   0.112156 0.763322 0.631615 0.404807
H4    H     H_    0.035453 0.724890 0.587806 0.122065
C5    C     C_3   0.033922 0.853574 0.661254 -0.056973
H5    H     H_    0.029206 0.898636 0.618868 0.054132
H6    H     H_    0.910112 0.838482 0.674540 0.121011
Ba1   Ba    Ba6+2 0.843240 0.541620 0.463500 1.593002
C6    C     C_3   0.993567 0.231632 0.357965 0.425743
H7    H     H_    0.865836 0.234358 0.353982 0.051443
C7    C     C_3   0.033628 0.131087 0.327466 0.189690
H8    H     H_    0.981709 0.115088 0.271788 0.105409
C8    C     C_3   0.684936 0.679198 0.675866 0.241362
H9    H     H_    0.772491 0.635764 0.645658 0.029041
H10   H     H_    0.576568 0.635079 0.680102 0.164234
C9    C     C_3   0.758102 0.713314 0.751927 -0.092498
H11   H     H_    0.886932 0.726783 0.748487 0.127117
H12   H     H_    0.744209 0.656476 0.785171 0.105180
P4    P     P_3+3 0.127890 0.590690 0.660240 0.500477
O12   O     O_2   0.301980 0.563840 0.672490 -0.325832
O13   O     O_3   0.054330 0.556590 0.583490 -0.424023
O14   O     O_3   0.555270 0.390630 0.635330 -0.340280
O15   O     O_3   0.141017 0.711691 0.686943 -0.516806
P5    P     P_3+3 0.118875 0.223600 0.614279 0.513612
O16   O     O_3   0.637720 0.384870 0.467990 -0.364874
O17   O     O_3   0.145220 0.339960 0.601250 -0.341285
O18   O     O_2   0.240831 0.171972 0.565747 -0.360714
O19   O     O_3   0.193069 0.218879 0.701353 -0.452255
Ba2   Ba    Ba6+2 0.346570 0.458460 0.536510 1.627680
P6    P     P_3+3 0.610363 0.595275 0.272507 0.469630
C10   C     C_3   0.631220 0.775598 0.302278 0.426450
H13   H     H_    0.511035 0.767398 0.322770 0.088510
H14   H     H_    0.567325 0.871187 0.227273 0.291938
O20   O     O_3   0.551980 0.615210 0.532020 -0.381655
C11   C     C_3   0.586748 0.267499 0.317562 0.801969
H15   H     H_    0.681548 0.321576 0.333940 0.041834
C12   C     C_3   0.628758 0.211201 0.245709 -1.000941
H16   H     H_    0.530392 0.160089 0.225196 0.287847
H17   H     H_    0.651366 0.258677 0.205485 0.242721
H18   H     H_    0.735614 0.171641 0.251637 0.216139
P7    P     P_3+3 0.575873 0.264290 0.458167 0.467542
O21   O     O_2   0.394410 0.269100 0.474240 -0.367416
O22   O     O_3   0.570878 0.206173 0.368836 -0.628196
C13   C     C_3   0.073555 0.183049 0.741230 0.351310
H19   H     H_    0.965844 0.223474 0.739254 0.053787
H20   H     H_    0.045009 0.108897 0.719093 0.099897
C14   C     C_3   0.133616 0.188809 0.819658 0.099554
H21   H     H_    0.250682 0.158058 0.819681 0.216200
P8    P     P_3+3 0.574637 0.404509 0.728775 0.470802
C15   C     C_3   0.614331 0.243182 0.775670 0.952286
H22   H     H_    0.734990 0.276408 0.776126 -0.209902
O23   O     O_2   0.451986 0.475744 0.754287 -0.381823
O24   O     O_3   0.495794 0.302309 0.757335 -0.541373
H23   H     H_    0.686569 0.252145 0.889243 0.192546
C16   C     C_3   0.586034 0.221230 0.853104 -0.653579
H24   H     H_    0.480441 0.256796 0.874588 0.223269
C17   C     C_R   0.007738 0.444786 0.047585 0.021356
C18   C     C_R   0.931639 0.388974 0.094741 0.251621
C19   C     C_R   0.778493 0.443184 0.959782 -0.194619
C20   C     C_R   0.940901 0.459535 0.979016 0.098375
C21   C     C_R   0.721424 0.444332 0.889469 -0.227648
C22   C     C_R   0.822696 0.466365 0.835908 0.039844
C23   C     C_R   0.978444 0.500824 0.856716 0.004243
C24   C     C_R   0.037563 0.497339 0.928869 0.064503
C25   C     C_R   0.772992 0.455970 0.762581 0.136963
C26   C     C_R   0.874075 0.487203 0.712051 -0.488808
C27   C     C_R   0.020125 0.534868 0.732327 0.240473
C28   C     C_R   0.073987 0.540840 0.806482 -0.195051
C29   C     C_R   0.159595 0.487099 0.070320 -0.031239
C30   C     C_R   0.216579 0.487731 0.143006 -0.013803
C31   C     C_R   0.121518 0.449137 0.193663 -0.075177
C32   C     C_R   0.984444 0.395955 0.167139 -0.063944
H25   H     H_    0.834024 0.478870 0.656247 0.166195
H26   H     H_    0.596787 0.427253 0.877684 0.158441
H27   H     H_    0.918930 0.356370 0.201918 0.160477
C33   C     C_R   0.222832 0.580477 0.832842 0.461536
C34   C     C_R   0.289708 0.556544 0.895674 -0.320507
C35   C     C_R   0.194822 0.528743 0.949229 0.008027
C36   C     C_R   0.251519 0.533152 0.022094 0.095600
C37   C     C_R   0.394756 0.583654 0.049912 0.129814
C38   C     C_R   0.365621 0.531554 0.166059 -0.014216
C39   C     C_R   0.456882 0.571662 0.116957 -0.114499
C40   C     C_R   0.413220 0.543550 0.239471 0.243529
C41   C     C_R   0.309527 0.516752 0.289916 -0.396349
C42   C     C_R   0.168021 0.464928 0.268817 0.368622
H28   H     H_    0.571112 0.605383 0.133057 0.217090
H29   H     H_    0.343527 0.532534 0.346380 0.183167
H30   H     H_    0.692642 0.430137 0.998817 0.160099
H31   H     H_    0.415528 0.568907 0.903958 0.175159
C43   C     C_R   0.692568 0.941731 0.545768 -0.094481
C44   C     C_R   0.519953 0.800916 0.495267 0.259204
C45   C     C_R   0.387219 0.765054 0.450293 -0.547094
C46   C     C_R   0.277229 0.824511 0.425908 0.310828
C47   C     C_R   0.307920 0.920699 0.441631 -0.238532
C48   C     C_R   0.447934 0.958460 0.479002 0.003126
C49   C     C_R   0.554776 0.899540 0.507411 -0.021836
H32   H     H_    0.359445 0.690748 0.441406 0.174600
C50   C     C_R   0.623411 0.096425 0.520683 0.097064
C51   C     C_R   0.728997 0.038827 0.551548 0.171842
C52   C     C_R   0.666178 0.192906 0.522270 0.285778
C53   C     C_R   0.803046 0.231220 0.561593 -0.406880
C54   C     C_R   0.913670 0.174030 0.587394 0.138753
C55   C     C_R   0.875652 0.078232 0.582528 -0.151278
C56   C     C_R   0.482849 0.054942 0.486030 -0.103414
H33   H     H_    0.222636 0.966754 0.424526 0.203965
H34   H     H_    0.963144 0.034767 0.600837 0.115534
H35   H     H_    0.832583 0.304960 0.564884 0.140916
H36   H     H_    0.775534 0.899403 0.568859 0.145966
H37   H     H_    0.400401 0.096864 0.462416 0.160534
N1    N     N_R   0.120467 0.903244 0.724727 0.289466
O25   O     O_R   0.238302 0.961617 0.717691 -0.364127
O26   O     O_R   0.068604 0.897540 0.788359 -0.299311
C57   C     C_3   0.042164 0.259493 0.436825 -0.693288
H38   H     H_    0.958066 0.308909 0.462549 0.179892
H39   H     H_    0.052537 0.199322 0.465473 0.222306
H40   H     H_    0.156203 0.295892 0.441129 0.305336
N2    N     N_R   0.965819 0.062117 0.368311 0.220110
O27   O     O_R   0.985691 0.975024 0.346722 -0.388999
O28   O     O_R   0.861317 0.083887 0.416024 -0.504017
C58   C     C_3   0.212316 0.120830 0.321539 -0.784125
H41   H     H_    0.256785 0.157176 0.277848 0.276732
H42   H     H_    0.274841 0.149731 0.372552 0.248557
H43   H     H_    0.240336 0.047140 0.307766 0.278893
C59   C     C_3   0.624968 0.952579 0.330637 -0.789229
H44   H     H_    0.688963 0.944007 0.381246 0.292333
H45   H     H_    0.669545 0.016856 0.310775 0.290531
H46   H     H_    0.499540 0.961795 0.340905 0.277305
N3    N     N_R   0.691705 0.797540 0.789809 0.318427
O29   O     O_R   0.751327 0.832488 0.852982 -0.286619
O30   O     O_R   0.569722 0.835403 0.764303 -0.252223
N4    N     N_R   0.441140 0.314468 0.309416 0.208661
O31   O     O_R   0.367667 0.310003 0.247078 -0.466968
O32   O     O_R   0.399812 0.373584 0.362945 -0.394058
N5    N     N_R   0.135099 0.828531 0.123580 0.274392
O33   O     O_R   0.206494 0.907637 0.116130 -0.323724
O34   O     O_R   0.161948 0.754698 0.078593 -0.343968
C60   C     C_3   0.151584 0.290042 0.856056 -0.907413
H47   H     H_    0.202116 0.293949 0.911688 0.246033
H48   H     H_    0.230415 0.332265 0.825766 0.291597
H49   H     H_    0.033394 0.319898 0.858473 0.244406
C61   C     C_3   0.023510 0.133207 0.862680 -0.833158
H50   H     H_    0.995791 0.062094 0.833800 0.294577
H51   H     H_    0.080790 0.127385 0.915667 0.271175
H52   H     H_    0.911660 0.168749 0.872017 0.243249
N6    N     N_R   0.608686 0.158471 0.722705 0.216861
O35   O     O_R   0.719051 0.099134 0.723571 -0.480726
O36   O     O_R   0.493336 0.141167 0.674649 -0.323676
C62   C     C_3   0.564096 0.118019 0.862014 -0.613602
H53   H     H_    0.676436 0.082201 0.854206 0.280147
H54   H     H_    0.472799 0.080923 0.823452 0.286731
H55   H     H_    0.526286 0.112598 0.917332 0.243627
C63   C     C_3   0.047442 0.668048 0.222995 -0.832107
H56   H     H_    0.103882 0.634367 0.264934 0.208205
H57   H     H_    0.920985 0.648824 0.220835 0.303133
H58   H     H_    0.095343 0.644324 0.170041 0.255400
N7    N     N_R   0.289945 0.661940 0.809384 0.264343
O37   O     O_R   0.216566 0.738634 0.824523 -0.278241
O38   O     O_R   0.441700 0.668118 0.801915 -0.389300
C64   C     C_3   0.809372 0.311274 0.069222 -1.006931
H59   H     H_    0.689460 0.332948 0.084699 0.256552
H60   H     H_    0.812908 0.288267 0.010545 0.257947
H61   H     H_    0.834862 0.248722 0.094519 0.266995
N8    N     N_R   0.244277 0.795963 0.253070 0.196485
O39   O     O_R   0.285855 0.881980 0.276987 -0.475989
O40   O     O_R   0.342775 0.746686 0.213787 -0.449064
C65   C     C_3   0.470641 0.665724 0.019723 -0.627142
H62   H     H_    0.579034 0.644789 0.990956 0.225837
H63   H     H_    0.386919 0.697714 0.985189 0.268566
H64   H     H_    0.506826 0.722893 0.063884 0.295773
N9    N     N_R   0.864619 0.787990 0.141936 0.228231
O41   O     O_R   0.851628 0.703525 0.107352 -0.384575
O42   O     O_R   0.765836 0.847261 0.123523 -0.382574
C66   C     C_3   0.268994 0.786705 0.602688 -0.744362
H65   H     H_    0.357273 0.812655 0.646665 0.311707
H66   H     H_    0.307403 0.720948 0.572939 0.210025
H67   H     H_    0.256118 0.841118 0.567842 0.182186

loop_
_geom_bond_atom_site_label_1
_geom_bond_atom_site_label_2
_geom_bond_distance
_ccdc_geom_bond_type
O14   Ba2   2.833704 S    
C11   N4    1.449294 S    
C12   H16   1.110827 S    
P8    C25   1.860337 S    
C40   C41   1.395465 A    
C22   C23   1.410883 A    
C6    C7    1.547073 S    
C34   C35   1.399733 A    
C6    C57   1.519577 S    
C16   H24   1.109732 S    
N6    O35   1.300337 A    
C1    H14   1.108519 S    
C14   C61   1.529873 S    
C57   H40   1.073593 S    
N1    O25   1.301176 A    
C23   C24   1.440980 A    
N2    O27   1.292231 A    
C8    H9    1.110972 S    
N8    O39   1.294721 A    
C65   H62   1.110741 S    
O10   C8    1.403257 S    
C7    C58   1.530932 S    
P4    O12   1.558860 D    
C50   C56   1.405552 A    
O19   C13   1.402155 S    
C25   C26   1.406731 A    
P4    C27   1.911224 S    
C19   H30   1.078156 S    
N6    O36   1.300302 A    
C2    C3    1.590929 S    
N4    O32   1.293754 A    
C61   H50   1.107330 S    
C62   H55   1.110556 S    
N7    O37   1.300030 A    
Ba1   O13   2.812275 S    
C4    C66   1.492222 S    
C60   H48   1.109987 S    
C63   H56   1.095268 S    
C39   H28   1.077584 S    
C50   C51   1.418212 A    
C41   H29   1.081300 S    
N9    O42   1.301260 A    
P1    O1    1.558488 D    
P5    O19   1.748249 S    
C43   C49   1.417973 A    
C56   H37   1.073447 S    
C10   H13   1.105323 S    
C51   C55   1.414467 A    
C52   C53   1.402642 A    
C55   H34   1.074517 S    
C13   H20   1.110570 S    
P2    O20   1.577203 S    
C28   C33   1.405543 A    
Ba2   O21   2.882207 S    
C45   C46   1.408289 A    
C11   O22   1.409738 S    
C48   C56   1.405776 A    
O5    C6    1.398276 S    
C65   H63   1.108364 S    
C15   H22   1.107953 S    
C64   H60   1.108204 S    
O14   P8    1.742484 S    
P3    O11   1.793232 S    
C5    H5    1.103259 S    
C61   H51   1.111039 S    
C26   H25   1.081604 S    
P4    Ba2   3.439043 S    
C1    H2    1.093081 S    
P1    C42   1.885995 S    
P8    O24   1.760579 S    
C23   C28   1.430431 A    
C13   C14   1.535436 S    
O17   Ba2   2.794711 S    
O16   P7    1.787254 S    
C2    C63   1.513678 S    
P7    O21   1.575700 D    
P4    O15   1.754935 S    
C4    H4    1.101738 S    
C31   C42   1.439226 A    
C60   H49   1.107089 S    
C62   H54   1.108303 S    
C59   H46   1.094597 S    
C41   C42   1.399743 A    
P5    O17   1.748224 S    
C22   C25   1.414916 A    
C47   C48   1.405811 A    
Ba1   O16   2.813887 S    
C36   C37   1.431514 A    
N3    O30   1.301766 A    
C11   C12   1.536263 S    
O4    P6    1.546097 D    
P7    O22   1.767332 S    
C24   C35   1.409496 A    
C66   H65   1.109516 S    
C19   C21   1.397055 A    
C26   C27   1.402757 A    
O6    C10   1.411398 S    
C47   H33   1.078573 S    
C48   C49   1.416941 A    
C18   C64   1.510379 S    
N8    O40   1.300738 A    
C16   C62   1.536293 S    
P2    Ba1   3.472244 S    
C15   C16   1.558818 S    
C27   C28   1.443839 A    
P1    O5    1.751039 S    
N9    O41   1.301850 A    
P1    O2    1.558721 S    
P5    O18   1.546108 D    
C17   C18   1.432978 A    
C66   H66   1.103100 S    
C7    H8    1.112150 S    
Ba1   O20   2.984482 S    
C3    N9    1.472847 S    
P2    O10   1.751642 S    
C20   C24   1.419661 A    
C38   C39   1.395060 A    
P3    O9    1.548349 D    
C9    H11   1.103539 S    
C64   H61   1.111409 S    
C35   C36   1.430249 A    
C13   H19   1.108562 S    
C8    H10   1.105721 S    
O11   C2    1.429312 S    
C21   H26   1.080580 S    
C61   H52   1.104777 S    
C1    C10   1.532935 S    
O1    Ba1   2.830602 S    
O8    Ba1   2.794118 S    
C53   C54   1.400215 A    
O12   Ba2   2.831110 S    
C34   H31   1.073770 S    
Ba1   Ba2   4.620919 S    
C33   N7    1.422080 S    
C4    O15   1.390067 S    
C53   H35   1.081491 S    
C17   C29   1.424358 A    
C38   C40   1.410971 A    
N5    O34   1.300384 A    
C64   H59   1.110297 S    
P7    C52   1.868197 S    
C37   C39   1.388923 A    
C12   H17   1.110137 S    
C62   H53   1.107401 S    
C59   H45   1.109487 S    
O7    Ba1   2.881890 S    
C57   H38   1.105800 S    
P2    C44   1.881993 S    
C6    H7    1.083352 S    
C8    C9    1.546134 S    
C54   C55   1.403474 A    
C32   H27   1.080436 S    
O13   Ba2   3.001942 S    
N3    O29   1.300480 A    
O3    P6    1.721290 S    
C15   N6    1.465801 S    
N2    O28   1.295688 A    
C46   C47   1.396818 A    
C7    N2    1.455997 S    
C59   H44   1.106382 S    
C43   C51   1.418097 A    
O2    Ba1   3.001147 S    
P3    O8    1.748065 S    
H23   C16   1.108566 S    
C57   H39   1.096555 S    
C58   H43   1.102943 S    
N1    O26   1.299966 A    
O3    Ba1   2.834395 S    
C1    C59   1.514167 S    
C11   H15   1.101250 S    
Ba2   O20   2.813347 S    
C58   H42   1.099990 S    
C2    N8    1.455163 S    
C65   H64   1.111975 S    
C9    N3    1.468466 S    
P8    O23   1.536941 D    
O6    P6    1.755905 S    
C3    H3    1.113556 S    
C4    C5    1.535860 S    
C66   H67   1.104343 S    
P4    O13   1.558526 S    
N4    O31   1.302331 A    
P2    O7    1.538197 D    
P5    C54   1.874422 S    
P1    Ba1   3.438567 S    
C63   H57   1.090882 S    
C15   O24   1.415810 S    
C44   C49   1.433645 A    
P6    C40   1.848922 S    
H1    C10   1.108876 S    
O2    Ba2   2.812839 S    
C50   C52   1.427495 A    
C9    H12   1.109715 S    
C5    H6    1.103396 S    
C37   C65   1.517851 S    
C33   C34   1.390718 A    
C17   C20   1.440931 A    
N7    O38   1.295632 A    
C30   C38   1.412811 A    
C58   H41   1.105368 S    
C21   C22   1.404248 A    
C30   C31   1.424291 A    
C29   C30   1.434800 A    
C14   C60   1.529229 S    
C14   H21   1.104481 S    
C12   H18   1.104045 S    
C60   H47   1.111309 S    
C19   C20   1.410237 A    
N5    O33   1.301338 A    
C43   H36   1.075600 S    
C31   C32   1.400641 A    
C44   C45   1.417506 A    
O16   Ba2   2.983688 S    
C45   H32   1.082197 S    
P3    C46   1.869428 S    
C18   C32   1.408694 A    
C5    N1    1.460528 S    
C29   C36   1.430299 A    
C63   H58   1.101776 S    
C3    N5    1.467667 S    
