data_mof_unit_40789.cif
_audit_creation_date              2013-03-05T15:56:46-0500
_audit_creation_method            fapswitch 2.2
_symmetry_space_group_name_H-M    P1
_symmetry_Int_Tables_number       1
_space_group_crystal_system       triclinic
_cell_length_a                    19.875385
_cell_length_b                    22.61169
_cell_length_c                    13.95037
_cell_angle_alpha                 88.363159
_cell_angle_beta                  90.407875
_cell_angle_gamma                 90.129159
_cell_volume                      6266.7898689

loop_
_atom_site_label
_atom_site_type_symbol
_atom_site_description
_atom_site_fract_x
_atom_site_fract_y
_atom_site_fract_z
_atom_type_partial_charge
O1    O     O_R   0.064880 0.435140 0.582280 -0.581775
O2    O     O_R   0.935120 0.564860 0.417720 -0.533529
O3    O     O_R   0.935120 0.564860 0.582280 -0.591879
O4    O     O_R   0.064880 0.435140 0.417720 -0.549976
O5    O     O_R   0.935120 0.435140 0.417720 -0.577069
O6    O     O_R   0.064880 0.564860 0.582280 -0.562509
O7    O     O_R   0.064880 0.564860 0.417720 -0.565195
O8    O     O_R   0.935120 0.435140 0.582280 -0.555997
O9    O     O_R   0.564880 0.935140 0.582280 -0.581772
O10   O     O_R   0.435120 0.064860 0.417720 -0.533558
O11   O     O_R   0.435120 0.064860 0.582280 -0.591908
O12   O     O_R   0.564880 0.935140 0.417720 -0.549971
O13   O     O_R   0.435120 0.935140 0.417720 -0.577038
O14   O     O_R   0.564880 0.064860 0.582280 -0.562508
O15   O     O_R   0.564880 0.064860 0.417720 -0.565192
O16   O     O_R   0.435120 0.935140 0.582280 -0.556012
C1    C     C_R   0.086370 0.414605 0.501497 0.853726
C2    C     C_R   0.913035 0.584942 0.499133 0.845570
C3    C     C_R   0.910237 0.418142 0.499892 0.859139
C4    C     C_R   0.084132 0.586790 0.499245 0.867606
C5    C     C_R   0.586370 0.914606 0.501498 0.853719
C6    C     C_R   0.413035 0.084942 0.499133 0.845523
C7    C     C_R   0.410235 0.918144 0.499892 0.859134
C8    C     C_R   0.584133 0.086789 0.499245 0.867623
Cu1   Cu    Cu3+1 0.000000 0.500000 0.597420 1.027024
Cu2   Cu    Cu3+1 0.000000 0.500000 0.402580 1.052851
Cu3   Cu    Cu3+1 0.500000 1.000000 0.597420 1.027013
Cu4   Cu    Cu3+1 0.500000 1.000000 0.402580 1.052828
C9    C     C_R   0.104744 0.694084 0.516559 -0.210201
C10   C     C_R   0.871856 0.321807 0.450561 -0.181086
C11   C     C_R   0.868668 0.674475 0.571603 -0.194508
C12   C     C_R   0.108287 0.307997 0.476227 -0.196475
C13   C     C_R   0.604747 0.194082 0.516570 -0.210199
C14   C     C_R   0.371857 0.821808 0.450572 -0.181097
C15   C     C_R   0.368656 0.174467 0.571610 -0.194455
C16   C     C_R   0.608285 0.807994 0.476250 -0.196465
C17   C     C_R   0.129828 0.638013 0.495958 -0.110257
C18   C     C_R   0.856013 0.374045 0.495762 -0.135324
C19   C     C_R   0.861548 0.632160 0.500962 -0.122554
C20   C     C_R   0.131467 0.362710 0.507841 -0.102073
C21   C     C_R   0.629829 0.138013 0.495958 -0.110257
C22   C     C_R   0.356011 0.874049 0.495760 -0.135278
C23   C     C_R   0.361544 0.132158 0.500960 -0.122553
C24   C     C_R   0.631469 0.862710 0.507844 -0.102070
C25   C     C_R   0.197133 0.632110 0.467373 -0.082439
C26   C     C_R   0.788139 0.386204 0.520076 -0.056208
C27   C     C_R   0.802892 0.632057 0.442772 -0.032833
C28   C     C_R   0.194802 0.366003 0.553829 -0.079222
C29   C     C_R   0.697131 0.132111 0.467363 -0.082419
C30   C     C_R   0.288135 0.886211 0.520058 -0.056140
C31   C     C_R   0.302897 0.132060 0.442754 -0.032915
C32   C     C_R   0.694808 0.866008 0.553823 -0.079222
C33   C     C_R   0.235258 0.682776 0.445626 0.041935
C34   C     C_R   0.739074 0.340629 0.511845 0.010403
C35   C     C_R   0.748403 0.669096 0.465705 -0.006714
C36   C     C_R   0.230315 0.314012 0.577388 0.016925
C37   C     C_R   0.735255 0.182777 0.445616 0.041937
C38   C     C_R   0.239070 0.840633 0.511831 0.010396
C39   C     C_R   0.248407 0.169100 0.465675 -0.006702
C40   C     C_R   0.730324 0.814018 0.577387 0.016930
C41   C     C_R   0.212690 0.738196 0.474803 0.059643
C42   C     C_R   0.758173 0.286080 0.473600 0.048806
C43   C     C_R   0.759372 0.715279 0.529720 0.058629
C44   C     C_R   0.212200 0.261583 0.532704 0.074471
C45   C     C_R   0.712689 0.238196 0.474803 0.059639
C46   C     C_R   0.258173 0.786082 0.473598 0.048800
C47   C     C_R   0.259367 0.215277 0.529705 0.058643
C48   C     C_R   0.712204 0.761585 0.532720 0.074471
C49   C     C_R   0.146302 0.744749 0.508840 0.056519
C50   C     C_R   0.822965 0.279006 0.434015 0.050965
C51   C     C_R   0.819786 0.718076 0.583897 0.045230
C52   C     C_R   0.149948 0.257645 0.483671 0.063896
C53   C     C_R   0.646304 0.244748 0.508850 0.056519
C54   C     C_R   0.322967 0.779006 0.434024 0.050962
C55   C     C_R   0.319775 0.218068 0.583899 0.045214
C56   C     C_R   0.649946 0.757641 0.483701 0.063898
C57   C     C_R   0.295101 0.679125 0.393221 -0.191313
C58   C     C_R   0.670889 0.348383 0.536565 -0.207523
C59   C     C_R   0.683663 0.662463 0.425263 -0.229267
C60   C     C_R   0.287793 0.314969 0.636707 -0.240455
C61   C     C_R   0.795095 0.179128 0.393202 -0.191309
C62   C     C_R   0.170884 0.848387 0.536542 -0.207514
C63   C     C_R   0.183674 0.162476 0.425208 -0.229291
C64   C     C_R   0.787809 0.814980 0.636693 -0.240459
C65   C     C_R   0.837513 0.228024 0.381775 -0.060548
C66   C     C_R   0.124210 0.801615 0.534249 -0.042016
C67   C     C_R   0.132960 0.204173 0.439998 -0.047882
C68   C     C_R   0.830731 0.766116 0.645054 -0.039688
C69   C     C_R   0.337518 0.728021 0.381793 -0.060561
C70   C     C_R   0.624214 0.301612 0.534269 -0.042028
C71   C     C_R   0.632951 0.704163 0.440051 -0.047901
C72   C     C_R   0.330714 0.266103 0.645067 -0.039672
H1    H     H_    0.053677 0.696880 0.542167 0.165603
H2    H     H_    0.923571 0.314429 0.430159 0.184435
H3    H     H_    0.915403 0.675339 0.611649 0.191291
H4    H     H_    0.060037 0.306241 0.439853 0.162131
H5    H     H_    0.553682 0.196876 0.542188 0.165620
H6    H     H_    0.423573 0.814428 0.430179 0.184424
H7    H     H_    0.415386 0.175327 0.611667 0.191318
H8    H     H_    0.560032 0.806234 0.439885 0.162136
H9    H     H_    0.307420 0.638421 0.358155 0.186078
H10   H     H_    0.652268 0.391207 0.555587 0.211087
H11   H     H_    0.670509 0.623115 0.387356 0.223892
H12   H     H_    0.298723 0.353818 0.677793 0.199363
H13   H     H_    0.807411 0.138425 0.358130 0.186069
H14   H     H_    0.152260 0.891211 0.555556 0.211084
H15   H     H_    0.170527 0.123135 0.387279 0.223861
H16   H     H_    0.798743 0.853833 0.677770 0.199367
C73   C     C_R   0.059607 0.495901 0.794719 0.088238
C74   C     C_R   0.941546 0.490489 0.204070 0.100284
C75   C     C_R   0.941218 0.504803 0.794453 0.103819
C76   C     C_R   0.059367 0.507422 0.206281 0.089007
C77   C     C_R   0.559608 0.995905 0.794718 0.088250
C78   C     C_R   0.441546 0.990499 0.204066 0.100153
C79   C     C_R   0.441216 0.004796 0.794451 0.103820
C80   C     C_R   0.559369 0.007420 0.206282 0.089014
N1    N     N_R   0.000000 0.500000 0.743810 -0.284127
N2    N     N_R   1.000000 0.500000 0.256190 -0.276600
N3    N     N_R   0.500000 1.000000 0.743810 -0.284135
N4    N     N_R   0.500000 1.000000 0.256190 -0.276584
C81   C     C_R   0.940166 0.497760 0.896456 -0.086291
C82   C     C_R   0.061953 0.503913 0.103271 -0.086071
C83   C     C_R   0.061690 0.502525 0.896887 -0.079754
C84   C     C_R   0.939700 0.496525 0.101469 -0.087809
C85   C     C_R   0.440166 0.997765 0.896457 -0.086269
C86   C     C_R   0.561955 0.003914 0.103271 -0.086081
C87   C     C_R   0.561691 0.002530 0.896886 -0.079770
C88   C     C_R   0.439703 0.996548 0.101468 -0.087753
C89   C     C_R   0.000978 0.500795 0.948312 -0.012280
C90   C     C_R   0.000931 0.500751 0.051049 -0.002772
C91   C     C_R   0.500980 0.000804 0.948311 -0.012265
C92   C     C_R   0.500933 0.000761 0.051048 -0.002747
C93   C     C_R   0.879475 0.488565 0.947371 0.220609
C94   C     C_R   0.123494 0.504793 0.050516 0.191327
C95   C     C_R   0.122862 0.508467 0.948985 0.201884
C96   C     C_R   0.878301 0.494985 0.047644 0.188299
C97   C     C_R   0.379474 0.988580 0.947379 0.220501
C98   C     C_R   0.623496 0.004792 0.050516 0.191327
C99   C     C_R   0.622864 0.008468 0.948985 0.201877
C100  C     C_R   0.378303 0.995031 0.047646 0.188257
C101  C     C_2   0.232364 0.575076 0.478691 0.855721
O17   O     O_2   0.203819 0.529314 0.459458 -0.559969
O18   O     O_R   0.298329 0.574441 0.514817 -0.730125
H17   H     H_    0.318969 0.533793 0.520919 0.357651
C102  C     C_2   0.768309 0.446565 0.547933 0.901863
O19   O     O_2   0.786618 0.489511 0.499678 -0.572304
O20   O     O_R   0.729227 0.454575 0.629580 -0.740001
H18   H     H_    0.718203 0.497702 0.639753 0.346271
C103  C     C_2   0.805254 0.605705 0.347356 0.944210
O21   O     O_2   0.760466 0.572965 0.320158 -0.560542
O22   O     O_R   0.858635 0.620974 0.286769 -0.735851
H19   H     H_    0.857937 0.598770 0.225070 0.338344
C104  C     C_2   0.237355 0.417758 0.534166 0.912488
O23   O     O_2   0.254217 0.450293 0.598434 -0.582416
O24   O     O_R   0.265782 0.423458 0.442848 -0.698079
H20   H     H_    0.303234 0.453681 0.438360 0.337452
C105  C     C_2   0.732365 0.075077 0.478676 0.855714
O25   O     O_2   0.703820 0.029315 0.459442 -0.559980
O26   O     O_R   0.798331 0.074444 0.514795 -0.730122
H21   H     H_    0.818973 0.033796 0.520895 0.357646
C106  C     C_2   0.268303 0.946575 0.547897 0.901841
O27   O     O_2   0.286615 0.989518 0.499637 -0.572351
O28   O     O_R   0.229212 0.954591 0.629532 -0.739941
H22   H     H_    0.218190 0.997720 0.639694 0.346249
C107  C     C_2   0.305273 0.105707 0.347338 0.944232
O29   O     O_2   0.260494 0.072958 0.320126 -0.560322
O30   O     O_R   0.358666 0.120978 0.286774 -0.735857
H23   H     H_    0.358027 0.098713 0.225132 0.338381
C108  C     C_2   0.737356 0.917764 0.534154 0.912480
O31   O     O_2   0.754215 0.950303 0.598419 -0.582409
O32   O     O_R   0.765785 0.923460 0.442837 -0.698077
H24   H     H_    0.803236 0.953684 0.438345 0.337448
C109  C     C_2   0.892950 0.225560 0.310398 0.844381
O33   O     O_2   0.912628 0.177731 0.282965 -0.546961
O34   O     O_R   0.920140 0.277602 0.270120 -0.738557
H25   H     H_    0.956857 0.269781 0.222049 0.351893
C110  C     C_2   0.052921 0.814574 0.557058 0.855139
O35   O     O_2   0.039846 0.848682 0.620780 -0.530801
O36   O     O_R   0.000808 0.790280 0.502855 -0.764179
H26   H     H_    0.954694 0.803415 0.524261 0.343087
C111  C     C_2   0.062565 0.188718 0.416109 0.860197
O37   O     O_2   0.050068 0.158406 0.346981 -0.535657
O38   O     O_R   0.011032 0.205077 0.477658 -0.767934
H27   H     H_    0.966519 0.185630 0.462185 0.347518
C112  C     C_2   0.886690 0.767741 0.716271 0.841567
O39   O     O_2   0.914443 0.814677 0.733176 -0.541915
O40   O     O_R   0.905472 0.716311 0.767655 -0.736974
H28   H     H_    0.943657 0.723335 0.814568 0.345236
C113  C     C_2   0.392959 0.725555 0.310422 0.844381
O41   O     O_2   0.412640 0.677725 0.282996 -0.546937
O42   O     O_R   0.420150 0.777596 0.270142 -0.738579
H29   H     H_    0.456870 0.769774 0.222074 0.351889
C114  C     C_2   0.552925 0.314572 0.557083 0.855169
O43   O     O_2   0.539852 0.348687 0.620794 -0.530820
O44   O     O_R   0.500810 0.290271 0.502893 -0.764189
H30   H     H_    0.454697 0.303407 0.524300 0.343095
C115  C     C_2   0.562554 0.688706 0.416177 0.860178
O45   O     O_2   0.550052 0.658380 0.347064 -0.535627
O46   O     O_R   0.511023 0.705083 0.477721 -0.767938
H31   H     H_    0.466506 0.685640 0.462255 0.347509
C116  C     C_2   0.386666 0.267722 0.716293 0.841545
O47   O     O_2   0.414424 0.314655 0.733204 -0.541938
O48   O     O_R   0.405438 0.216290 0.767680 -0.736952
H32   H     H_    0.443619 0.223311 0.814600 0.345232
C117  C     C_2   0.120322 0.475156 0.746719 0.971071
O49   O     O_2   0.151202 0.507880 0.691531 -0.532784
O50   O     O_R   0.145098 0.418962 0.771826 -0.767097
H33   H     H_    0.190376 0.410657 0.742573 0.345379
C118  C     C_2   0.883237 0.462435 0.251176 0.940469
O51   O     O_2   0.850386 0.489240 0.308866 -0.532805
O52   O     O_R   0.864805 0.404950 0.227348 -0.743844
H34   H     H_    0.823716 0.390275 0.263626 0.342744
C119  C     C_2   0.879526 0.524131 0.744977 0.958773
O53   O     O_2   0.851867 0.491543 0.689369 -0.574743
O54   O     O_R   0.850966 0.578647 0.765981 -0.737964
H35   H     H_    0.807989 0.586744 0.728308 0.334474
C120  C     C_2   0.120890 0.522067 0.259093 0.988363
O55   O     O_2   0.152701 0.483049 0.301090 -0.529189
O56   O     O_R   0.146465 0.579643 0.251378 -0.757593
H36   H     H_    0.192876 0.583322 0.281028 0.323898
C121  C     C_2   0.620323 0.975162 0.746716 0.971072
O57   O     O_2   0.651204 0.007888 0.691534 -0.532789
O58   O     O_R   0.645098 0.918966 0.771816 -0.767093
H37   H     H_    0.690376 0.910663 0.742563 0.345377
C122  C     C_2   0.383237 0.962432 0.251155 0.940353
O59   O     O_2   0.350387 0.989220 0.308866 -0.532802
O60   O     O_R   0.364805 0.904953 0.227286 -0.743866
H38   H     H_    0.323720 0.890266 0.263561 0.342748
C123  C     C_2   0.379520 0.024100 0.744967 0.958776
O61   O     O_2   0.351847 0.991478 0.689422 -0.574773
O62   O     O_R   0.350969 0.078633 0.765894 -0.737971
H39   H     H_    0.307987 0.086710 0.728225 0.334458
C124  C     C_2   0.620893 0.022060 0.259095 0.988372
O63   O     O_2   0.652702 0.983039 0.301086 -0.529188
O64   O     O_R   0.646471 0.079635 0.251382 -0.757598
H40   H     H_    0.692885 0.083310 0.281025 0.323899
N5    N     N_2   0.821164 0.466934 0.898846 -0.435759
H41   H     H_    0.775148 0.478632 0.925413 0.269273
C125  C     C_3   0.823965 0.404684 0.877853 -0.600386
H42   H     H_    0.779145 0.392494 0.834657 0.257557
H43   H     H_    0.824354 0.377601 0.945611 0.224438
H44   H     H_    0.869599 0.394740 0.835742 0.238630
N6    N     N_2   0.186698 0.499045 0.098705 -0.445062
H45   H     H_    0.223363 0.528667 0.076826 0.268903
C126  C     C_3   0.210460 0.438763 0.110081 -0.586906
H46   H     H_    0.256996 0.437956 0.154593 0.253864
H47   H     H_    0.221780 0.420076 0.039240 0.216459
H48   H     H_    0.171964 0.410682 0.146755 0.249061
N7    N     N_2   0.183906 0.521360 0.899307 -0.436944
H49   H     H_    0.226194 0.499263 0.923726 0.272053
C127  C     C_3   0.195215 0.583644 0.878887 -0.606903
H50   H     H_    0.241101 0.589330 0.834609 0.254191
H51   H     H_    0.202250 0.607619 0.946667 0.218262
H52   H     H_    0.151956 0.602983 0.838065 0.239865
N8    N     N_2   0.815240 0.503126 0.093488 -0.442404
H53   H     H_    0.782665 0.467748 0.088866 0.275352
C128  C     C_3   0.783362 0.559846 0.073533 -0.619599
H54   H     H_    0.745841 0.568405 0.129899 0.272272
H55   H     H_    0.756755 0.560345 0.003436 0.223069
H56   H     H_    0.821017 0.596229 0.071986 0.232358
N9    N     N_2   0.321170 0.966916 0.898879 -0.435764
H57   H     H_    0.275146 0.978584 0.925470 0.269207
C129  C     C_3   0.324009 0.904661 0.877906 -0.600206
H58   H     H_    0.279194 0.892444 0.834722 0.257510
H59   H     H_    0.324417 0.877586 0.945675 0.224436
H60   H     H_    0.369649 0.894732 0.835793 0.238612
N10   N     N_2   0.686700 0.999039 0.098705 -0.445060
H61   H     H_    0.723367 0.028660 0.076828 0.268901
C130  C     C_3   0.710458 0.938755 0.110075 -0.586901
H62   H     H_    0.756993 0.937944 0.154587 0.253863
H63   H     H_    0.721776 0.920070 0.039232 0.216457
H64   H     H_    0.671959 0.910675 0.146746 0.249062
N11   N     N_2   0.683908 0.021360 0.899307 -0.436943
H65   H     H_    0.726195 0.999260 0.923725 0.272052
C131  C     C_3   0.695222 0.083644 0.878893 -0.606896
H66   H     H_    0.741107 0.089330 0.834615 0.254190
H67   H     H_    0.702258 0.107617 0.946675 0.218260
H68   H     H_    0.651963 0.102986 0.838072 0.239866
N12   N     N_2   0.315253 0.003231 0.093490 -0.442417
H69   H     H_    0.282658 0.967864 0.088907 0.275315
C132  C     C_3   0.283402 0.059950 0.073406 -0.619280
H70   H     H_    0.245654 0.068452 0.129509 0.272066
H71   H     H_    0.257075 0.060503 0.003085 0.223106
H72   H     H_    0.321047 0.096344 0.072216 0.232370

loop_
_geom_bond_atom_site_label_1
_geom_bond_atom_site_label_2
_geom_bond_distance
_ccdc_geom_bond_type
C129  H60   1.111056 S    
C25   C101  1.472867 S    
O48   H32   1.013827 S    
N8    C128  1.450723 S    
C126  H47   1.110535 S    
C107  O29   1.221821 D    
C8    C21   1.470143 S    
C32   C108  1.463053 S    
C75   C81   1.427636 A    
C108  O32   1.399728 S    
C108  O31   1.220509 D    
C96   N8    1.425824 S    
C57   H9    1.083868 S    
O20   H18   1.014121 S    
C14   C22   1.392481 A    
C103  O21   1.221767 D    
O54   H35   1.013976 S    
C59   H11   1.078651 S    
C74   N2    1.385799 A    
C101  O18   1.401197 S    
C102  O19   1.221944 D    
C112  O39   1.223130 D    
O64   H40   1.012475 S    
C29   C37   1.399358 A    
C127  H50   1.110299 S    
C12   C52   1.410322 A    
C31   C107  1.474933 S    
C68   C112  1.487130 S    
C119  O53   1.213163 D    
O10   C6    1.313862 A    
C132  H72   1.110811 S    
C10   C18   1.392492 A    
N7    H49   1.029684 S    
C105  O25   1.214759 D    
C7    C22   1.468508 S    
C87   C99   1.420136 A    
C126  H48   1.111386 S    
O12   Cu4   1.960946 S    
C54   C69   1.412836 A    
C27   C35   1.414554 A    
C131  H67   1.111118 S    
C125  H42   1.110577 S    
C39   C63   1.410696 A    
C53   C70   1.415136 A    
C103  O22   1.397733 S    
N9    H57   1.027361 S    
C112  O40   1.398612 S    
C26   C102  1.484620 S    
C58   H10   1.078297 S    
C98   N10   1.425002 S    
C41   C49   1.415012 A    
N6    H45   1.030601 S    
C46   C54   1.415956 A    
N5    H41   1.027288 S    
C45   C53   1.415017 A    
O13   C7    1.299398 A    
O3    C2    1.306859 A    
C20   C28   1.411587 A    
C128  H54   1.108869 S    
C116  O47   1.223129 D    
O14   C8    1.306430 A    
C115  O46   1.398439 S    
O60   H38   1.014021 S    
C82   C94   1.431771 A    
C32   C40   1.402376 A    
C74   C84   1.434145 A    
C77   N3    1.378863 A    
C33   C41   1.404106 A    
C41   C46   1.408772 A    
C38   C46   1.411639 A    
C131  H66   1.110297 S    
C62   H14   1.078293 S    
C63   H15   1.078637 S    
C110  O36   1.398700 S    
C35   C43   1.408913 A    
C80   C124  1.465254 S    
C93   C96   1.410844 A    
C65   C109  1.492549 S    
O22   H19   1.008749 S    
C36   C44   1.400255 A    
O13   Cu4   1.958575 S    
N11   C131  1.446257 S    
O11   Cu3   1.960946 S    
O14   Cu3   1.958572 S    
C104  O24   1.399726 S    
C16   C56   1.410327 A    
C124  O63   1.220279 D    
C10   C50   1.392674 A    
C59   C71   1.402094 A    
C16   C24   1.401070 A    
C61   C65   1.395078 A    
C39   C47   1.408910 A    
C24   C32   1.411598 A    
O16   Cu3   1.965618 S    
C111  O38   1.398405 S    
C129  H58   1.110582 S    
C25   C33   1.399363 A    
O46   H31   1.011729 S    
C105  O26   1.401202 S    
C121  O58   1.398090 S    
C80   C86   1.442772 A    
C130  H62   1.110237 S    
C83   C89   1.408096 A    
C30   C106  1.484629 S    
O1    Cu1   1.971917 S    
O8    Cu1   1.965618 S    
C116  O48   1.398607 S    
C42   C50   1.415965 A    
C29   C105  1.472860 S    
C107  O30   1.397752 S    
C113  O41   1.223408 D    
C93   N5    1.430312 S    
C95   N7    1.426927 S    
C15   H7    1.080938 S    
C88   C92   1.411620 A    
C21   C29   1.406319 A    
C102  O20   1.399474 S    
C123  O61   1.213179 D    
C122  O59   1.215933 D    
O24   H20   1.010416 S    
C9    C49   1.412888 A    
C119  O54   1.397762 S    
C122  O60   1.398259 S    
C97   C100  1.410857 A    
C61   H13   1.083870 S    
N7    C127  1.446256 S    
O8    C3    1.315138 A    
C79   C123  1.464220 S    
C78   C88   1.434125 A    
C84   C96   1.429167 A    
C73   N1    1.378864 A    
O50   H33   1.010944 S    
C30   C38   1.423678 A    
C44   C47   1.408702 A    
C27   C103  1.474922 S    
O3    Cu1   1.960946 S    
C131  H68   1.111433 S    
O58   H37   1.010946 S    
C125  H43   1.111492 S    
Cu4   N4    2.042195 S    
C37   C45   1.404104 A    
O30   H23   1.008772 S    
N9    C129  1.447223 S    
C130  H63   1.110534 S    
C132  H71   1.108310 S    
C73   C83   1.437677 A    
C127  H52   1.111432 S    
C106  O28   1.399453 S    
C34   C42   1.411640 A    
C85   C97   1.416148 A    
Cu1   Cu2   2.718089 S    
C111  O37   1.222720 D    
O12   C5    1.314059 A    
O7    C4    1.308027 A    
C66   C110  1.486046 S    
C58   C70   1.406118 A    
O42   H29   1.013853 S    
C83   C95   1.420129 A    
C128  H55   1.108182 S    
C1    C20   1.478476 S    
C64   C68   1.399174 A    
C60   C72   1.399170 A    
C33   C57   1.404370 A    
C2    C19   1.481437 S    
O52   H34   1.014013 S    
C76   C82   1.442763 A    
C121  O57   1.220280 D    
C3    C18   1.468515 S    
C76   N2    1.381786 A    
C5    C24   1.478488 S    
C35   C59   1.410716 A    
C85   C91   1.406763 A    
N10   C130  1.447652 S    
O26   H21   1.008490 S    
C60   H12   1.083291 S    
C86   C92   1.413075 A    
C76   C120  1.465257 S    
C57   C69   1.395078 A    
C26   C34   1.423665 A    
C114  O44   1.398693 S    
C118  O51   1.215925 D    
O38   H27   1.011731 S    
O2    Cu2   1.971917 S    
C48   C56   1.413388 A    
C73   C117  1.468545 S    
C51   C68   1.415772 A    
C124  O64   1.398100 S    
O32   H24   1.010416 S    
C77   C121  1.468547 S    
C109  O34   1.398643 S    
C55   C72   1.415765 A    
C22   C30   1.422681 A    
C77   C87   1.437679 A    
O4    C1    1.314050 A    
C13   C53   1.412886 A    
O15   C8    1.308027 A    
O62   H39   1.013968 S    
C28   C104  1.463063 S    
C43   C51   1.416522 A    
C110  O35   1.223066 D    
O16   C7    1.315141 A    
C79   N3    1.375713 A    
C12   C20   1.401060 A    
N5    C125  1.447176 S    
C9    C17   1.401535 A    
C37   C61   1.404372 A    
C15   C55   1.400568 A    
C74   C118  1.470051 S    
C47   C55   1.416512 A    
C17   C25   1.406319 A    
N8    H53   1.031144 S    
O56   H36   1.012476 S    
C52   C67   1.408679 A    
C15   C23   1.399243 A    
O9    Cu3   1.971917 S    
C19   C27   1.415876 A    
C89   C90   1.433199 A    
C117  O50   1.398089 S    
C132  H70   1.109051 S    
O10   Cu4   1.971917 S    
C28   C36   1.402370 A    
C117  O49   1.220279 D    
C43   C48   1.408707 A    
C86   C98   1.431768 A    
C42   C45   1.408768 A    
C12   H4    1.082946 S    
O5    Cu2   1.958575 S    
Cu2   N2    2.042195 S    
C81   C89   1.406750 A    
O2    C2    1.313862 A    
Cu1   N1    2.042195 S    
C63   C67   1.402095 A    
C67   C111  1.479376 S    
O4    Cu2   1.960946 S    
N10   H61   1.030602 S    
C16   H8    1.082946 S    
C94   C95   1.416426 A    
O5    C3    1.299402 A    
Cu3   N3    2.042195 S    
O36   H26   1.013718 S    
C120  O56   1.398100 S    
O6    C4    1.306432 A    
O11   C6    1.306862 A    
O1    C1    1.306013 A    
C36   C60   1.406334 A    
C62   C66   1.406121 A    
C75   N1    1.375715 A    
C128  H56   1.110781 S    
C13   C21   1.401533 A    
C14   H6    1.083025 S    
C38   C62   1.413302 A    
O18   H17   1.008491 S    
C120  O55   1.220281 D    
N12   H69   1.031156 S    
O40   H28   1.013828 S    
C10   H2    1.083029 S    
O34   H25   1.013851 S    
C129  H59   1.111532 S    
C101  O17   1.214762 D    
C84   C90   1.411640 A    
N12   C132  1.450762 S    
C9    H1    1.080989 S    
C4    C17   1.470145 S    
C40   C64   1.406348 A    
O9    C5    1.306011 A    
O15   Cu4   1.965615 S    
C70   C114  1.486051 S    
C106  O27   1.221944 D    
C23   C31   1.415871 A    
C11   H3    1.080950 S    
C79   C85   1.427644 A    
C11   C51   1.400580 A    
C118  O52   1.398251 S    
C34   C58   1.413306 A    
C11   C19   1.399260 A    
C125  H44   1.111009 S    
C13   H5    1.080988 S    
C44   C52   1.413372 A    
O6    Cu1   1.958572 S    
C88   C100  1.429125 A    
C115  O45   1.222768 D    
C87   C91   1.408094 A    
C94   N6    1.425000 S    
C18   C26   1.422686 A    
O28   H22   1.014107 S    
C127  H51   1.111119 S    
C98   C99   1.416431 A    
C49   C66   1.415129 A    
C56   C71   1.408700 A    
C109  O33   1.223408 D    
O44   H30   1.013711 S    
C71   C115  1.479386 S    
C80   N4    1.381798 A    
C75   C119  1.464234 S    
C64   H16   1.083297 S    
C31   C39   1.414545 A    
C40   C48   1.400260 A    
C123  O62   1.397778 S    
C114  O43   1.223053 D    
C130  H64   1.111388 S    
C100  N12   1.425842 S    
Cu3   Cu4   2.718089 S    
C69   C113  1.492545 S    
C99   N11   1.426928 S    
C14   C54   1.392670 A    
N6    C126  1.447652 S    
C81   C93   1.416128 A    
C104  O23   1.220509 D    
C126  H46   1.110235 S    
C50   C65   1.412838 A    
O7    Cu2   1.965615 S    
C82   C90   1.413086 A    
C6    C23   1.481442 S    
C78   N4    1.385789 A    
C72   C116  1.487124 S    
C91   C92   1.433200 A    
C97   N9    1.430331 S    
C113  O42   1.398642 S    
C78   C122  1.470073 S    
N11   H65   1.029685 S    
