data_mof_unit_25199.cif
_audit_creation_date              2012-12-10T17:52:28-0500
_audit_creation_method            fapswitch 2.2
_symmetry_space_group_name_H-M    P1
_symmetry_Int_Tables_number       1
_space_group_crystal_system       triclinic
_cell_length_a                    19.139117
_cell_length_b                    10.769263
_cell_length_c                    9.876198
_cell_angle_alpha                 87.666499
_cell_angle_beta                  89.90966
_cell_angle_gamma                 92.185639
_cell_volume                      2032.4468154

loop_
_atom_site_label
_atom_site_type_symbol
_atom_type_description
_atom_site_fract_x
_atom_site_fract_y
_atom_site_fract_z
_atom_type_partial_charge
C1    C     C_R   0.502823 0.259756 0.503751 0.882695
C2    C     C_R   0.855105 0.562966 0.495512 0.085449
C3    C     C_R   0.484190 0.096587 0.762405 -0.178495
C4    C     C_R   0.365462 0.501802 0.500050 0.824716
C5    C     C_R   0.451155 0.026309 0.867382 -0.117123
C6    C     C_R   0.418077 0.912881 0.841224 -0.131675
C7    C     C_R   0.424558 0.863981 0.713715 -0.133661
C8    C     C_R   0.464649 0.928800 0.610628 0.072692
C9    C     C_R   0.485204 0.053037 0.628716 0.085253
C10   C     C_R   0.505707 0.126227 0.511526 -0.164052
C11   C     C_R   0.519683 0.070868 0.389925 -0.232772
C12   C     C_R   0.290244 0.516724 0.499370 -0.032184
C13   C     C_R   0.513097 0.944839 0.379775 0.159482
C14   C     C_R   0.487228 0.872038 0.492093 -0.188741
C15   C     C_R   0.403007 0.345091 0.146580 -0.186165
C16   C     C_R   0.495319 0.739609 0.497070 0.911599
C17   C     C_R   0.353622 0.272492 0.079443 -0.276229
C18   C     C_R   0.352643 0.272010 0.938582 0.126104
C19   C     C_R   0.403345 0.345332 0.865998 -0.200133
C20   C     C_R   0.451864 0.424395 0.930987 0.112659
C21   C     C_R   0.451754 0.424556 0.075565 0.175262
C22   C     C_R   0.547558 0.568960 0.068252 -0.086230
C23   C     C_R   0.931243 0.577529 0.494232 0.291783
C24   C     C_R   0.547072 0.570073 0.924919 -0.092635
C25   C     C_R   0.634647 0.502425 0.499741 0.876777
C26   C     C_R   0.255478 0.541888 0.619665 -0.222291
C27   C     C_R   0.184585 0.563926 0.617548 -0.159027
C28   C     C_R   0.147652 0.561186 0.495085 0.090104
C29   C     C_R   0.182593 0.536212 0.374789 -0.164614
C30   C     C_R   0.253418 0.513838 0.376986 -0.192397
C31   C     C_3   0.297542 0.189264 0.872438 -0.408900
C32   C     C_3   0.298175 0.192687 0.716649 -0.364134
C33   C     C_3   0.240497 0.107172 0.661677 -0.846989
C34   C     C_R   0.072219 0.576438 0.494003 0.286151
C35   C     C_R   0.818752 0.552968 0.619159 -0.157815
C36   C     C_R   0.746942 0.530266 0.620731 -0.189510
C37   C     C_R   0.710572 0.517700 0.498671 -0.035743
C38   C     C_R   0.746797 0.528146 0.375030 -0.182017
C39   C     C_R   0.818586 0.550789 0.373447 -0.157153
H1    H     H_    0.283058 0.545548 0.715220 0.160896
H2    H     H_    0.158809 0.582542 0.711868 0.149607
H3    H     H_    0.585422 0.627426 0.868175 0.155602
H4    H     H_    0.155236 0.532573 0.279060 0.149861
H5    H     H_    0.279287 0.494965 0.282783 0.160619
H6    H     H_    0.845703 0.561394 0.714861 0.151394
H7    H     H_    0.719974 0.523584 0.717418 0.155988
H8    H     H_    0.719733 0.519817 0.279388 0.156906
H9    H     H_    0.845380 0.557689 0.276625 0.151311
H10   H     H_    0.537126 0.126157 0.301191 0.195943
H11   H     H_    0.248047 0.009474 0.697508 0.261615
H12   H     H_    0.510966 0.181331 0.790549 0.180826
H13   H     H_    0.188416 0.136419 0.695222 0.265108
H14   H     H_    0.242192 0.111996 0.549179 0.248602
H15   H     H_    0.290056 0.288874 0.676911 0.227804
H16   H     H_    0.349024 0.161789 0.678901 0.230193
H17   H     H_    0.304197 0.091838 0.910406 0.206583
H18   H     H_    0.245326 0.217599 0.906704 0.205881
H19   H     H_    0.449904 0.061371 0.968502 0.168527
H20   H     H_    0.389513 0.860818 0.920895 0.145823
H21   H     H_    0.398721 0.774788 0.696900 0.151535
H22   H     H_    0.587007 0.623759 0.119596 0.169427
H23   H     H_    0.401725 0.334564 0.254070 0.212808
H24   H     H_    0.316417 0.214205 0.138390 0.153758
H25   H     H_    0.405934 0.336188 0.759835 0.209225
I1    I     I_    0.545127 0.882977 0.187710 -0.429892
N1    N     N_R   0.036339 0.573987 0.375916 -0.179015
N2    N     N_R   0.967063 0.574541 0.376028 -0.177721
N3    N     N_R   0.967204 0.583538 0.612039 -0.177885
N4    N     N_R   0.036505 0.583050 0.611924 -0.179094
N5    N     N_R   0.499340 0.498800 0.142780 -0.117801
N6    N     N_R   0.499320 0.498720 0.857170 -0.123693
O1    O     O_R   0.500000 0.316780 0.614690 -0.654639
O2    O     O_R   0.499990 0.316750 0.385360 -0.636264
O3    O     O_R   0.398140 0.500000 0.614700 -0.650756
O4    O     O_R   0.398130 0.499970 0.385370 -0.633989
O5    O     O_R   0.500010 0.683250 0.614640 -0.617685
O6    O     O_R   0.500000 0.683220 0.385310 -0.576056
O7    O     O_R   0.601870 0.500030 0.614630 -0.620680
O8    O     O_R   0.601860 0.500000 0.385300 -0.616661
Zn1   Zn    Zn3+2 0.500000 0.500020 0.653130 0.927895
Zn2   Zn    Zn3+2 0.500000 0.499980 0.346870 0.958054

loop_
_geom_bond_atom_site_label_1
_geom_bond_atom_site_label_2
_ccdc_geom_bond_type
C2    C35   A    
C8    C9    A    
C24   H3    S    
C35   C36   A    
C34   N1    A    
C7    C8    A    
C13   I1    S    
C33   H13   S    
C26   C27   A    
C29   C30   A    
C5    H19   S    
C3    C9    A    
C36   C37   A    
C18   C19   A    
C5    C6    A    
O7    Zn1   S    
C23   N2    A    
C16   O6    A    
O2    Zn2   S    
N5    Zn2   S    
C4    O4    A    
C25   C37   S    
C2    C39   A    
C19   C20   A    
N3    N4    A    
C20   N6    A    
C36   H7    S    
C31   H17   S    
C4    C12   S    
C9    C10   A    
C32   H16   S    
C4    O3    A    
N1    N2    A    
C28   C34   S    
O3    Zn1   S    
C13   C14   A    
C29   H4    S    
C30   H5    S    
C32   H15   S    
N6    Zn1   S    
C33   H14   S    
C1    O1    A    
C25   O7    A    
O8    Zn2   S    
C3    H12   S    
O4    Zn2   S    
C33   H11   S    
C12   C26   A    
C23   N3    A    
C37   C38   A    
C11   H10   S    
C27   H2    S    
C31   C32   S    
O6    Zn2   S    
C19   H25   S    
C17   C18   A    
C34   N4    A    
C38   H8    S    
C14   C16   S    
C35   H6    S    
C7    H21   S    
C2    C23   S    
C15   C17   A    
C28   C29   A    
C8    C14   A    
C12   C30   A    
C16   O5    A    
C6    H20   S    
C1    C10   S    
O5    Zn1   S    
C3    C5    A    
C25   O8    A    
C6    C7    A    
C21   N5    A    
C1    O2    A    
C32   C33   S    
C31   H18   S    
O1    Zn1   S    
C17   H24   S    
C22   H22   S    
C11   C13   A    
C26   H1    S    
C38   C39   A    
C15   H23   S    
C22   C24   A    
C10   C11   A    
C15   C21   A    
C20   C21   A    
C27   C28   A    
C18   C31   S    
C22   N5    A    
C24   N6    A    
C39   H9    S    
