data_mof_unit_14731.cif
_audit_creation_date              2012-12-10T18:33:37-0500
_audit_creation_method            fapswitch 2.2
_symmetry_space_group_name_H-M    P1
_symmetry_Int_Tables_number       1
_space_group_crystal_system       triclinic
_cell_length_a                    10.505005
_cell_length_b                    14.994624
_cell_length_c                    15.568692
_cell_angle_alpha                 81.768806
_cell_angle_beta                  89.396735
_cell_angle_gamma                 104.157916
_cell_volume                      2350.72083217

loop_
_atom_site_label
_atom_site_type_symbol
_atom_type_description
_atom_site_fract_x
_atom_site_fract_y
_atom_site_fract_z
_atom_type_partial_charge
C1    C     C_R   0.480631 0.441343 0.661703 0.856794
C2    C     C_R   0.504401 0.486927 0.044866 0.011200
C3    C     C_R   0.494684 0.392121 0.077534 -0.225337
C4    C     C_R   0.507382 0.608008 0.922379 -0.225359
C5    C     C_R   0.496037 0.325508 0.023067 0.139552
C6    C     C_R   0.505908 0.674628 0.976808 0.139549
C7    C     C_R   0.710486 0.843537 0.629277 0.059975
C8    C     C_R   0.290492 0.156756 0.369962 0.059684
C9    C     C_R   0.669461 0.753018 0.609431 0.000780
C10   C     C_R   0.331054 0.247144 0.390190 0.000798
C11   C     C_R   0.512051 0.793667 0.513671 -0.090709
C12   C     C_R   0.519415 0.558656 0.338299 0.856769
C13   C     C_R   0.487882 0.206297 0.486347 -0.090695
C14   C     C_R   0.544620 0.885892 0.530699 -0.022439
C15   C     C_R   0.455985 0.114271 0.468782 -0.022403
C16   C     C_R   0.742326 0.500404 0.500092 0.856625
C17   C     C_R   0.257673 0.499596 0.499908 0.856635
C18   C     C_R   0.647232 0.911028 0.588519 0.104835
C19   C     C_R   0.353747 0.089253 0.410685 0.104810
C20   C     C_R   0.480130 0.953508 0.491083 0.100350
C21   C     C_R   0.520739 0.046720 0.508176 0.100337
C22   C     C_R   0.625328 0.069629 0.563739 -0.235900
C23   C     C_R   0.461807 0.465099 0.811853 -0.250434
C24   C     C_R   0.375983 0.930728 0.435158 -0.235837
C25   C     C_R   0.685747 0.003417 0.603380 -0.225726
C26   C     C_R   0.315662 0.996974 0.395468 -0.225702
C27   C     C_3   0.929877 0.417409 0.482655 -0.135812
C28   C     C_3   0.070121 0.582591 0.517347 -0.135849
C29   C     C_3   0.016861 0.431429 0.561256 -0.180931
C30   C     C_3   0.983137 0.568571 0.438746 -0.180945
C31   C     C_3   0.122274 0.499627 0.499888 0.031347
C32   C     C_3   0.877724 0.500372 0.500114 0.031341
C33   C     C_3   0.037980 0.485818 0.421329 -0.181858
C34   C     C_R   0.539127 0.534963 0.188196 -0.250426
C35   C     C_3   0.962019 0.514182 0.578674 -0.181862
C36   C     C_R   0.473108 0.405145 0.753963 -0.057687
C37   C     C_R   0.527317 0.594864 0.246032 -0.057613
C38   C     C_R   0.491858 0.288693 0.873627 -0.217555
C39   C     C_R   0.509146 0.711350 0.126253 -0.217520
C40   C     C_R   0.486699 0.316055 0.784703 -0.191968
C41   C     C_R   0.513778 0.683946 0.215212 -0.192007
C42   C     C_3   0.820728 0.869261 0.691388 -0.433403
C43   C     C_3   0.876463 0.789485 0.734414 -0.895520
C44   C     C_3   0.180818 0.131197 0.307417 -0.433365
C45   C     C_R   0.483880 0.444311 0.899845 0.085544
C46   C     C_3   0.125215 0.211027 0.264365 -0.895264
C47   C     C_3   0.499233 0.225843 0.059987 -0.414075
C48   C     C_3   0.510039 0.204533 0.158429 -0.884110
C49   C     C_3   0.502938 0.774324 0.939830 -0.414082
C50   C     C_3   0.492983 0.795739 0.841320 -0.884116
C51   C     C_R   0.517595 0.555781 0.100118 0.085543
C52   C     C_R   0.491636 0.352222 0.932669 0.099842
C53   C     C_R   0.509849 0.647867 0.067235 0.099852
C54   C     C_R   0.497421 0.513188 0.955083 0.011153
H1    H     H_    0.035209 0.375589 0.610915 0.134208
H2    H     H_    0.130943 0.650172 0.531463 0.143041
H3    H     H_    0.073513 0.474072 0.357482 0.133823
H4    H     H_    0.926484 0.525929 0.642520 0.133854
H5    H     H_    0.565490 0.471752 0.214158 0.152423
H6    H     H_    0.435391 0.528335 0.786019 0.152529
H7    H     H_    0.506030 0.731988 0.259616 0.153053
H8    H     H_    0.494090 0.267975 0.740262 0.153077
H9    H     H_    0.498831 0.218261 0.894769 0.131040
H10   H     H_    0.502156 0.781769 0.105059 0.131038
H11   H     H_    0.482738 0.368221 0.145994 0.164786
H12   H     H_    0.964789 0.624410 0.389088 0.134241
H13   H     H_    0.519583 0.631872 0.853909 0.164776
H14   H     H_    0.764596 0.026628 0.645322 0.139792
H15   H     H_    0.237199 0.973867 0.353219 0.139776
H16   H     H_    0.797894 0.734448 0.772802 0.257064
H17   H     H_    0.923091 0.759763 0.684741 0.257893
H18   H     H_    0.952943 0.816418 0.779397 0.258893
H19   H     H_    0.903306 0.922912 0.655223 0.217162
H20   H     H_    0.783664 0.899975 0.744406 0.212683
H21   H     H_    0.078096 0.240517 0.313983 0.257816
H22   H     H_    0.203976 0.266209 0.226308 0.257242
H23   H     H_    0.559185 0.231379 0.531823 0.134998
H24   H     H_    0.049152 0.184222 0.219072 0.258837
H25   H     H_    0.218423 0.100749 0.254408 0.212710
H26   H     H_    0.098078 0.077379 0.343224 0.217135
H27   H     H_    0.600261 0.250545 0.179550 0.262573
H28   H     H_    0.422047 0.212985 0.193115 0.266104
H29   H     H_    0.515776 0.131259 0.176282 0.252937
H30   H     H_    0.408778 0.177361 0.042023 0.206073
H31   H     H_    0.585592 0.209828 0.029555 0.205635
H32   H     H_    0.581201 0.787183 0.806982 0.266169
H33   H     H_    0.402910 0.749856 0.819876 0.262553
H34   H     H_    0.440117 0.768351 0.468664 0.135084
H35   H     H_    0.487520 0.869065 0.823393 0.252912
H36   H     H_    0.416332 0.790331 0.969946 0.205637
H37   H     H_    0.593201 0.822764 0.958105 0.206100
H38   H     H_    0.286773 0.301828 0.362482 0.158022
H39   H     H_    0.713823 0.698364 0.637099 0.157998
H40   H     H_    0.664900 0.138820 0.578080 0.133056
H41   H     H_    0.336884 0.861674 0.420367 0.132974
H42   H     H_    0.869055 0.349828 0.468540 0.143035
N1    N     N_R   0.574200 0.731700 0.552740 -0.122918
N2    N     N_R   0.425800 0.268300 0.447260 -0.122891
O1    O     O_R   0.462600 0.383110 0.605620 -0.615780
O2    O     O_R   0.537400 0.616890 0.394380 -0.615695
O3    O     O_R   0.510210 0.531900 0.639510 -0.621442
O4    O     O_R   0.489790 0.468100 0.360490 -0.621524
O5    O     O_R   0.662240 0.425610 0.483080 -0.626639
O6    O     O_R   0.337760 0.574390 0.516920 -0.626729
O7    O     O_R   0.709860 0.574400 0.516970 -0.621773
O8    O     O_R   0.290140 0.425600 0.483030 -0.621695
Zn1   Zn    Zn3+2 0.468210 0.400660 0.477370 0.929760
Zn2   Zn    Zn3+2 0.531790 0.599340 0.522630 0.929768

loop_
_geom_bond_atom_site_label_1
_geom_bond_atom_site_label_2
_ccdc_geom_bond_type
C38   C40   A    
C43   H18   S    
C23   C45   A    
C1    O3    A    
C27   C29   S    
C34   C37   A    
C14   C18   A    
C41   H7    S    
C49   H36   S    
C1    O1    A    
C46   H22   S    
C28   H2    S    
C39   C41   A    
C27   C33   S    
C15   C19   A    
C39   H10   S    
C5    C47   S    
C34   C51   A    
C35   H4    S    
C47   H31   S    
C17   O6    A    
C24   C26   A    
C11   C14   A    
C38   C52   A    
O8    Zn1   S    
C12   C37   S    
C40   H8    S    
C48   H27   S    
C7    C42   S    
C13   N2    A    
C10   N2    A    
C19   C26   A    
C16   O5    A    
N1    Zn2   S    
C20   C24   A    
C28   C35   S    
C9    N1    A    
C22   C25   A    
C33   H3    S    
C31   C33   S    
C5    C52   A    
O3    Zn2   S    
C10   H38   S    
C21   C22   A    
C22   H40   S    
C27   H42   S    
C3    H11   S    
C18   C25   A    
C49   H37   S    
C46   H21   S    
C44   C46   S    
C28   C31   S    
C23   H6    S    
O7    Zn2   S    
C13   H23   S    
C42   H20   S    
C8    C19   A    
O2    Zn2   S    
C32   C35   S    
C14   C20   A    
C44   H26   S    
C4    C6    A    
C2    C54   A    
C24   H41   S    
C46   H24   S    
C29   H1    S    
C45   C52   A    
N2    Zn1   S    
C51   C53   A    
C12   O4    A    
C50   H35   S    
C47   C48   S    
C36   C40   A    
C11   H34   S    
C7    C18   A    
O4    Zn1   S    
C47   H30   S    
C30   H12   S    
C16   O7    A    
C50   H33   S    
C45   C54   A    
C23   C36   A    
C43   H16   S    
C13   C15   A    
C34   H5    S    
C17   C31   S    
C42   C43   S    
C6    C53   A    
C9    H39   S    
O6    Zn2   S    
C38   H9    S    
C7    C9    A    
C42   H19   S    
C43   H17   S    
C30   C33   S    
C4    C54   A    
C27   C32   S    
C44   H25   S    
C8    C44   S    
C3    C5    A    
C4    H13   S    
C25   H14   S    
C16   C32   S    
O1    Zn1   S    
C29   C35   S    
C48   H29   S    
C11   N1    A    
C28   C30   S    
C2    C3    A    
C29   C31   S    
C17   O8    A    
C30   C32   S    
C39   C53   A    
C48   H28   S    
C6    C49   S    
C37   C41   A    
C12   O2    A    
C2    C51   A    
C50   H32   S    
C15   C21   A    
C20   C21   A    
C8    C10   A    
C49   C50   S    
C26   H15   S    
O5    Zn1   S    
C1    C36   S    
