data_mof_unit_65664.cif
_audit_creation_date              2012-12-10T17:52:12-0500
_audit_creation_method            fapswitch 2.2
_symmetry_space_group_name_H-M    P1
_symmetry_Int_Tables_number       1
_space_group_crystal_system       triclinic
_cell_length_a                    27.787375
_cell_length_b                    27.770516
_cell_length_c                    22.806446
_cell_angle_alpha                 89.999447
_cell_angle_beta                  127.534101
_cell_angle_gamma                 90.000209
_cell_volume                      13955.8816338

loop_
_atom_site_label
_atom_site_type_symbol
_atom_type_description
_atom_site_fract_x
_atom_site_fract_y
_atom_site_fract_z
_atom_type_partial_charge
C1    C     C_R   0.400128 0.749988 0.300226 0.821429
C2    C     C_3   0.222702 0.273778 0.024309 0.045770
C3    C     C_1   0.639038 0.250606 0.778924 -0.156586
C4    C     C_1   0.139395 0.250065 0.778912 -0.143198
C5    C     C_1   0.860252 0.749425 0.221076 -0.156171
C6    C     C_1   0.860606 0.250064 0.221089 -0.143192
C7    C     C_1   0.139746 0.749420 0.778923 -0.156121
C8    C     C_3   0.673067 0.663895 0.941598 -0.902200
C9    C     C_3   0.362028 0.296293 0.052359 -0.894125
C10   C     C_3   0.328187 0.664609 0.058406 -0.902235
C11   C     C_3   0.638298 0.296878 0.947648 -0.894039
C12   C     C_3   0.134932 0.206970 0.942944 -0.902255
C13   C     C_3   0.217734 0.750085 0.024649 0.081615
C14   C     C_3   0.821369 0.834046 0.053116 -0.894386
C15   C     C_3   0.864778 0.206372 0.057068 -0.902283
C16   C     C_3   0.177359 0.833363 0.946882 -0.894338
C17   C     C_3   0.245400 0.132705 0.064225 0.102450
C18   C     C_3   0.247208 0.151830 0.128716 -0.375596
C19   C     C_3   0.209193 0.120505 0.141346 -0.956757
C20   C     C_3   0.684399 0.858552 0.997349 0.095524
C21   C     C_3   0.626327 0.882228 0.976725 -0.321738
C22   C     C_3   0.640231 0.921740 0.031570 -0.958798
C23   C     C_3   0.753813 0.132442 0.935793 0.102529
C24   C     C_3   0.777457 0.273494 0.975685 0.045730
C25   C     C_3   0.752125 0.151357 0.871295 -0.375644
C26   C     C_3   0.789931 0.119735 0.858666 -0.956773
C27   C     C_3   0.313945 0.859485 0.002588 0.095513
C28   C     C_3   0.371667 0.883806 0.023122 -0.321741
C29   C     C_3   0.357179 0.923497 0.968252 -0.958730
C30   C     C_3   0.816131 0.629314 0.060318 0.101958
C31   C     C_3   0.811636 0.626063 0.124042 -0.373139
C32   C     C_3   0.796399 0.574916 0.132258 -0.956193
C33   C     C_3   0.256675 0.377941 0.993123 0.094957
C34   C     C_3   0.221194 0.425219 0.968294 -0.313058
C35   C     C_3   0.276393 0.227234 0.975443 0.080725
C36   C     C_3   0.260259 0.466695 0.019731 -0.985661
C37   C     C_3   0.185639 0.628772 0.939761 0.101938
C38   C     C_3   0.190159 0.626006 0.876027 -0.373129
C39   C     C_3   0.206107 0.575129 0.867830 -0.956353
C40   C     C_3   0.744201 0.378001 0.006765 0.095018
C41   C     C_3   0.780100 0.425068 0.031426 -0.313035
C42   C     C_3   0.741388 0.466620 0.979886 -0.985576
C43   C     C_3   0.192677 0.300068 0.052906 -0.851923
C44   C     C_3   0.819073 0.753285 0.946365 -0.807196
C45   C     C_3   0.807664 0.299476 0.947089 -0.852076
C46   C     C_3   0.716077 0.745015 0.024425 0.047671
C47   C     C_3   0.180876 0.751856 0.053651 -0.806906
C48   C     C_3   0.678973 0.741507 0.053040 -0.860745
C49   C     C_3   0.305723 0.200283 0.946527 -0.803245
C50   C     C_3   0.321107 0.742946 0.946948 -0.860611
C51   C     C_3   0.693941 0.200839 0.053478 -0.803263
C52   C     C_3   0.723454 0.227488 0.024561 0.080721
C53   C     C_3   0.283961 0.745692 0.975567 0.047623
C54   C     C_3   0.712279 0.747933 0.926367 -0.024463
C55   C     C_3   0.287124 0.250906 0.073603 -0.050284
C56   C     C_3   0.287733 0.747945 0.073632 -0.024497
C57   C     C_R   0.599796 0.250108 0.699782 0.821115
C58   C     C_3   0.712883 0.250891 0.926396 -0.050343
C59   C     C_3   0.212531 0.250125 0.926392 -0.022165
C60   C     C_3   0.786457 0.748167 0.073630 -0.050700
C61   C     C_3   0.787469 0.250116 0.073609 -0.022233
C62   C     C_3   0.213540 0.748159 0.926369 -0.050664
C63   C     C_1   0.672072 0.748912 0.845420 0.051928
C64   C     C_1   0.327804 0.250976 0.154554 0.021955
C65   C     C_1   0.327932 0.748921 0.154579 0.051908
C66   C     C_1   0.672204 0.250964 0.845445 0.021930
C67   C     C_1   0.172456 0.250133 0.845429 0.052098
C68   C     C_R   0.599871 0.749988 0.699774 0.821410
C69   C     C_1   0.826921 0.748799 0.154564 0.021931
C70   C     C_1   0.827544 0.250130 0.154571 0.052076
C71   C     C_1   0.173076 0.748790 0.845436 0.021992
C72   C     C_1   0.318893 0.750010 0.499993 -0.144906
C73   C     C_1   0.681113 0.249983 0.500019 -0.145837
C74   C     C_1   0.681107 0.750010 0.500007 -0.144924
C75   C     C_1   0.318887 0.249983 0.499980 -0.145833
C76   C     C_1   0.818895 0.250006 0.499998 -0.145493
C77   C     C_1   0.181110 0.749988 0.500012 -0.145427
C78   C     C_1   0.181105 0.250007 0.500001 -0.145488
C79   C     C_R   0.400204 0.250109 0.300218 0.821097
C80   C     C_1   0.818891 0.749988 0.499989 -0.145437
C81   C     C_1   0.275452 0.750003 0.500000 0.002199
C82   C     C_1   0.724556 0.249989 0.500017 0.001576
C83   C     C_1   0.724548 0.750003 0.500001 0.002183
C84   C     C_1   0.275444 0.249989 0.499983 0.001584
C85   C     C_1   0.775456 0.249998 0.500008 0.001664
C86   C     C_1   0.224551 0.749994 0.500007 0.002146
C87   C     C_1   0.224544 0.249998 0.499992 0.001672
C88   C     C_1   0.775449 0.749994 0.499993 0.002132
C89   C     C_1   0.500000 0.931105 0.500000 -0.143707
C90   C     C_R   0.900110 0.250029 0.300227 0.822422
C91   C     C_1   0.500000 0.068897 0.500000 -0.143970
C92   C     C_1   0.000000 0.431105 0.499999 -0.144065
C93   C     C_1   1.000000 0.568897 0.500000 -0.145732
C94   C     C_1   0.500000 0.974552 0.500000 0.002442
C95   C     C_1   0.500000 0.025450 0.500000 0.002422
C96   C     C_1   1.000000 0.474552 0.499999 0.001830
C97   C     C_1   1.000000 0.525450 0.500000 0.001167
C98   C     C_R   0.629367 0.750015 0.500012 0.821161
C99   C     C_R   0.370630 0.249982 0.499983 0.821085
C100  C     C_R   0.370633 0.750015 0.499988 0.821179
C101  C     C_R   0.099920 0.749922 0.699782 0.822907
C102  C     C_R   0.629370 0.249982 0.500017 0.821067
C103  C     C_R   0.129367 0.250015 0.500011 0.821234
C104  C     C_R   0.870632 0.749983 0.499986 0.821736
C105  C     C_R   0.870633 0.250015 0.499989 0.821218
C106  C     C_R   0.129368 0.749983 0.500014 0.821758
C107  C     C_R   0.500000 0.879369 0.500000 0.821199
C108  C     C_R   0.500000 0.120631 0.500000 0.820691
C109  C     C_R   0.000000 0.379369 0.500000 0.822552
C110  C     C_R   1.000000 0.620631 0.500000 0.819939
C111  C     C_R   0.500000 0.620649 0.500000 0.821171
C112  C     C_R   0.099890 0.250029 0.699773 0.822430
C113  C     C_R   0.500000 0.379350 0.500000 0.821138
C114  C     C_R   0.000000 0.120649 0.500000 0.820621
C115  C     C_R   1.000000 0.879351 0.500000 0.822105
C116  C     C_1   0.500000 0.568905 0.500000 -0.146479
C117  C     C_1   0.500000 0.431094 0.500000 -0.147510
C118  C     C_1   0.000000 0.068905 0.500000 -0.146526
C119  C     C_1   1.000000 0.931094 0.500000 -0.147329
C120  C     C_1   0.500000 0.525453 0.500000 0.000303
C121  C     C_1   0.500000 0.474546 0.500000 -0.000035
C122  C     C_1   0.000000 0.025453 0.500000 0.000358
C123  C     C_R   0.900080 0.749923 0.300218 0.822976
C124  C     C_1   1.000000 0.974546 0.500000 0.000276
C125  C     C_3   0.261756 0.205163 0.025192 0.494568
C126  C     C_3   0.712177 0.785696 0.975684 0.484042
C127  C     C_3   0.737944 0.205144 0.974817 0.494582
C128  C     C_3   0.287261 0.786069 0.024302 0.484083
C129  C     C_3   0.786666 0.709965 0.024621 0.494370
C130  C     C_3   0.237698 0.295648 0.974990 0.481900
C131  C     C_3   0.213908 0.709597 0.975389 0.494355
C132  C     C_3   0.762607 0.295640 0.024997 0.481993
C133  C     C_3   0.716237 0.706814 0.974835 0.025684
C134  C     C_3   0.782241 0.750753 0.975358 0.081714
C135  C     C_3   0.301802 0.272988 0.023867 0.036462
C136  C     C_3   0.284380 0.707128 0.025168 0.025705
C137  C     C_3   0.698353 0.273246 0.976126 0.036539
C138  C     C_3   0.197308 0.227850 0.975406 0.026049
C139  C     C_3   0.782109 0.788938 0.024412 0.037699
C140  C     C_3   0.802543 0.227566 0.024600 0.026106
C141  C     C_3   0.217286 0.788629 0.975582 0.037723
C142  C     C_1   0.639092 0.749540 0.778910 -0.142551
C143  C     C_1   0.360967 0.250613 0.221075 -0.156578
C144  C     C_1   0.360909 0.749544 0.221090 -0.142550
H1    H     H_    0.681508 0.640087 0.986025 0.245109
H2    H     H_    0.640810 0.311269 0.994832 0.246284
H3    H     H_    0.311820 0.708345 0.917462 0.238276
H4    H     H_    0.308768 0.772992 0.908083 0.232922
H5    H     H_    0.648254 0.188040 0.006306 0.256099
H6    H     H_    0.722371 0.169484 0.087053 0.241340
H7    H     H_    0.689520 0.225402 0.088337 0.233403
H8    H     H_    0.628148 0.326534 0.909041 0.226830
H9    H     H_    0.601327 0.269824 0.917698 0.262114
H10   H     H_    0.132672 0.195674 0.987853 0.244562
H11   H     H_    0.099739 0.234851 0.909111 0.262324
H12   H     H_    0.125569 0.175812 0.906915 0.236059
H13   H     H_    0.806969 0.858034 0.006094 0.246603
H14   H     H_    0.817031 0.853310 0.092292 0.228084
H15   H     H_    0.869589 0.823802 0.082470 0.259966
H16   H     H_    0.866963 0.194906 0.012162 0.244551
H17   H     H_    0.625538 0.676994 0.908559 0.260015
H18   H     H_    0.900159 0.234129 0.090897 0.262283
H19   H     H_    0.873933 0.175276 0.093102 0.236081
H20   H     H_    0.191406 0.857212 0.993903 0.246621
H21   H     H_    0.181402 0.852984 0.907703 0.227996
H22   H     H_    0.129294 0.822624 0.917532 0.259986
H23   H     H_    0.262079 0.094961 0.077311 0.169991
H24   H     H_    0.198637 0.130433 0.012074 0.142285
H25   H     H_    0.294915 0.152204 0.179935 0.236909
H26   H     H_    0.229227 0.189098 0.117101 0.222054
H27   H     H_    0.161103 0.120119 0.091027 0.264065
H28   H     H_    0.679023 0.643466 0.904608 0.238592
H29   H     H_    0.211192 0.135285 0.188029 0.269451
H30   H     H_    0.226959 0.083075 0.155180 0.267383
H31   H     H_    0.712876 0.886434 0.996930 0.157852
H32   H     H_    0.709638 0.843754 0.054426 0.136322
H33   H     H_    0.600981 0.898090 0.920447 0.236357
H34   H     H_    0.597185 0.854483 0.976127 0.228185
H35   H     H_    0.664465 0.906476 0.088019 0.266778
H36   H     H_    0.597156 0.938229 0.014933 0.271630
H37   H     H_    0.668665 0.950236 0.032328 0.267219
H38   H     H_    0.736883 0.094766 0.922715 0.170018
H39   H     H_    0.359631 0.310528 0.005180 0.246260
H40   H     H_    0.800562 0.130033 0.987941 0.142292
H41   H     H_    0.704421 0.151875 0.820078 0.236985
H42   H     H_    0.770352 0.188543 0.882901 0.222038
H43   H     H_    0.838020 0.119203 0.908982 0.264061
H44   H     H_    0.788023 0.134368 0.811975 0.269424
H45   H     H_    0.771922 0.082376 0.844847 0.267411
H46   H     H_    0.285118 0.886977 0.003053 0.157813
H47   H     H_    0.288857 0.844737 0.945503 0.136279
H48   H     H_    0.396849 0.899630 0.079406 0.236346
H49   H     H_    0.401155 0.856453 0.023670 0.228192
H50   H     H_    0.372380 0.326016 0.090958 0.226842
H51   H     H_    0.333100 0.908291 0.911794 0.266751
H52   H     H_    0.400011 0.940448 0.984822 0.271667
H53   H     H_    0.328399 0.951619 0.967548 0.267177
H54   H     H_    0.852034 0.603857 0.072530 0.170792
H55   H     H_    0.774311 0.616841 0.007127 0.143230
H56   H     H_    0.855621 0.637025 0.176463 0.243196
H57   H     H_    0.775820 0.650623 0.113973 0.220641
H58   H     H_    0.751988 0.563598 0.080797 0.265436
H59   H     H_    0.793566 0.573581 0.178737 0.270635
H60   H     H_    0.832146 0.549424 0.144084 0.269824
H61   H     H_    0.398805 0.269082 0.082324 0.262179
H62   H     H_    0.296733 0.382655 0.993831 0.157800
H63   H     H_    0.272503 0.369663 0.050178 0.135866
H64   H     H_    0.204878 0.434018 0.911311 0.233821
H65   H     H_    0.181062 0.421023 0.967603 0.228011
H66   H     H_    0.276376 0.459062 0.076900 0.269849
H67   H     H_    0.233008 0.500337 0.000205 0.266494
H68   H     H_    0.299992 0.472207 0.020007 0.266557
H69   H     H_    0.150124 0.602884 0.927594 0.170767
H70   H     H_    0.227648 0.616546 0.992961 0.143167
H71   H     H_    0.146018 0.636710 0.823607 0.243061
H72   H     H_    0.320087 0.640999 0.013983 0.245124
H73   H     H_    0.225622 0.650995 0.886074 0.220623
H74   H     H_    0.250664 0.564069 0.919302 0.265440
H75   H     H_    0.208972 0.574148 0.821365 0.270590
H76   H     H_    0.170708 0.549228 0.855993 0.269820
H77   H     H_    0.704227 0.383111 0.006129 0.157782
H78   H     H_    0.728215 0.369548 0.949693 0.135823
H79   H     H_    0.796543 0.434064 0.088402 0.233884
H80   H     H_    0.820164 0.420460 0.032073 0.228012
H81   H     H_    0.725136 0.458782 0.922712 0.269875
H82   H     H_    0.768945 0.500094 0.999268 0.266601
H83   H     H_    0.375517 0.678167 0.091422 0.260043
H84   H     H_    0.701748 0.472562 0.979674 0.266457
H85   H     H_    0.148829 0.315594 0.005705 0.257901
H86   H     H_    0.184298 0.274441 0.083113 0.238988
H87   H     H_    0.222616 0.329349 0.091113 0.232446
H88   H     H_    0.868167 0.754641 0.993500 0.256242
H89   H     H_    0.809753 0.720976 0.912268 0.242508
H90   H     H_    0.806357 0.786087 0.912003 0.231628
H91   H     H_    0.851609 0.314875 0.994289 0.257868
H92   H     H_    0.815887 0.273682 0.916908 0.238993
H93   H     H_    0.777921 0.328820 0.908860 0.232487
H94   H     H_    0.322559 0.643824 0.095421 0.238511
H95   H     H_    0.131764 0.752823 0.006522 0.256264
H96   H     H_    0.190687 0.719443 0.087765 0.242494
H97   H     H_    0.193098 0.784593 0.088000 0.231646
H98   H     H_    0.629909 0.743334 0.005915 0.257160
H99   H     H_    0.688773 0.706828 0.082528 0.238246
H100  H     H_    0.690864 0.771446 0.091901 0.232883
H101  H     H_    0.351325 0.187339 0.993701 0.256106
H102  H     H_    0.277083 0.169005 0.912963 0.241310
H103  H     H_    0.310303 0.224694 0.911659 0.233435
H104  H     H_    0.370140 0.745153 0.994068 0.257141
O1    O     O_3   0.500000 0.750010 0.500000 -0.482417
O2    O     O_R   0.110060 0.777860 0.664410 -0.637312
O3    O     O_R   0.110060 0.222140 0.664410 -0.637659
O4    O     O_R   0.889940 0.777860 0.335590 -0.637280
O5    O     O_R   0.584730 0.777880 0.456910 -0.632988
O6    O     O_R   0.415270 0.222120 0.543090 -0.632536
O7    O     O_R   0.415270 0.777880 0.543090 -0.632966
O8    O     O_R   0.584730 0.222120 0.456910 -0.632549
O9    O     O_R   0.084730 0.277880 0.456910 -0.633659
O10   O     O_R   0.915270 0.722120 0.543090 -0.631929
O11   O     O_R   0.915270 0.277880 0.543090 -0.633659
O12   O     O_3   0.500000 0.249990 0.500000 -0.481277
O13   O     O_R   0.084730 0.722120 0.456910 -0.631935
O14   O     O_R   0.506320 0.856290 0.456920 -0.632965
O15   O     O_R   0.493680 0.143710 0.543080 -0.633219
O16   O     O_R   0.493680 0.856290 0.543080 -0.632983
O17   O     O_R   0.506320 0.143710 0.456920 -0.633204
O18   O     O_R   0.006320 0.356290 0.456920 -0.632818
O19   O     O_R   0.993680 0.643710 0.543080 -0.634144
O20   O     O_R   0.993680 0.356290 0.543080 -0.632810
O21   O     O_R   0.006320 0.643710 0.456920 -0.634181
O22   O     O_R   0.450590 0.643730 0.456890 -0.633869
O23   O     O_3   1.000000 0.250010 0.500000 -0.482057
O24   O     O_R   0.549410 0.356270 0.543110 -0.634116
O25   O     O_R   0.549410 0.643730 0.543110 -0.633868
O26   O     O_R   0.450590 0.356270 0.456890 -0.634113
O27   O     O_R   0.950590 0.143730 0.456890 -0.634050
O28   O     O_R   0.049410 0.856270 0.543110 -0.634030
O29   O     O_R   0.049410 0.143730 0.543110 -0.634052
O30   O     O_R   0.950590 0.856270 0.456890 -0.634022
O31   O     O_R   0.627830 0.722150 0.543110 -0.633719
O32   O     O_R   0.372170 0.277850 0.456890 -0.634295
O33   O     O_R   0.372170 0.722150 0.456890 -0.633717
O34   O     O_3   0.000000 0.749990 0.500000 -0.480661
O35   O     O_R   0.627830 0.277850 0.543110 -0.634296
O36   O     O_R   0.127830 0.222150 0.543110 -0.633533
O37   O     O_R   0.872170 0.777850 0.456890 -0.634768
O38   O     O_R   0.872170 0.222150 0.456890 -0.633540
O39   O     O_R   0.127830 0.777850 0.543110 -0.634752
O40   O     O_R   0.445670 0.777870 0.335600 -0.628669
O41   O     O_R   0.554330 0.222130 0.664400 -0.630858
O42   O     O_R   0.554330 0.777870 0.664400 -0.628657
O43   O     O_R   0.445670 0.222130 0.335600 -0.630833
O44   O     O_R   0.945670 0.277870 0.335600 -0.630317
O45   O     O_R   0.389940 0.722140 0.335590 -0.638072
O46   O     O_R   0.054330 0.722130 0.664400 -0.633606
O47   O     O_R   0.054330 0.277870 0.664400 -0.630336
O48   O     O_R   0.945670 0.722130 0.335600 -0.633726
O49   O     O_3   0.284210 0.158641 0.055334 -0.634641
O50   O     O_3   0.668877 0.823178 0.944001 -0.630426
O51   O     O_3   0.715180 0.158670 0.944687 -0.634621
O52   O     O_3   0.329991 0.823964 0.055960 -0.630414
O53   O     O_3   0.833852 0.675548 0.054487 -0.633321
O54   O     O_3   0.219054 0.341638 0.941756 -0.632762
O55   O     O_3   0.167233 0.674709 0.945534 -0.633286
O56   O     O_R   0.610060 0.277860 0.664410 -0.637437
O57   O     O_3   0.781531 0.341627 0.058195 -0.632738
O58   O     O_R   0.610060 0.722140 0.664410 -0.638074
O59   O     O_R   0.389940 0.277860 0.335590 -0.637442
O60   O     O_R   0.889940 0.222140 0.335590 -0.637666
Zn1   Zn    Zn3+2 0.570600 0.710200 0.561580 0.981920
Zn2   Zn    Zn3+2 0.490980 0.210180 0.561570 0.985487
Zn3   Zn    Zn3+2 0.490980 0.789820 0.561570 0.987917
Zn4   Zn    Zn3+2 0.509020 0.210180 0.438430 0.985488
Zn5   Zn    Zn3+2 0.009020 0.289820 0.438430 0.987216
Zn6   Zn    Zn3+2 0.990980 0.710180 0.561570 0.983886
Zn7   Zn    Zn3+2 0.990980 0.289820 0.561570 0.987203
Zn8   Zn    Zn3+2 0.009020 0.710180 0.438430 0.983808
Zn9   Zn    Zn3+2 0.429400 0.289800 0.438420 0.980118
Zn10  Zn    Zn3+2 0.429400 0.710200 0.438420 0.981935
Zn11  Zn    Zn3+2 0.570600 0.289800 0.561580 0.980110
Zn12  Zn    Zn3+2 0.070600 0.210200 0.561580 0.981948
Zn13  Zn    Zn3+2 0.929400 0.789800 0.438420 0.980600
Zn14  Zn    Zn3+2 0.929400 0.210200 0.438420 0.981934
Zn15  Zn    Zn3+2 0.070600 0.789800 0.561580 0.980592
Zn16  Zn    Zn3+2 0.509020 0.789820 0.438430 0.987905

loop_
_geom_bond_atom_site_label_1
_geom_bond_atom_site_label_2
_ccdc_geom_bond_type
C50   H3    S    
C76   C105  S    
C39   H74   S    
C101  O2    A    
C113  O24   A    
C132  O57   S    
C23   O51   S    
C24   C140  S    
C14   H14   S    
C15   H19   S    
C22   H37   S    
C98   O31   A    
C92   C109  S    
C20   H31   S    
C54   C63   S    
C54   C134  S    
C61   C140  S    
C89   C94   T    
O28   Zn15  S    
C61   C132  S    
C8    H1    S    
O24   Zn11  S    
C74   C83   T    
C81   C86   S    
C93   C110  S    
O40   Zn16  S    
C46   C60   S    
C21   H33   S    
C83   C88   S    
O42   Zn3   S    
C21   C22   S    
O23   Zn5   S    
C109  O20   A    
C50   H104  S    
C27   O52   S    
O16   Zn3   S    
C110  O19   A    
C52   C127  S    
C114  O27   A    
C128  O52   S    
C18   H26   S    
C46   C48   S    
C50   C53   S    
C106  O39   A    
C2    C138  S    
C23   H38   S    
C65   C144  T    
O5    Zn16  S    
O3    Zn12  S    
C37   C38   S    
C53   C128  S    
C52   C137  S    
O34   Zn6   S    
O38   Zn14  S    
C25   H41   S    
C36   H68   S    
C129  C133  S    
O36   Zn12  S    
O6    Zn2   S    
O25   Zn1   S    
C37   H70   S    
O60   Zn14  S    
O12   Zn2   S    
C112  O47   A    
C102  O35   A    
C12   H10   S    
C22   H35   S    
O10   Zn6   S    
C42   H84   S    
C125  C138  S    
C82   C85   S    
C40   H77   S    
C52   C61   S    
C32   H59   S    
C19   H30   S    
C15   H16   S    
C80   C88   T    
C29   H51   S    
C63   C142  T    
C2    C55   S    
C56   C128  S    
C45   H93   S    
C20   C21   S    
C111  O22   A    
C76   C85   T    
C1    O40   A    
C78   C87   T    
O59   Zn9   S    
C45   H92   S    
C43   H86   S    
C74   C98   S    
O21   Zn8   S    
C16   H20   S    
O39   Zn15  S    
O34   Zn15  S    
C131  O55   S    
C77   C106  S    
C44   H90   S    
C38   C39   S    
C75   C84   T    
C92   C96   T    
C118  C122  T    
C35   C125  S    
C59   C67   S    
C26   H44   S    
C79   C143  S    
C51   H6    S    
C35   C49   S    
C68   C142  S    
C41   H79   S    
C57   O56   A    
O1    Zn16  S    
C13   C56   S    
C55   C64   S    
C108  O17   A    
C12   H12   S    
C56   C136  S    
C26   H45   S    
C33   C34   S    
C42   H82   S    
C44   C134  S    
C17   O49   S    
C126  C139  S    
O18   Zn5   S    
C48   H98   S    
C131  C136  S    
C35   C135  S    
C134  C139  S    
C13   C47   S    
O56   Zn11  S    
C59   C138  S    
C25   C26   S    
C6    C90   S    
O23   Zn14  S    
O12   Zn9   S    
C116  C120  T    
O7    Zn3   S    
C31   C32   S    
O8    Zn4   S    
C16   H21   S    
C75   C99   S    
C17   C18   S    
C104  O10   A    
C111  C116  S    
C47   H95   S    
C9    C135  S    
C115  O30   A    
C30   H54   S    
C115  C119  S    
C10   H83   S    
C113  C117  S    
C127  C140  S    
C122  C124  S    
C93   C97   T    
C103  O36   A    
C120  C121  S    
C112  O3    A    
C50   H4    S    
C33   H63   S    
O34   Zn13  S    
C38   H71   S    
C49   H102  S    
C17   H24   S    
C60   C129  S    
C68   O58   A    
C11   H2    S    
C64   C143  T    
C1    O45   A    
C14   H15   S    
C16   C141  S    
C123  O4    A    
C1    C144  S    
C44   H89   S    
C10   H72   S    
C20   H32   S    
C60   C69   S    
O14   Zn16  S    
C62   C71   S    
C34   C36   S    
C32   H58   S    
C41   H80   S    
C11   H9    S    
C127  O51   S    
C7    C101  S    
C62   C141  S    
C98   O5    A    
C49   H101  S    
O11   Zn7   S    
C61   C70   S    
O32   Zn9   S    
O48   Zn8   S    
C68   O42   A    
C41   C42   S    
C130  C135  S    
O2    Zn15  S    
C48   H100  S    
C54   C126  S    
O12   Zn11  S    
C129  O53   S    
C80   C104  S    
C28   C29   S    
C99   O6    A    
C48   H99   S    
C30   C31   S    
C43   H87   S    
O22   Zn10  S    
C8    C133  S    
C35   C59   S    
C18   C19   S    
C31   H56   S    
O29   Zn12  S    
C5    C69   T    
C114  O29   A    
C115  O28   A    
C55   C125  S    
C90   O44   A    
C100  O33   A    
C107  O16   A    
C27   H46   S    
C13   C141  S    
C128  C141  S    
C72   C81   T    
C78   C103  S    
C51   H7    S    
C130  O54   S    
C38   H73   S    
C37   H69   S    
O31   Zn1   S    
O58   Zn1   S    
C14   H13   S    
C22   H36   S    
C9    H50   S    
C34   H64   S    
C54   C133  S    
C51   C52   S    
C40   H78   S    
C32   H60   S    
C19   H29   S    
O30   Zn13  S    
C9    H39   S    
C110  O21   A    
C125  O49   S    
C24   C132  S    
C30   O53   S    
C89   C107  S    
C13   C131  S    
O26   Zn9   S    
C49   H103  S    
O37   Zn13  S    
C73   C102  S    
C3    C66   T    
C73   C82   T    
C57   O41   A    
C26   H43   S    
O1    Zn1   S    
C15   C140  S    
C18   H25   S    
C39   H75   S    
C6    C70   T    
O13   Zn8   S    
C91   C108  S    
C45   H91   S    
C10   C136  S    
O4    Zn13  S    
C43   H85   S    
C11   C137  S    
C46   C133  S    
C2    C130  S    
C107  O14   A    
O33   Zn10  S    
C94   C95   S    
C25   H42   S    
C36   H67   S    
C129  C134  S    
C51   H5    S    
C24   C58   S    
C132  C137  S    
C8    H28   S    
C79   O43   A    
C59   C130  S    
C15   H18   S    
C84   C87   S    
O45   Zn10  S    
C119  C124  T    
C108  O15   A    
C24   C45   S    
C19   H27   S    
C8    H17   S    
C7    C71   T    
C101  O46   A    
C90   O60   A    
C56   C65   S    
O27   Zn14  S    
C117  C121  T    
O46   Zn6   S    
O20   Zn7   S    
C58   C66   S    
C16   H22   S    
C20   O50   S    
O23   Zn12  S    
C100  O7    A    
C102  O8    A    
C104  O37   A    
O1    Zn3   S    
C111  O25   A    
C30   H55   S    
C4    C112  S    
C58   C127  S    
C105  O11   A    
C103  O9    A    
C53   C136  S    
C27   H47   S    
C123  O48   A    
C28   H48   S    
C33   H62   S    
C39   H76   S    
O44   Zn5   S    
C17   H23   S    
O1    Zn10  S    
C47   H97   S    
C91   C95   T    
C106  O13   A    
C34   H65   S    
O9    Zn5   S    
C99   O32   A    
C2    C43   S    
O47   Zn7   S    
C96   C97   S    
C28   H49   S    
O17   Zn4   S    
C114  C118  S    
O35   Zn11  S    
C58   C137  S    
C40   C41   S    
C77   C86   T    
C10   H94   S    
C29   H53   S    
C12   H11   S    
C40   O57   S    
O19   Zn6   S    
C3    C57   S    
C72   C100  S    
C42   H81   S    
O41   Zn2   S    
C21   H34   S    
O43   Zn4   S    
O23   Zn7   S    
C46   C126  S    
C109  O18   A    
C113  O26   A    
C4    C67   T    
C126  O50   S    
C37   O55   S    
C29   H52   S    
C5    C123  S    
C12   C138  S    
C105  O38   A    
C44   H88   S    
C23   H40   S    
C9    H61   S    
C33   O54   S    
C55   C135  S    
C23   C25   S    
C79   O59   A    
C31   H57   S    
C60   C139  S    
C47   H96   S    
C11   H8    S    
C14   C139  S    
C53   C62   S    
C27   C28   S    
O15   Zn2   S    
O34   Zn8   S    
O12   Zn4   S    
C62   C131  S    
C36   H66   S    
