data_mof_unit_59307.cif
_audit_creation_date              2012-12-10T17:31:10-0500
_audit_creation_method            fapswitch 2.2
_symmetry_space_group_name_H-M    P1
_symmetry_Int_Tables_number       1
_space_group_crystal_system       triclinic
_cell_length_a                    12.001777
_cell_length_b                    12.805558
_cell_length_c                    15.449053
_cell_angle_alpha                 86.878179
_cell_angle_beta                  115.35642
_cell_angle_gamma                 94.715327
_cell_volume                      2137.86327133

loop_
_atom_site_label
_atom_site_type_symbol
_atom_type_description
_atom_site_fract_x
_atom_site_fract_y
_atom_site_fract_z
_atom_type_partial_charge
C1    C     C_R   0.477055 0.299593 0.500912 0.892360
C2    C     C_R   0.522962 0.700427 0.499133 0.895488
C3    C     C_R   0.631018 0.399739 0.109707 -0.231587
C4    C     C_R   0.338670 0.416191 0.888694 -0.228383
C5    C     C_R   0.717534 0.395418 0.072591 -0.239315
C6    C     C_R   0.252654 0.423509 0.925863 -0.237882
C7    C     C_R   0.540454 0.812096 0.500058 -0.052405
C8    C     C_R   0.459533 0.187972 0.500034 -0.050255
C9    C     C_R   0.347794 0.039032 0.406887 -0.210901
C10   C     C_R   0.652174 0.961069 0.593226 -0.210936
C11   C     C_R   0.354572 0.143623 0.426021 -0.264998
C12   C     C_R   0.645459 0.856489 0.574012 -0.265799
C13   C     C_R   0.555287 0.127241 0.562380 0.138412
C14   C     C_R   0.444609 0.872827 0.437817 0.140125
C15   C     C_R   0.552253 0.022225 0.539672 0.126530
C16   C     C_R   0.447678 0.977852 0.460504 0.127063
C17   C     C_R   0.000528 0.589834 0.402357 -0.333286
C18   C     C_R   0.999577 0.410279 0.597831 -0.335480
C19   C     C_R   0.122008 0.582382 0.413013 0.023600
C20   C     C_R   0.878045 0.417724 0.587105 0.025200
C21   C     C_R   0.162584 0.462810 0.544007 -0.047942
C22   C     C_R   0.837461 0.537159 0.456027 -0.051562
C23   C     C_R   0.575425 0.492168 0.680339 0.865151
C24   C     C_R   0.423664 0.502602 0.319551 0.862044
C25   C     C_R   0.041072 0.467816 0.536028 0.094194
C26   C     C_R   0.959002 0.532183 0.464077 0.091282
C27   C     C_R   0.617379 0.469513 0.782761 -0.060817
C28   C     C_R   0.375175 0.486730 0.216546 -0.059196
C29   C     C_R   0.773244 0.422914 0.939198 -0.203189
C30   C     C_R   0.207246 0.459312 0.059611 -0.204463
C31   C     C_R   0.740120 0.449438 0.842886 -0.206120
C32   C     C_R   0.248378 0.481794 0.156285 -0.202527
C33   C     C_R   0.528254 0.459746 0.818584 -0.260805
C34   C     C_R   0.459349 0.466999 0.180210 -0.258363
C35   C     C_R   0.557960 0.428971 0.913277 0.091406
C36   C     C_R   0.420191 0.439314 0.085264 0.091168
C37   C     C_R   0.683408 0.414757 0.975250 0.179009
C38   C     C_R   0.292559 0.439873 0.023322 0.179383
C39   C     C_R   0.467073 0.420641 0.949178 0.070601
C40   C     C_R   0.506458 0.419142 0.049262 0.067292
H1    H     H_    0.812447 0.381790 0.120862 0.147202
H2    H     H_    0.155163 0.421057 0.877586 0.142265
H3    H     H_    0.846893 0.373836 0.635369 0.127020
H4    H     H_    0.153181 0.626369 0.364812 0.129701
H5    H     H_    0.939610 0.639981 0.346166 0.146809
H6    H     H_    0.060559 0.360276 0.654152 0.140991
H7    H     H_    0.556653 0.476765 0.226553 0.159041
H8    H     H_    0.435731 0.480282 0.772241 0.160553
H9    H     H_    0.181599 0.495468 0.183642 0.153480
H10   H     H_    0.810060 0.454814 0.815784 0.151447
H11   H     H_    0.869038 0.410289 0.985702 0.129272
H12   H     H_    0.109230 0.458153 0.013116 0.129521
H13   H     H_    0.663280 0.385609 0.185890 0.152831
H14   H     H_    0.302335 0.404979 0.812454 0.139864
H15   H     H_    0.719491 0.808682 0.620588 0.166166
H16   H     H_    0.280624 0.191463 0.379354 0.165737
H17   H     H_    0.265164 0.008065 0.348050 0.165412
H18   H     H_    0.734805 0.992073 0.652038 0.165452
N1    N     N_R   0.799120 0.480200 0.517090 -0.095444
N2    N     N_R   0.200880 0.519800 0.482910 -0.095326
O1    O     O_R   0.580150 0.341050 0.504560 -0.602291
O2    O     O_R   0.419850 0.658950 0.495440 -0.599890
O3    O     O_R   0.388090 0.353760 0.493600 -0.621954
O4    O     O_R   0.611910 0.646240 0.506400 -0.619750
O5    O     O_R   0.650890 0.490020 0.640860 -0.625172
O6    O     O_R   0.349110 0.509980 0.359140 -0.625700
O7    O     O_R   0.458830 0.502730 0.629890 -0.618904
O8    O     O_R   0.541170 0.497270 0.370110 -0.620460
Zn1   Zn    Zn3+2 0.628240 0.491510 0.507320 0.939076
Zn2   Zn    Zn3+2 0.371760 0.508490 0.492680 0.939972
C41   C     C_3   0.341214 0.826303 0.347987 -0.928277
H19   H     H_    0.359648 0.747954 0.331750 0.238294
H20   H     H_    0.253085 0.819481 0.355727 0.241161
H21   H     H_    0.330942 0.877046 0.284734 0.236761
C42   C     C_3   0.658509 0.173774 0.652315 -0.924540
H22   H     H_    0.639914 0.252071 0.668541 0.240426
H23   H     H_    0.668703 0.122978 0.715517 0.237657
H24   H     H_    0.746728 0.180725 0.644717 0.239664
H25   H     H_    0.773653 0.586917 0.401450 0.126753
H26   H     H_    0.226400 0.413028 0.598566 0.121082

loop_
_geom_bond_atom_site_label_1
_geom_bond_atom_site_label_2
_ccdc_geom_bond_type
C8    C13   A    
C5    C37   A    
C1    C8    S    
C14   C41   S    
C2    C7    S    
C27   C33   A    
O2    Zn2   S    
C17   C26   A    
C35   C37   A    
C9    C16   A    
C17   H5    S    
C22   H25   S    
C10   C15   A    
C15   C16   A    
C1    O3    A    
C30   C38   A    
C23   O7    A    
C36   C40   A    
C21   C25   A    
C33   C35   A    
C7    C14   A    
C13   C42   S    
O8    Zn1   S    
C10   H18   S    
C6    C38   A    
C23   C27   S    
C34   C36   A    
C24   O6    A    
C28   C34   A    
C18   C25   A    
C18   H6    S    
C2    O4    A    
C7    C12   A    
O3    Zn2   S    
C27   C31   A    
C28   C32   A    
C9    H17   S    
C4    C6    A    
C39   C40   A    
C41   H20   S    
C25   C26   A    
C35   C39   A    
C42   H22   S    
C42   H23   S    
C4    C39   A    
N2    Zn2   S    
O4    Zn1   S    
C20   N1    A    
C9    C11   A    
C21   N2    A    
C10   C12   A    
N1    Zn1   S    
C3    C40   A    
C13   C15   A    
C22   C26   A    
C14   C16   A    
C31   H10   S    
C22   N1    A    
C20   H3    S    
C19   H4    S    
C29   H11   S    
O1    Zn1   S    
C5    H1    S    
C4    H14   S    
C24   C28   S    
C3    C5    A    
C1    O1    A    
C41   H21   S    
C19   N2    A    
O7    Zn2   S    
C23   O5    A    
C36   C38   A    
C41   H19   S    
C29   C31   A    
C30   C32   A    
C3    H13   S    
O6    Zn2   S    
C30   H12   S    
C8    C11   A    
O5    Zn1   S    
C21   H26   S    
C17   C19   A    
C18   C20   A    
C42   H24   S    
C32   H9    S    
C12   H15   S    
C24   O8    A    
C6    H2    S    
C29   C37   A    
C33   H8    S    
C34   H7    S    
C11   H16   S    
C2    O2    A    
