data_mof_unit_52330.cif
_audit_creation_date              2012-10-26T18:52:45-0400
_audit_creation_method            fapswitch 2.2
_symmetry_space_group_name_H-M    P1
_symmetry_Int_Tables_number       1
_space_group_crystal_system       triclinic
_cell_length_a                    10.801662
_cell_length_b                    14.762205
_cell_length_c                    14.967393
_cell_angle_alpha                 64.246715
_cell_angle_beta                  105.122769
_cell_angle_gamma                 103.218602
_cell_volume                      2056.81571613

loop_
_atom_site_label
_atom_site_type_symbol
_atom_type_description
_atom_site_fract_x
_atom_site_fract_y
_atom_site_fract_z
_atom_type_partial_charge
C1    C     C_R   0.485625 0.119397 0.312592 0.542339
C2    C     C_R   0.494299 0.359626 0.076984 0.011702
C3    C     C_R   0.446897 0.321684 0.000460 0.052729
C4    C     C_R   0.259534 0.001335 0.497087 0.544778
C5    C     C_R   0.527032 0.466060 0.051232 0.015857
C6    C     C_R   0.492707 0.534525 0.949939 0.026962
C7    C     C_R   0.435376 0.494124 0.876396 -0.142788
C8    C     C_R   0.417306 0.390874 0.900453 -0.135895
C9    C     C_R   0.598747 0.505184 0.123234 -0.128823
C10   C     C_R   0.630801 0.609245 0.098945 -0.002732
C11   C     C_R   0.595956 0.678067 0.998493 0.063632
C12   C     C_3   0.878274 0.994555 0.506978 0.044147
C13   C     C_R   0.523758 0.640898 0.924275 0.019369
C14   C     C_R   0.634896 0.783446 0.969430 -0.136748
C15   C     C_R   0.609210 0.850105 0.868617 -0.149948
C16   C     C_R   0.520882 0.880378 0.687505 0.520045
C17   C     C_R   0.488471 0.711731 0.825263 -0.143665
C18   C     C_R   0.729366 0.299602 0.650665 -0.136542
C19   C     C_R   0.691905 0.211447 0.633020 0.156765
C20   C     C_R   0.516136 0.285399 0.505660 0.018437
C21   C     C_R   0.555936 0.380249 0.516303 -0.006771
C22   C     C_R   0.662965 0.382873 0.593963 0.023999
C23   C     C_3   0.934450 0.901942 0.604929 0.064142
C24   C     C_R   0.493541 0.471340 0.457184 0.030053
C25   C     C_R   0.525502 0.551014 0.493292 0.010773
C26   C     C_R   0.637490 0.550968 0.566505 -0.145625
C27   C     C_R   0.705276 0.468918 0.615253 -0.138089
C28   C     C_R   0.739988 0.998341 0.502612 0.536550
C29   C     C_R   0.409492 0.491911 0.361017 -0.013342
C30   C     C_R   0.350929 0.581462 0.312150 -0.112933
C31   C     C_R   0.372123 0.652289 0.354849 0.013361
C32   C     C_R   0.453740 0.635164 0.448707 0.017581
C33   C     C_R   0.314489 0.741523 0.303742 -0.174077
C34   C     C_3   0.960170 0.097475 0.504339 -0.230067
C35   C     C_R   0.341263 0.813582 0.345487 0.021684
C36   C     C_R   0.458334 0.702504 0.495494 0.133566
C37   C     C_3   0.026327 0.980128 0.406774 -0.109895
C38   C     C_3   0.886335 0.985682 0.408792 -0.224224
C39   C     C_3   0.088374 0.913369 0.608930 0.056186
C40   C     C_3   0.098945 0.104498 0.490011 -0.137797
C41   C     C_3   0.121315 0.997066 0.501115 0.089822
C42   C     C_3   0.030499 0.890790 0.379971 -0.411955
C43   C     C_3   0.170486 0.947104 0.695648 -0.397788
C44   C     C_3   0.902447 0.900536 0.701777 -0.386548
C45   C     C_R   0.484206 0.185944 0.204328 -0.011529
C46   C     C_3   0.704051 0.644485 0.181546 -0.409345
C47   C     C_3   0.379371 0.174805 0.943732 -0.411462
C48   C     C_3   0.491056 0.043067 0.153094 -0.378507
C49   C     C_3   0.469383 0.658984 0.607882 -0.355025
C50   C     C_3   0.775247 0.128447 0.697306 -0.349180
C51   C     C_3   0.398975 0.433537 0.297847 -0.415216
C52   C     C_3   0.136012 0.809552 0.639377 -0.367582
C53   C     C_3   0.862154 0.797873 0.602425 -0.380493
C54   C     C_3   0.125627 0.195256 0.390594 -0.440440
C55   C     C_R   0.538318 0.813833 0.795560 -0.011806
C56   C     C_R   0.431534 0.215678 0.025593 0.019518
C57   C     C_R   0.465046 0.148892 0.127928 0.007866
C58   C     C_R   0.502229 0.290240 0.177456 -0.166039
Cu1   Cu    Cu3+1 0.465900 0.918260 0.475680 0.888348
Cu2   Cu    Cu3+1 0.534100 0.081740 0.524320 0.897324
H1    H     H_    0.964411 0.107686 0.574219 0.110560
H2    H     H_    0.851482 0.053199 0.342097 0.093788
H3    H     H_    0.676246 0.616239 0.584966 0.105969
H4    H     H_    0.253126 0.757447 0.230104 0.087284
H5    H     H_    0.911470 0.161619 0.442509 0.142263
H6    H     H_    0.001829 0.815292 0.435658 0.130052
H7    H     H_    0.960091 0.897918 0.308979 0.104569
H8    H     H_    0.124384 0.893433 0.362194 0.163416
H9    H     H_    0.162821 0.885807 0.771410 0.122249
H10   H     H_    0.274998 0.964386 0.692044 0.154391
H11   H     H_    0.141360 0.014321 0.695277 0.107446
H12   H     H_    0.379456 0.366618 0.838833 0.109732
H13   H     H_    0.796481 0.886407 0.699711 0.131111
H14   H     H_    0.944089 0.838093 0.770452 0.126245
H15   H     H_    0.937337 0.972301 0.712212 0.105228
H16   H     H_    0.647917 0.694766 0.188390 0.134223
H17   H     H_    0.720382 0.580141 0.256261 0.133947
H18   H     H_    0.800054 0.686166 0.164014 0.122341
H19   H     H_    0.359521 0.090957 0.973265 0.127192
H20   H     H_    0.284999 0.201792 0.900741 0.118453
H21   H     H_    0.449084 0.201044 0.891739 0.129833
H22   H     H_    0.563893 0.015477 0.223179 0.154684
H23   H     H_    0.421582 0.689825 0.769273 0.101460
H24   H     H_    0.399596 0.990034 0.159032 0.124894
H25   H     H_    0.535699 0.042974 0.094203 0.113929
H26   H     H_    0.408097 0.540070 0.797863 0.094843
H27   H     H_    0.637226 0.455481 0.198726 0.105610
H28   H     H_    0.790248 0.472054 0.672133 0.103387
H29   H     H_    0.461668 0.574992 0.641582 0.094747
H30   H     H_    0.562018 0.689304 0.644592 0.139294
H31   H     H_    0.384265 0.675107 0.623997 0.141029
H32   H     H_    0.301934 0.884393 0.302515 0.121951
H33   H     H_    0.812364 0.303364 0.708993 0.090735
H34   H     H_    0.646554 0.929690 0.847855 0.120759
H35   H     H_    0.747804 0.059887 0.682573 0.193991
H36   H     H_    0.876698 0.157330 0.685763 0.083387
H37   H     H_    0.773250 0.105902 0.778073 0.082714
H38   H     H_    0.491724 0.405267 0.313307 0.126215
H39   H     H_    0.317306 0.371355 0.311896 0.116993
H40   H     H_    0.381174 0.482776 0.215932 0.141002
H41   H     H_    0.819275 0.919926 0.399012 0.143259
H42   H     H_    0.095744 0.774174 0.585179 0.130558
H43   H     H_    0.242746 0.817071 0.650189 0.155206
H44   H     H_    0.111711 0.753973 0.713431 0.107686
H45   H     H_    0.519451 0.316393 0.236591 0.123037
H46   H     H_    0.873449 0.784890 0.538161 0.119872
H47   H     H_    0.895520 0.733103 0.672361 0.110649
H48   H     H_    0.757348 0.790334 0.599906 0.152040
H49   H     H_    0.167397 0.126229 0.549173 0.153534
H50   H     H_    0.136274 0.267359 0.400178 0.128116
H51   H     H_    0.215736 0.192802 0.369884 0.150063
H52   H     H_    0.044797 0.198433 0.326274 0.126709
H53   H     H_    0.053015 0.045390 0.338255 0.130127
H54   H     H_    0.690023 0.815033 0.023231 0.105490
H55   H     H_    0.289728 0.597288 0.238330 0.109170
H56   H     H_    0.428662 0.273488 0.455757 0.129741
N1    N     N_R   0.585360 0.204570 0.560800 -0.222290
N2    N     N_R   0.414550 0.795430 0.439160 -0.220955
O1    O     O_R   0.455060 0.022100 0.338110 -0.512291
O2    O     O_R   0.512640 0.160150 0.379180 -0.509770
O3    O     O_R   0.288900 0.930980 0.479450 -0.509003
O4    O     O_R   0.346480 0.069030 0.520520 -0.517382
O5    O     O_R   0.487360 0.839850 0.620820 -0.518217
O6    O     O_R   0.544940 0.977900 0.661890 -0.515433
O7    O     O_R   0.653520 0.930970 0.479480 -0.508687
O8    O     O_R   0.711100 0.069020 0.520550 -0.517810

loop_
_geom_bond_atom_site_label_1
_geom_bond_atom_site_label_2
_ccdc_geom_bond_type
Cu1   O3    S    
C52   H43   S    
C19   C50   S    
C47   H19   S    
C49   H30   S    
C50   H36   S    
C15   H34   S    
C46   H16   S    
C7    C8    A    
C39   C41   S    
C12   C23   S    
C45   C57   A    
C26   C27   A    
C29   C30   A    
C12   C28   S    
C34   C40   S    
C32   C36   A    
C16   O5    A    
C38   H41   S    
C30   C31   A    
C11   C14   A    
C50   H35   S    
C7    H26   S    
C37   H53   S    
C4    C41   S    
C56   C57   A    
C54   H50   S    
C18   C19   A    
C1    O1    A    
C37   C42   S    
Cu2   O6    S    
C24   C29   A    
C53   H46   S    
C10   C46   S    
Cu1   O1    S    
C31   C33   A    
C36   N2    A    
C9    C10   A    
C17   C55   A    
C4    O3    A    
C35   H32   S    
C51   H38   S    
C39   C52   S    
Cu1   Cu2   S    
C43   H9    S    
C21   C22   A    
C42   H8    S    
Cu1   N2    S    
C27   H28   S    
C47   H20   S    
C49   H31   S    
C34   H5    S    
C20   N1    A    
Cu1   O5    S    
C28   O8    A    
C23   C53   S    
C30   H55   S    
C51   H39   S    
C45   C58   A    
C8    H12   S    
C4    O4    A    
C48   C57   S    
C24   C25   A    
C3    C8    A    
C20   H56   S    
C39   C43   S    
C25   C26   A    
C14   H54   S    
C34   H1    S    
C23   C44   S    
C48   H24   S    
C17   H23   S    
C1    O2    A    
C15   C55   A    
C44   H15   S    
Cu2   O4    S    
C26   H3    S    
C5    C9    A    
C37   C38   S    
C3    C56   A    
C53   H47   S    
C31   C32   A    
C52   H42   S    
C54   H52   S    
Cu2   N1    S    
C44   H14   S    
C6    C7    A    
C40   C41   S    
C43   H10   S    
C40   C54   S    
C22   C27   A    
C42   H7    S    
C2    C5    A    
C12   C34   S    
C12   C38   S    
C28   O7    A    
C46   H18   S    
C29   C51   S    
C51   H40   S    
C52   H44   S    
C50   H37   S    
C43   H11   S    
C18   C22   A    
C48   H25   S    
C49   H29   S    
C46   H17   S    
C2    C58   A    
C40   H49   S    
Cu1   O7    S    
C13   C17   A    
C58   H45   S    
Cu2   O8    S    
C2    C3    A    
C16   O6    A    
C16   C55   S    
C9    H27   S    
C6    C13   A    
C11   C13   A    
C53   H48   S    
C1    C45   S    
C5    C6    A    
C25   C32   A    
C33   H4    S    
C23   C39   S    
C33   C35   A    
C48   H22   S    
C54   H51   S    
Cu2   O2    S    
C47   H21   S    
C37   C41   S    
C44   H13   S    
C10   C11   A    
C20   C21   A    
C19   N1    A    
C21   C24   A    
C42   H6    S    
C18   H33   S    
C14   C15   A    
C35   N2    A    
C36   C49   S    
C47   C56   S    
C38   H2    S    
