data_mof_unit_38753.cif
_audit_creation_date              2013-03-05T16:48:45-0500
_audit_creation_method            fapswitch 2.2
_symmetry_space_group_name_H-M    P1
_symmetry_Int_Tables_number       1
_space_group_crystal_system       triclinic
_cell_length_a                    27.185882
_cell_length_b                    8.926991
_cell_length_c                    8.07196
_cell_angle_alpha                 90.032628
_cell_angle_beta                  89.387818
_cell_angle_gamma                 90.412322
_cell_volume                      1958.80605163

loop_
_atom_site_label
_atom_site_type_symbol
_atom_site_description
_atom_site_fract_x
_atom_site_fract_y
_atom_site_fract_z
_atom_type_partial_charge
O1    O     O_R   0.500000 0.285350 0.636850 -0.622116
O2    O     O_R   0.500000 0.714650 0.363150 -0.596280
O3    O     O_R   0.500000 0.714650 0.636850 -0.646025
O4    O     O_R   0.500000 0.285350 0.363150 -0.617626
C1    C     C_R   0.499764 0.217839 0.499978 0.951549
C2    C     C_R   0.499441 0.782114 0.500007 0.980748
O5    O     O_R   0.428760 0.500000 0.636860 -0.652324
O6    O     O_R   0.571240 0.500000 0.363140 -0.593183
O7    O     O_R   0.571240 0.500000 0.636860 -0.636440
O8    O     O_R   0.428760 0.500000 0.363140 -0.606917
C3    C     C_R   0.405494 0.505066 0.500983 0.991365
C4    C     C_R   0.594665 0.501197 0.499090 0.968070
Zn1   Zn    Zn3+2 0.500000 0.500000 0.682780 0.959371
Zn2   Zn    Zn3+2 0.500000 0.500000 0.317220 1.010840
C5    C     C_R   0.184343 0.654272 0.271715 0.525503
C6    C     C_R   0.824042 0.662033 0.584514 0.515497
C7    C     C_R   0.183436 0.737058 0.552787 0.511030
C8    C     C_R   0.824072 0.579550 0.303341 0.528221
O9    O     O_2   0.210117 0.606386 0.138242 -0.551870
O10   O     O_2   0.798974 0.687539 0.726967 -0.559940
O11   O     O_2   0.207974 0.765896 0.693988 -0.575476
O12   O     O_2   0.799099 0.523809 0.173164 -0.555508
N1    N     N_R   0.207878 0.680988 0.417651 -0.330495
N2    N     N_R   0.800266 0.603676 0.450745 -0.330905
C9    C     C_R   0.293825 0.744089 0.471805 -0.194637
C10   C     C_R   0.730775 0.454569 0.556686 -0.200087
C11   C     C_R   0.269723 0.484526 0.436665 -0.222648
C12   C     C_R   0.716301 0.674320 0.388125 -0.236178
C13   C     C_R   0.341323 0.700484 0.511616 0.401718
C14   C     C_R   0.680159 0.431543 0.575434 0.365527
C15   C     C_R   0.317465 0.438596 0.474742 0.395060
C16   C     C_R   0.665500 0.655636 0.408957 0.430147
C17   C     C_R   0.257993 0.636907 0.435321 0.185030
C18   C     C_R   0.748644 0.575510 0.463248 0.191340
C19   C     C_R   0.106854 0.720911 0.402996 -0.050563
C20   C     C_R   0.900055 0.669331 0.424578 -0.049880
C21   C     C_R   0.133305 0.673370 0.261767 -0.032902
C22   C     C_R   0.874286 0.696348 0.573807 -0.029566
C23   C     C_R   0.132611 0.759152 0.547447 -0.024785
C24   C     C_R   0.874429 0.611822 0.287513 -0.030756
C25   C     C_R   0.108162 0.640843 0.116239 -0.144608
C26   C     C_R   0.899019 0.756592 0.708983 -0.152544
C27   C     C_R   0.107015 0.812756 0.685517 -0.153228
C28   C     C_R   0.899496 0.586811 0.138535 -0.143850
C29   C     C_R   0.353994 0.547539 0.500918 -0.279561
C30   C     C_R   0.647553 0.528754 0.494963 -0.267163
H1    H     H_    0.241336 0.401767 0.412857 0.158728
H2    H     H_    0.731046 0.766045 0.314937 0.161416
H3    H     H_    0.284198 0.861535 0.475525 0.166722
H4    H     H_    0.756296 0.378076 0.613528 0.162601
H5    H     H_    0.127779 0.607895 0.004615 0.198063
H6    H     H_    0.879804 0.780659 0.824150 0.192740
H7    H     H_    0.126185 0.847309 0.796351 0.192012
H8    H     H_    0.880460 0.544258 0.030820 0.196909
C31   C     C_R   0.977121 0.665378 0.263178 0.044262
C32   C     C_R   0.028716 0.767629 0.548048 0.043860
C33   C     C_R   0.976746 0.752786 0.554269 0.044722
C34   C     C_R   0.029185 0.679760 0.257249 0.043925
C35   C     C_R   0.951463 0.697178 0.413478 0.076194
C36   C     C_R   0.054689 0.724600 0.402036 0.075579
C37   C     C_R   0.949762 0.613096 0.126150 -0.232484
C38   C     C_R   0.056105 0.818315 0.685664 -0.230065
C39   C     C_R   0.949145 0.784822 0.699666 -0.229648
C40   C     C_R   0.057133 0.644753 0.113339 -0.231661
H9    H     H_    0.966011 0.587823 0.007450 0.147998
H10   H     H_    0.039585 0.860014 0.798030 0.146588
H11   H     H_    0.965050 0.828902 0.811078 0.145249
H12   H     H_    0.040919 0.615958 0.996507 0.147082
C41   C     C_1   0.499308 0.065139 0.499936 -0.205961
C42   C     C_1   0.499159 0.934801 0.499957 -0.182341
N3    N     N_1   0.500000 0.500000 0.073640 -0.037852
N4    N     N_1   0.500000 0.500000 0.926360 -0.049478
O13   O     O_3   0.328874 0.287993 0.487217 -0.638975
C43   C     C_3   0.305623 0.226431 0.630267 0.095808
H13   H     H_    0.304914 0.103046 0.615330 0.169791
H14   H     H_    0.266378 0.260098 0.643123 0.138918
C44   C     C_3   0.334216 0.264203 0.788750 -0.376995
H15   H     H_    0.368525 0.197346 0.791605 0.226560
H16   H     H_    0.344633 0.384569 0.790968 0.231134
C45   C     C_3   0.303478 0.232549 0.944440 -0.889277
H17   H     H_    0.271518 0.309319 0.950323 0.286196
H18   H     H_    0.326265 0.251271 0.056058 0.283912
H19   H     H_    0.289742 0.115368 0.945340 0.267820
O14   O     O_3   0.632483 0.755280 0.340077 -0.626949
C46   C     C_3   0.639869 0.903212 0.400029 0.100440
H20   H     H_    0.615397 0.976651 0.327074 0.140582
H21   H     H_    0.677545 0.947025 0.374476 0.138945
C47   C     C_3   0.624959 0.921225 0.584004 -0.398776
H22   H     H_    0.608456 0.033767 0.601928 0.217137
H23   H     H_    0.596668 0.836444 0.618972 0.228391
C48   C     C_3   0.668540 0.908765 0.701175 -0.788116
H24   H     H_    0.683323 0.793368 0.701957 0.264950
H25   H     H_    0.656226 0.936194 0.829180 0.247795
H26   H     H_    0.698212 0.988641 0.664523 0.269026
O15   O     O_3   0.374706 0.810863 0.556411 -0.644242
C49   C     C_3   0.381682 0.814629 0.731132 0.050997
H27   H     H_    0.401604 0.920638 0.758895 0.175131
H28   H     H_    0.406268 0.723919 0.771048 0.184892
C50   C     C_3   0.334123 0.810587 0.837706 -0.393523
H29   H     H_    0.308283 0.897015 0.794074 0.242004
H30   H     H_    0.315844 0.699263 0.826856 0.246920
C51   C     C_3   0.345212 0.837060 0.020529 -0.861899
H31   H     H_    0.369690 0.747945 0.067796 0.267175
H32   H     H_    0.310367 0.834669 0.093601 0.285567
H33   H     H_    0.363259 0.947877 0.037977 0.265399
O16   O     O_3   0.662977 0.306702 0.660042 -0.660632
C52   C     C_3   0.653930 0.343693 0.828313 0.109456
H34   H     H_    0.620606 0.280339 0.869013 0.171422
H35   H     H_    0.645733 0.464781 0.849496 0.150188
C53   C     C_3   0.697191 0.296351 0.936046 -0.365836
H36   H     H_    0.705833 0.176713 0.912708 0.229416
H37   H     H_    0.730160 0.364942 0.903867 0.255140
C54   C     C_3   0.685385 0.317431 0.119829 -0.863404
H38   H     H_    0.676844 0.436625 0.145537 0.279241
H39   H     H_    0.717601 0.284842 0.194793 0.280653
H40   H     H_    0.653424 0.246473 0.157297 0.239509

loop_
_geom_bond_atom_site_label_1
_geom_bond_atom_site_label_2
_geom_bond_distance
_ccdc_geom_bond_type
C31   C35   1.422455 A    
O13   C43   1.419512 S    
O15   C49   1.425388 S    
C20   C35   1.419639 A    
C44   H15   1.111402 S    
C11   C17   1.399491 A    
C5    O9    1.349869 S    
C7    N1    1.367704 A    
C43   H14   1.114296 S    
C21   C25   1.394772 A    
O1    C1    1.258261 A    
C40   H12   1.075508 S    
C19   C21   1.408244 A    
C22   C26   1.393447 A    
C10   H4    1.082658 S    
C7    C23   1.398262 A    
C33   C35   1.421813 A    
O16   C52   1.417025 S    
C34   C36   1.421144 A    
C49   C50   1.545526 S    
C32   C33   1.418445 A    
C51   H33   1.110648 S    
Zn2   N3    1.966168 S    
O7    Zn1   1.967977 S    
C53   H36   1.110751 S    
C5    C21   1.402302 A    
C1    C41   1.363118 S    
C27   H7    1.083726 S    
N1    C17   1.429453 S    
C43   C44   1.539942 S    
C49   H28   1.104077 S    
C52   H34   1.111318 S    
C24   C28   1.394534 A    
O3    Zn1   1.951922 S    
O6    C4    1.274648 A    
C54   H40   1.111008 S    
O3    C2    1.258693 A    
C46   H21   1.111058 S    
C12   C18   1.393585 A    
C6    N2    1.365480 A    
C14   O16   1.383176 S    
C34   C40   1.417208 A    
C52   H35   1.117946 S    
O2    C2    1.257903 A    
C45   H19   1.108192 S    
C10   C18   1.398579 A    
C33   C39   1.416373 A    
C53   H37   1.110434 S    
C44   H16   1.109413 S    
C9    C13   1.392277 A    
C16   O14   1.388799 S    
C39   H11   1.075181 S    
C43   H13   1.108017 S    
C38   H10   1.075296 S    
C11   C15   1.401237 A    
C51   H31   1.111156 S    
C20   C24   1.408430 A    
O14   C46   1.419856 S    
C45   H18   1.110725 S    
O8    Zn2   1.967980 S    
C48   H24   1.108503 S    
C13   O15   1.385281 S    
O4    C1    1.258435 A    
C23   C27   1.393874 A    
C46   H20   1.110995 S    
N2    C18   1.426462 S    
C32   C36   1.421561 A    
C13   C29   1.412895 A    
C19   C36   1.418875 A    
C19   C23   1.407107 A    
C37   H9    1.075278 S    
C48   H25   1.110466 S    
O5    C3    1.272930 A    
C50   H29   1.107337 S    
C47   C48   1.528606 S    
C12   C16   1.398267 A    
C6    O10   1.350443 S    
C49   H27   1.110889 S    
C9    C17   1.394106 A    
C51   H32   1.110639 S    
C53   C54   1.526284 S    
C4    C30   1.457002 S    
C50   H30   1.111720 S    
C47   H23   1.109609 S    
C10   C14   1.396485 A    
C52   C53   1.532132 S    
C8    N2    1.366099 A    
C3    C29   1.453143 S    
O1    Zn1   1.951508 S    
C54   H38   1.109700 S    
C46   C47   1.543792 S    
C11   H1    1.083104 S    
C2    C42   1.363113 S    
C12   H2    1.082104 S    
O6    Zn2   1.975757 S    
C8    O12   1.349983 S    
C16   C30   1.410206 A    
C14   C30   1.408801 A    
C45   H17   1.111074 S    
Zn1   N4    1.966168 S    
C28   C37   1.387412 A    
C20   C22   1.408550 A    
N3    N4    1.188837 T    
C48   H26   1.110643 S    
C44   C45   1.527104 S    
C31   C37   1.416492 A    
C5    N1    1.366565 A    
C32   C38   1.416117 A    
O4    Zn2   1.951923 S    
C41   C42   1.163509 T    
O2    Zn2   1.951507 S    
O7    C4    1.275600 A    
C9    H3    1.082759 S    
C15   O13   1.385879 S    
O8    C3    1.274927 A    
C28   H8    1.083749 S    
O5    Zn1   1.975760 S    
C50   C51   1.527296 S    
C8    C24   1.401465 A    
C47   H22   1.111977 S    
C15   C29   1.402507 A    
C31   C34   1.420606 A    
C6    C22   1.399491 A    
C25   C40   1.388406 A    
C26   C39   1.385314 A    
C25   H5    1.083716 S    
C27   C38   1.385276 A    
C26   H6    1.083617 S    
C54   H39   1.110419 S    
C7    O11   1.350487 S    
