data_mof_unit_68076.cif
_audit_creation_date              2012-12-11T15:17:37-0500
_audit_creation_method            fapswitch 2.2
_symmetry_space_group_name_H-M    P1
_symmetry_Int_Tables_number       1
_space_group_crystal_system       triclinic
_cell_length_a                    7.121902
_cell_length_b                    20.352606
_cell_length_c                    22.031679
_cell_angle_alpha                 89.94191
_cell_angle_beta                  90.367518
_cell_angle_gamma                 89.950741
_cell_volume                      3193.40714985

loop_
_atom_site_label
_atom_site_type_symbol
_atom_type_description
_atom_site_fract_x
_atom_site_fract_y
_atom_site_fract_z
_atom_type_partial_charge
O1    O     O_R   0.620180 0.810610 0.187990 -0.517545
O2    O     O_R   0.379820 0.189390 0.812010 -0.547374
O3    O     O_R   0.379820 0.189390 0.687990 -0.548989
O4    O     O_R   0.620180 0.810610 0.312010 -0.544169
O5    O     O_R   0.120180 0.689390 0.312010 -0.516823
O6    O     O_R   0.879820 0.310610 0.687990 -0.548375
O7    O     O_R   0.879820 0.310610 0.812010 -0.549808
O8    O     O_R   0.120180 0.689390 0.187990 -0.544793
O9    O     O_R   0.290420 0.818570 0.311590 -0.543988
O10   O     O_R   0.709580 0.181430 0.688410 -0.538151
O11   O     O_R   0.709580 0.181430 0.811590 -0.540536
O12   O     O_R   0.290420 0.818570 0.188410 -0.545728
O13   O     O_R   0.790420 0.681430 0.188410 -0.543798
O14   O     O_R   0.209580 0.318570 0.811590 -0.538075
O15   O     O_R   0.209580 0.318570 0.688410 -0.541735
O16   O     O_R   0.790420 0.681430 0.311590 -0.546569
C1    C     C_R   0.457676 0.828032 0.336096 0.660498
C2    C     C_R   0.540785 0.169806 0.665174 0.656324
C3    C     C_R   0.543056 0.170340 0.835184 0.661741
C4    C     C_R   0.458811 0.831988 0.166109 0.696642
C5    C     C_R   0.956900 0.671483 0.164171 0.658574
C6    C     C_R   0.041534 0.330909 0.834437 0.658772
C7    C     C_R   0.042088 0.329037 0.664487 0.663167
C8    C     C_R   0.959749 0.668588 0.334212 0.691660
O17   O     O_3   0.453640 0.707610 0.250000 -0.356682
O18   O     O_3   0.546360 0.292390 0.750000 -0.370558
O19   O     O_3   0.953640 0.792390 0.250000 -0.355287
O20   O     O_3   0.046360 0.207610 0.750000 -0.369171
V1    V     V_3+5 0.178800 0.757860 0.250000 1.451939
V2    V     V_3+5 0.821200 0.242140 0.750000 1.374779
V3    V     V_3+5 0.678800 0.742140 0.250000 1.449247
V4    V     V_3+5 0.321200 0.257860 0.750000 1.375123
C9    C     C_R   0.049963 0.355336 0.549672 0.041730
C10   C     C_R   0.929384 0.641990 0.449156 0.019464
C11   C     C_R   0.936174 0.645788 0.049239 0.043731
C12   C     C_R   0.077263 0.360892 0.948005 0.044237
C13   C     C_R   0.557589 0.145669 0.950549 0.043693
C14   C     C_R   0.418878 0.861084 0.051902 0.022603
C15   C     C_R   0.441498 0.855278 0.450574 0.040422
C16   C     C_R   0.566375 0.142077 0.550901 0.041939
C17   C     C_R   0.034603 0.375051 0.612224 -0.122933
C18   C     C_R   0.972703 0.623335 0.387499 -0.033237
C19   C     C_R   0.962474 0.625873 0.111608 -0.125237
C20   C     C_R   0.030646 0.377930 0.886108 -0.095394
C21   C     C_R   0.538483 0.125056 0.888120 -0.125750
C22   C     C_R   0.469057 0.878444 0.113620 -0.046248
C23   C     C_R   0.464951 0.874293 0.388122 -0.122104
C24   C     C_R   0.527541 0.123844 0.612795 -0.088629
C25   C     C_R   0.006153 0.441603 0.626143 -0.112622
C26   C     C_R   0.025354 0.558422 0.374436 -0.103698
C27   C     C_R   0.004901 0.560032 0.124962 -0.081723
C28   C     C_R   0.965797 0.441553 0.872070 -0.121706
C29   C     C_R   0.503087 0.058689 0.875036 -0.092824
C30   C     C_R   0.524327 0.943252 0.127530 -0.108031
C31   C     C_R   0.499390 0.940393 0.373940 -0.093508
C32   C     C_R   0.464194 0.060300 0.626087 -0.120789
C33   C     C_R   0.943730 0.484641 0.580552 0.003208
C34   C     C_R   0.987613 0.508314 0.416109 -0.067721
C35   C     C_R   0.059080 0.517726 0.078147 0.018582
C36   C     C_R   0.987375 0.492796 0.914382 -0.006053
C37   C     C_R   0.441264 0.017007 0.921288 0.014540
C38   C     C_R   0.491049 0.994033 0.085702 -0.062697
C39   C     C_R   0.553785 0.984103 0.420012 0.004632
C40   C     C_R   0.487356 0.009491 0.583799 -0.008619
C41   C     C_R   0.980696 0.471331 0.520313 0.009174
C42   C     C_R   0.960449 0.523640 0.477272 0.034512
C43   C     C_R   0.009416 0.530670 0.018469 0.014278
C44   C     C_R   0.029591 0.478774 0.975102 0.016468
C45   C     C_R   0.481067 0.030843 0.981361 0.013472
C46   C     C_R   0.456800 0.979292 0.024790 0.039718
C47   C     C_R   0.506785 0.971578 0.479829 0.008232
C48   C     C_R   0.523342 0.024108 0.522817 0.012747
C49   C     C_R   0.041130 0.406700 0.503386 -0.002381
C50   C     C_R   0.918121 0.590203 0.495848 -0.002752
C51   C     C_R   0.941142 0.594671 0.002456 0.004143
C52   C     C_R   0.090800 0.413846 0.993055 -0.004060
C53   C     C_R   0.546877 0.094991 0.997628 0.006050
C54   C     C_R   0.401590 0.913930 0.006641 -0.004406
C55   C     C_R   0.443119 0.907163 0.496422 -0.002876
C56   C     C_R   0.573001 0.090196 0.504422 -0.002134
C57   C     C_R   0.832665 0.538995 0.593502 0.009462
C58   C     C_R   0.995242 0.442043 0.398811 -0.047148
C59   C     C_R   0.186188 0.467181 0.088643 0.044249
C60   C     C_R   0.967502 0.558919 0.896803 0.007848
C61   C     C_R   0.314868 0.966698 0.909614 0.055793
C62   C     C_R   0.505479 0.060250 0.102828 -0.044064
C63   C     C_R   0.666021 0.038501 0.407964 0.005472
C64   C     C_R   0.471405 0.943334 0.601542 -0.005572
C65   C     C_R   0.855123 0.597401 0.559029 0.092315
C66   C     C_R   0.070765 0.396044 0.439854 0.079544
C67   C     C_R   0.174094 0.408914 0.053892 0.098882
C68   C     C_R   0.900109 0.605082 0.939183 0.058869
C69   C     C_R   0.320988 0.908709 0.945325 0.091560
C70   C     C_R   0.579212 0.105935 0.061216 0.075360
C71   C     C_R   0.639355 0.097051 0.441707 0.095141
C72   C     C_R   0.402543 0.897159 0.559454 0.065042
C73   C     C_2   0.669448 0.527815 0.634672 0.381022
H1    H     H_    0.670732 0.487056 0.666489 0.067145
O21   O     O_2   0.528406 0.561799 0.631400 -0.512256
C74   C     C_2   0.911850 0.421341 0.339747 0.318770
H2    H     H_    0.831834 0.456382 0.312863 0.095230
O22   O     O_2   0.928702 0.365388 0.320828 -0.545110
C75   C     C_2   0.365113 0.487702 0.118199 0.318146
H3    H     H_    0.363781 0.518885 0.158120 0.075329
O23   O     O_2   0.515904 0.473487 0.095531 -0.520525
C76   C     C_2   0.040850 0.579807 0.836533 0.370626
H4    H     H_    0.117691 0.545038 0.808959 0.105692
O24   O     O_2   0.023856 0.635901 0.817934 -0.558412
C77   C     C_2   0.140330 0.988353 0.878057 0.319194
H5    H     H_    0.147902 0.016821 0.836458 0.082915
O25   O     O_2   0.986923 0.978369 0.900786 -0.525856
C78   C     C_2   0.420700 0.081478 0.161210 0.305909
H6    H     H_    0.332483 0.047551 0.186155 0.109524
O26   O     O_2   0.445538 0.136268 0.181902 -0.550736
C79   C     C_2   0.831759 0.028043 0.367568 0.365584
H7    H     H_    0.835361 0.986628 0.336612 0.066707
O27   O     O_2   0.970022 0.063316 0.370662 -0.513243
C80   C     C_2   0.542222 0.922462 0.662421 0.371597
H8    H     H_    0.617766 0.957207 0.690683 0.096280
O28   O     O_2   0.524379 0.866218 0.680705 -0.548875
C81   C     C_2   0.073219 0.468581 0.685380 0.369411
H9    H     H_    0.123155 0.436392 0.721127 0.037309
O29   O     O_2   0.088624 0.527617 0.693318 -0.531063
C82   C     C_2   0.159578 0.544198 0.324160 0.302837
H10   H     H_    0.148152 0.500337 0.297108 0.072151
O30   O     O_2   0.296165 0.579065 0.315666 -0.517735
C83   C     C_2   0.976839 0.533313 0.187318 0.362152
H11   H     H_    0.948632 0.565709 0.225079 0.037695
O31   O     O_2   0.972822 0.474172 0.196550 -0.545469
C84   C     C_2   0.844194 0.451515 0.817007 0.340193
H12   H     H_    0.863060 0.422822 0.776400 0.056596
O32   O     O_2   0.711377 0.489328 0.817924 -0.548826
C85   C     C_2   0.552793 0.030474 0.814779 0.365129
H13   H     H_    0.622534 0.060311 0.780993 0.037062
O33   O     O_2   0.527181 0.972506 0.803289 -0.540615
C86   C     C_2   0.655203 0.956737 0.179577 0.304535
H14   H     H_    0.642294 0.000309 0.207052 0.063979
O34   O     O_2   0.790819 0.921588 0.189438 -0.515606
C87   C     C_2   0.452661 0.965934 0.312265 0.359684
H15   H     H_    0.438297 0.933000 0.274047 0.041561
O35   O     O_2   0.414976 0.023801 0.304381 -0.537527
C88   C     C_2   0.340395 0.050303 0.679866 0.361004
H16   H     H_    0.364999 0.076007 0.721878 0.056834
O36   O     O_2   0.198817 0.016984 0.675983 -0.554173
C89   C     C_3   0.797159 0.660861 0.592614 -0.372015
C90   C     C_3   0.845630 0.663039 0.661716 -0.214971
C91   C     C_3   0.704110 0.704494 0.696823 -0.726269
H17   H     H_    0.675810 0.751448 0.673197 0.261309
H18   H     H_    0.569373 0.677483 0.701018 0.259948
H19   H     H_    0.759058 0.714869 0.743089 0.240802
H20   H     H_    0.850173 0.615114 0.684658 0.249897
H21   H     H_    0.989569 0.682696 0.668143 0.196514
H22   H     H_    0.869325 0.704603 0.577022 0.147531
H23   H     H_    0.644578 0.669012 0.585433 0.209869
C92   C     C_3   0.219551 0.349539 0.414901 -0.335287
C93   C     C_3   0.346626 0.381361 0.366561 -0.291495
C94   C     C_3   0.493855 0.333202 0.344892 -0.761762
H24   H     H_    0.592077 0.320825 0.382560 0.235393
H25   H     H_    0.424052 0.288199 0.327891 0.237933
H26   H     H_    0.572545 0.355345 0.306762 0.255047
H27   H     H_    0.266517 0.396700 0.325855 0.231507
H28   H     H_    0.417445 0.425409 0.385873 0.196268
H29   H     H_    0.320185 0.336556 0.450623 0.166798
H30   H     H_    0.151971 0.304353 0.396839 0.203360
C95   C     C_3   0.245782 0.345468 0.084816 -0.378093
C96   C     C_3   0.316281 0.350470 0.151478 -0.316329
C97   C     C_3   0.343526 0.283472 0.180822 -0.714174
H31   H     H_    0.212955 0.268122 0.203759 0.250290
H32   H     H_    0.384811 0.247094 0.146082 0.260291
H33   H     H_    0.456202 0.285880 0.215749 0.229415
H34   H     H_    0.456680 0.373757 0.152690 0.242389
H35   H     H_    0.217254 0.379229 0.179713 0.244385
H36   H     H_    0.128728 0.309899 0.086153 0.184407
H37   H     H_    0.366468 0.325730 0.059568 0.176000
C98   C     C_3   0.752959 0.653901 0.916517 -0.362593
C99   C     C_3   0.616965 0.626202 0.868322 -0.232035
C100  C     C_3   0.466017 0.676062 0.852624 -0.813167
H38   H     H_    0.370702 0.683281 0.891741 0.232684
H39   H     H_    0.531822 0.723656 0.840256 0.242977
H40   H     H_    0.383714 0.657955 0.813159 0.268470
H41   H     H_    0.689248 0.614402 0.825489 0.266521
H42   H     H_    0.548770 0.580903 0.885843 0.225066
H43   H     H_    0.657213 0.665475 0.953391 0.176975
H44   H     H_    0.821372 0.699397 0.899881 0.193267
C101  C     C_3   0.246934 0.845262 0.914919 -0.386349
C102  C     C_3   0.171064 0.850576 0.848804 -0.305940
C103  C     C_3   0.137249 0.784093 0.819262 -0.713371
H45   H     H_    0.264761 0.768044 0.794970 0.250873
H46   H     H_    0.095918 0.747568 0.853945 0.258946
H47   H     H_    0.022623 0.787983 0.785033 0.229827
H48   H     H_    0.031722 0.874736 0.849033 0.243540
H49   H     H_    0.269063 0.878743 0.819662 0.247961
H50   H     H_    0.363428 0.809418 0.913080 0.186004
H51   H     H_    0.127912 0.825680 0.940991 0.177067
C104  C     C_3   0.727689 0.153061 0.085477 -0.336914
C105  C     C_3   0.857300 0.122997 0.134526 -0.284734
C106  C     C_3   0.006654 0.172086 0.153559 -0.771631
H52   H     H_    0.106594 0.180337 0.115825 0.235103
H53   H     H_    0.940036 0.219482 0.166113 0.238066
H54   H     H_    0.083784 0.152860 0.193707 0.261224
H55   H     H_    0.779700 0.109161 0.175907 0.234228
H56   H     H_    0.926638 0.078095 0.116573 0.199545
H57   H     H_    0.826801 0.164946 0.049484 0.171141
H58   H     H_    0.660457 0.198685 0.102311 0.193202
C107  C     C_3   0.695490 0.160443 0.407641 -0.370754
C108  C     C_3   0.642455 0.162019 0.338972 -0.222599
C109  C     C_3   0.777877 0.204839 0.303015 -0.738800
H59   H     H_    0.800202 0.252291 0.326143 0.267859
H60   H     H_    0.915732 0.179748 0.298880 0.256739
H61   H     H_    0.720356 0.213921 0.256830 0.242923
H62   H     H_    0.641808 0.113904 0.316365 0.245165
H63   H     H_    0.496784 0.180651 0.333485 0.200461
H64   H     H_    0.624840 0.204576 0.423029 0.146193
H65   H     H_    0.848422 0.168602 0.414015 0.212284
C110  C     C_3   0.252503 0.849795 0.582346 -0.362195
C111  C     C_3   0.116076 0.881229 0.628019 -0.238271
C112  C     C_3   0.967098 0.833074 0.647878 -0.804873
H66   H     H_    0.875067 0.819515 0.609009 0.231679
H67   H     H_    0.036427 0.789138 0.667204 0.243207
H68   H     H_    0.881865 0.855678 0.684199 0.261716
H69   H     H_    0.189157 0.896531 0.669999 0.269536
H70   H     H_    0.046645 0.924721 0.607026 0.220977
H71   H     H_    0.158205 0.835986 0.545337 0.172521
H72   H     H_    0.319302 0.805087 0.601847 0.205643
C113  C     C_3   0.069083 0.282643 0.529705 -0.414614
C114  C     C_3   0.046282 0.224625 0.574547 -0.320516
C115  C     C_3   0.069378 0.157888 0.543469 -0.719757
H73   H     H_    0.951284 0.147701 0.512333 0.224377
H74   H     H_    0.200301 0.155964 0.516846 0.236889
H75   H     H_    0.073510 0.118333 0.578216 0.244458
H76   H     H_    0.152301 0.226228 0.610702 0.207879
H77   H     H_    0.910345 0.225081 0.596905 0.213982
H78   H     H_    0.973635 0.274664 0.490513 0.180431
H79   H     H_    0.210695 0.275697 0.513238 0.185681
C116  C     C_3   0.918841 0.715109 0.467483 -0.448015
C117  C     C_3   0.944145 0.772389 0.421679 -0.299301
C118  C     C_3   0.917508 0.840624 0.449816 -0.751204
H80   H     H_    0.840039 0.838624 0.493339 0.228419
H81   H     H_    0.054463 0.865096 0.456601 0.223992
H82   H     H_    0.839299 0.872819 0.417899 0.222831
H83   H     H_    0.083070 0.771147 0.400850 0.199081
H84   H     H_    0.842638 0.769532 0.384621 0.208366
H85   H     H_    0.781216 0.723071 0.487853 0.198126
H86   H     H_    0.029801 0.722399 0.501852 0.182927
C119  C     C_3   0.915627 0.718881 0.030033 -0.430758
C120  C     C_3   0.941154 0.776364 0.075418 -0.311634
C121  C     C_3   0.907506 0.843809 0.046181 -0.704102
H87   H     H_    0.039486 0.864762 0.029185 0.224166
H88   H     H_    0.803715 0.841575 0.008497 0.230463
H89   H     H_    0.855714 0.878854 0.080589 0.259414
H90   H     H_    0.841074 0.772837 0.112584 0.210533
H91   H     H_    0.079676 0.776578 0.096718 0.207677
H92   H     H_    0.009097 0.727303 0.990844 0.178602
H93   H     H_    0.772939 0.726520 0.014082 0.191210
C122  C     C_3   0.088514 0.288173 0.968717 -0.438337
C123  C     C_3   0.059287 0.229510 0.924673 -0.300271
C124  C     C_3   0.083915 0.162300 0.955362 -0.738718
H94   H     H_    0.158179 0.165882 0.999703 0.224447
H95   H     H_    0.946533 0.138090 0.961568 0.230063
H96   H     H_    0.164720 0.129058 0.925480 0.226378
H97   H     H_    0.920440 0.230761 0.903414 0.204411
H98   H     H_    0.159699 0.230428 0.887463 0.210065
H99   H     H_    0.227654 0.279937 0.987476 0.194813
H100  H     H_    0.984144 0.281807 0.005139 0.178684
C125  C     C_3   0.579838 0.218816 0.969335 -0.420677
C126  C     C_3   0.555171 0.275846 0.923244 -0.323809
C127  C     C_3   0.588215 0.343737 0.951301 -0.708609
H101  H     H_    0.458328 0.363356 0.971109 0.227974
H102  H     H_    0.699287 0.342622 0.986744 0.236985
H103  H     H_    0.629804 0.378961 0.915378 0.241136
H104  H     H_    0.656018 0.271830 0.886353 0.210810
H105  H     H_    0.416800 0.275928 0.901882 0.212608
H106  H     H_    0.486386 0.227862 0.008362 0.177022
H107  H     H_    0.722594 0.225960 0.985691 0.188020
C128  C     C_3   0.408285 0.788311 0.031446 -0.440029
C129  C     C_3   0.437776 0.730194 0.076232 -0.306321
C130  C     C_3   0.411271 0.662430 0.047044 -0.738870
H108  H     H_    0.336029 0.665191 0.002847 0.224560
H109  H     H_    0.547936 0.637500 0.041394 0.230377
H110  H     H_    0.330672 0.630152 0.077803 0.223105
H111  H     H_    0.576986 0.731420 0.097199 0.199987
H112  H     H_    0.337918 0.732077 0.113499 0.205897
H113  H     H_    0.269227 0.779830 0.012682 0.196910
H114  H     H_    0.511885 0.781842 0.994812 0.181221
C131  C     C_3   0.425949 0.782567 0.470994 -0.422429
C132  C     C_3   0.450779 0.724462 0.426424 -0.312219
C133  C     C_3   0.428494 0.657802 0.457779 -0.709136
H115  H     H_    0.545022 0.648347 0.489630 0.219108
H116  H     H_    0.295887 0.655348 0.483498 0.234061
H117  H     H_    0.428795 0.617993 0.423432 0.256244
H118  H     H_    0.345479 0.725648 0.390043 0.210232
H119  H     H_    0.586954 0.725204 0.404222 0.209377
H120  H     H_    0.522011 0.775357 0.510218 0.181148
H121  H     H_    0.285228 0.774663 0.487497 0.188595
C134  C     C_3   0.577756 0.215078 0.532232 -0.442793
C135  C     C_3   0.553063 0.273014 0.577248 -0.293686
C136  C     C_3   0.576409 0.340599 0.547343 -0.755109
H122  H     H_    0.655488 0.337797 0.504148 0.229831
H123  H     H_    0.438184 0.363679 0.539005 0.222655
H124  H     H_    0.651753 0.374272 0.578649 0.223234
H125  H     H_    0.414942 0.271843 0.598691 0.203216
H126  H     H_    0.656100 0.271196 0.614023 0.212261
H127  H     H_    0.715527 0.222532 0.511828 0.196063
H128  H     H_    0.465906 0.222354 0.498092 0.181305

loop_
_geom_bond_atom_site_label_1
_geom_bond_atom_site_label_2
_ccdc_geom_bond_type
O17   V3    S    
C64   C72   A    
C58   C66   A    
C96   H35   S    
C95   C96   S    
C70   C104  S    
C123  H98   S    
O12   V1    S    
C46   C54   A    
C8    C18   S    
C136  H122  S    
C45   C53   A    
C128  C129  S    
C10   C18   A    
C101  H51   S    
C19   C27   A    
C110  H72   S    
C78   O26   D    
C73   H1    S    
C101  C102  S    
C41   C49   A    
O15   V4    S    
C97   H32   S    
O14   V4    S    
C120  H91   S    
C107  C108  S    
C15   C131  S    
O16   V3    S    
C135  H126  S    
C38   C62   A    
O11   C3    A    
C94   H24   S    
C72   C110  S    
C129  H112  S    
C132  H118  S    
C113  H79   S    
C50   C65   A    
C15   C23   A    
C93   C94   S    
C91   H18   S    
C35   C59   A    
C49   C66   A    
C90   C91   S    
C61   C77   S    
C126  H104  S    
C34   C58   A    
C132  C133  S    
C36   C60   A    
C127  H103  S    
C14   C128  S    
C115  H74   S    
C104  H57   S    
C129  H111  S    
C106  H52   S    
C54   C69   A    
C95   H36   S    
C79   H7    S    
C42   C50   A    
C53   C70   A    
O1    V3    S    
C31   C87   S    
C117  C118  S    
C38   C46   A    
O3    C2    A    
O2    V4    S    
C124  H94   S    
C117  H84   S    
C102  H48   S    
C106  H53   S    
C16   C24   A    
C111  H69   S    
C103  H47   S    
C28   C36   A    
C91   H17   S    
C35   C43   A    
C80   H8    S    
C61   C69   A    
C108  H62   S    
C34   C42   A    
C6    C20   S    
C115  H73   S    
O11   V2    S    
C79   O27   D    
C75   H3    S    
C31   C39   A    
C131  H121  S    
C109  H61   S    
C60   C76   S    
C116  C117  S    
C16   C56   A    
C12   C52   A    
C125  C126  S    
C120  C121  S    
C63   C79   S    
C125  H107  S    
C93   H28   S    
C130  H109  S    
O9    V1    S    
O4    V3    S    
C89   H22   S    
C20   C28   A    
O15   C7    A    
C65   C89   S    
C23   C31   A    
C107  H64   S    
C96   H34   S    
C94   H25   S    
O7    V2    S    
C5    C19   S    
C118  H80   S    
O17   V1    S    
C136  H123  S    
O12   C4    A    
C135  H125  S    
C29   C37   A    
C10   C116  S    
C17   C25   A    
C78   H6    S    
C73   O21   D    
C67   C95   S    
C89   C90   S    
C97   H33   S    
O5    V1    S    
C120  H90   S    
C121  H88   S    
C68   C98   S    
C62   C70   A    
C99   H41   S    
C11   C119  S    
C12   C122  S    
C14   C22   A    
C59   C75   S    
C32   C88   S    
O19   V3    S    
C109  H59   S    
C26   C34   A    
O20   V4    S    
C91   H19   S    
C26   C82   S    
C111  C112  S    
C86   O34   D    
C118  H82   S    
O8    V1    S    
C97   H31   S    
C119  C120  S    
C134  H127  S    
C108  C109  S    
C105  C106  S    
C104  H58   S    
C30   C38   A    
C92   H29   S    
C95   H37   S    
C123  H97   S    
C13   C53   A    
C131  H120  S    
C47   C55   A    
C43   C44   A    
C2    C24   S    
C90   H20   S    
C112  H68   S    
C15   C55   A    
C117  H83   S    
C106  H54   S    
C84   O32   D    
C110  C111  S    
C83   O31   D    
C131  C132  S    
C128  H113  S    
C85   H13   S    
O10   V2    S    
C133  H115  S    
C18   C26   A    
C104  C105  S    
C100  H40   S    
C25   C81   S    
C123  C124  S    
C22   C30   A    
C133  H116  S    
O8    C5    A    
C133  H117  S    
C29   C85   S    
O3    V4    S    
C75   O23   D    
C13   C125  S    
C44   C52   A    
C87   O35   D    
C56   C71   A    
C128  H114  S    
C116  H85   S    
C81   H9    S    
C37   C61   A    
C51   C68   A    
C10   C50   A    
C11   C51   A    
C90   H21   S    
O4    C1    A    
C9    C49   A    
C99   C100  S    
O6    V2    S    
C39   C47   A    
C93   H27   S    
C41   C42   A    
C94   H26   S    
C14   C54   A    
C118  H81   S    
C119  H92   S    
C96   C97   S    
C136  H124  S    
C88   O36   D    
C12   C20   A    
C43   C51   A    
C114  H76   S    
C89   H23   S    
C13   C21   A    
C122  C123  S    
C134  C135  S    
C11   C19   A    
C113  H78   S    
C82   O30   D    
C74   O22   D    
C121  H89   S    
C125  H106  S    
C24   C32   A    
C63   C71   A    
C135  C136  S    
O1    C4    A    
C105  H56   S    
C39   C63   A    
O2    C3    A    
C98   H43   S    
C58   C74   S    
C100  H38   S    
O13   V3    S    
C1    C23   S    
C33   C41   A    
C86   H14   S    
C66   C92   S    
C110  H71   S    
C107  H65   S    
C25   C33   A    
C87   H15   S    
C3    C21   S    
O18   V2    S    
O18   V4    S    
C55   C72   A    
C92   H30   S    
C112  H67   S    
O7    C6    A    
O19   V1    S    
C119  H93   S    
C9    C113  S    
C7    C17   S    
C132  H119  S    
C127  H101  S    
C9    C17   A    
C124  H96   S    
C77   O25   D    
C84   H12   S    
C105  H55   S    
C27   C83   S    
C103  H45   S    
C48   C56   A    
C98   C99   S    
C126  H105  S    
C30   C86   S    
O13   C5    A    
C28   C84   S    
C127  H102  S    
O14   C6    A    
C32   C40   A    
C122  H99   S    
O5    C8    A    
C76   O24   D    
O10   C2    A    
C114  H77   S    
O6    C7    A    
C59   C67   A    
C112  H66   S    
O20   V2    S    
C74   H2    S    
C57   C73   S    
C100  H39   S    
O9    C1    A    
C37   C45   A    
C40   C48   A    
C57   C65   A    
C102  H49   S    
C45   C46   A    
C33   C57   A    
C80   O28   D    
C116  H86   S    
C81   O29   D    
C111  H70   S    
C126  C127  S    
C99   H42   S    
C52   C67   A    
C21   C29   A    
C71   C107  S    
C108  H63   S    
C62   C78   S    
C47   C48   A    
C115  H75   S    
C27   C35   A    
C129  C130  S    
C36   C44   A    
O16   C8    A    
C114  C115  S    
C76   H4    S    
C130  H110  S    
C77   H5    S    
C92   C93   S    
C109  H60   S    
C85   O33   D    
C88   H16   S    
C98   H44   S    
C16   C134  S    
C101  H50   S    
C60   C68   A    
C124  H95   S    
C102  C103  S    
C130  H108  S    
C122  H100  S    
C64   C80   S    
C103  H46   S    
C40   C64   A    
C82   H10   S    
C4    C22   S    
C83   H11   S    
C121  H87   S    
C134  H128  S    
C113  C114  S    
C69   C101  S    
