data_mof_unit_26019.cif
_audit_creation_date              2012-12-10T16:59:59-0500
_audit_creation_method            fapswitch 2.2
_symmetry_space_group_name_H-M    P1
_symmetry_Int_Tables_number       1
_space_group_crystal_system       triclinic
_cell_length_a                    14.688694
_cell_length_b                    14.954214
_cell_length_c                    10.153099
_cell_angle_alpha                 90.25375
_cell_angle_beta                  91.221109
_cell_angle_gamma                 90.173109
_cell_volume                      2229.6689608

loop_
_atom_site_label
_atom_site_type_symbol
_atom_type_description
_atom_site_fract_x
_atom_site_fract_y
_atom_site_fract_z
_atom_type_partial_charge
C1    C     C_R   0.380764 0.880429 0.498285 0.925446
C2    C     C_R   0.380796 0.119414 0.498763 0.929895
C3    C     C_R   0.880764 0.380429 0.498285 0.925440
C4    C     C_R   0.880796 0.619414 0.498763 0.929891
C5    C     C_R   0.606073 0.128939 0.501544 0.818513
C6    C     C_R   0.606617 0.871447 0.500464 0.817134
C7    C     C_R   0.106072 0.628939 0.501544 0.818512
C8    C     C_R   0.106617 0.371447 0.500464 0.817134
C9    C     C_2   0.667093 0.736127 0.394975 -0.135270
C10   C     C_2   0.661070 0.268558 0.402625 -0.146584
C11   C     C_2   0.167094 0.236128 0.394974 -0.135281
C12   C     C_2   0.161071 0.768557 0.402623 -0.146583
C13   C     C_2   0.640156 0.779708 0.504712 0.237245
C14   C     C_2   0.640254 0.220665 0.510493 0.229069
C15   C     C_2   0.140156 0.279708 0.504711 0.237249
C16   C     C_2   0.140253 0.720666 0.510491 0.229072
C17   C     C_2   0.241116 0.171836 0.404875 -0.178033
C18   C     C_2   0.237720 0.830925 0.409327 -0.177808
C19   C     C_2   0.741115 0.671835 0.404877 -0.178041
C20   C     C_2   0.737720 0.330926 0.409328 -0.177805
C21   C     C_2   0.309131 0.183515 0.493123 -0.176763
C22   C     C_2   0.308650 0.816350 0.491510 -0.171305
C23   C     C_2   0.809131 0.683515 0.493122 -0.176766
C24   C     C_2   0.808650 0.316350 0.491510 -0.171311
C25   C     C_2   0.572251 0.998560 0.930720 0.000091
C26   C     C_2   0.072251 0.498557 0.930720 0.000117
C27   C     C_2   0.570025 0.020258 0.075885 0.019135
C28   C     C_2   0.070026 0.520255 0.075885 0.019126
H1    H     H_    0.242288 0.116839 0.334365 0.180670
H2    H     H_    0.237362 0.888004 0.343188 0.172582
H3    H     H_    0.742287 0.616838 0.334367 0.180670
H4    H     H_    0.737361 0.388005 0.343191 0.172581
H5    H     H_    0.311663 0.239227 0.561755 0.187510
H6    H     H_    0.312732 0.758890 0.556002 0.185187
H7    H     H_    0.811664 0.739228 0.561754 0.187512
H8    H     H_    0.812732 0.258889 0.556000 0.185181
H9    H     H_    0.467967 0.943453 0.117602 0.256603
H10   H     H_    0.967965 0.443455 0.117603 0.256607
N1    N     N_2   0.501330 0.000000 0.852150 0.023530
N2    N     N_2   0.001330 0.500000 0.852150 0.023539
N3    N     N_2   0.501360 0.000000 0.147810 -0.168042
N4    N     N_2   0.001360 0.500000 0.147810 -0.168040
O1    O     O_R   0.409520 0.909540 0.613040 -0.520335
O2    O     O_R   0.409520 0.090460 0.613040 -0.515452
O3    O     O_R   0.909520 0.409540 0.613040 -0.520328
O4    O     O_R   0.909520 0.590460 0.613040 -0.515452
O5    O     O_R   0.409560 0.909540 0.386900 -0.608932
O6    O     O_R   0.409560 0.090460 0.386900 -0.584763
O7    O     O_R   0.909560 0.409540 0.386900 -0.608934
O8    O     O_R   0.909560 0.590460 0.386900 -0.584764
O9    O     O_R   0.590440 0.090460 0.613100 -0.601595
O10   O     O_R   0.590440 0.909540 0.613100 -0.605438
O11   O     O_R   0.090440 0.590460 0.613100 -0.601595
O12   O     O_R   0.090440 0.409540 0.613100 -0.605417
O13   O     O_R   0.590480 0.090460 0.386960 -0.636725
O14   O     O_R   0.590480 0.909540 0.386960 -0.626054
O15   O     O_R   0.090480 0.590460 0.386960 -0.636723
O16   O     O_R   0.090480 0.409540 0.386960 -0.626061
Zn1   Zn    Zn3+2 0.499970 0.000000 0.650990 1.133022
Zn2   Zn    Zn3+2 0.999970 0.500000 0.650990 1.133046
Zn3   Zn    Zn3+2 0.500030 0.000000 0.349010 1.032448
Zn4   Zn    Zn3+2 0.000030 0.500000 0.349010 1.032449
C29   C     C_2   0.630228 0.752819 0.259989 0.441665
H11   H     H_    0.673789 0.743992 0.175898 0.115978
O17   O     O_2   0.549860 0.770217 0.240835 -0.531222
C30   C     C_2   0.610913 0.261645 0.274502 0.470349
H12   H     H_    0.643506 0.283346 0.185130 0.131196
O18   O     O_2   0.531442 0.237492 0.268295 -0.526613
C31   C     C_2   0.130229 0.252821 0.259987 0.441670
H13   H     H_    0.173791 0.243994 0.175897 0.115987
O19   O     O_2   0.049862 0.270218 0.240833 -0.531215
C32   C     C_2   0.110917 0.761641 0.274498 0.470347
H14   H     H_    0.143513 0.783340 0.185126 0.131196
O20   O     O_2   0.031446 0.737490 0.268289 -0.526612
S1    S     S_3+6 0.633184 0.723288 0.659361 0.050062
O21   O     O_2   0.643190 0.623872 0.642689 -0.248500
O22   O     O_2   0.706098 0.757992 0.752523 -0.273570
O23   O     O_3   0.530919 0.744449 0.724024 -0.522512
H15   H     H_    0.535097 0.721355 0.815235 0.400614
S2    S     S_3+6 0.641016 0.271884 0.670555 0.062215
O24   O     O_2   0.714974 0.230966 0.755137 -0.271930
O25   O     O_2   0.655360 0.371315 0.662777 -0.234529
O26   O     O_3   0.540078 0.252177 0.740356 -0.513182
H16   H     H_    0.549213 0.268668 0.834324 0.402091
S3    S     S_3+6 0.133182 0.223286 0.659359 0.050051
O27   O     O_2   0.143186 0.123870 0.642682 -0.248560
O28   O     O_2   0.206095 0.257986 0.752524 -0.273511
O29   O     O_3   0.030917 0.244449 0.724021 -0.522529
H17   H     H_    0.035062 0.221266 0.815185 0.400626
S4    S     S_3+6 0.141014 0.771885 0.670553 0.062209
O30   O     O_2   0.214971 0.730969 0.755138 -0.271915
O31   O     O_2   0.155357 0.871316 0.662773 -0.234543
O32   O     O_3   0.040075 0.752179 0.740353 -0.513193
H18   H     H_    0.049204 0.768688 0.834314 0.402092
C33   C     C_2   0.662191 0.981673 0.871777 0.530124
H19   H     H_    0.675498 0.000669 0.771708 0.123523
O33   O     O_2   0.722769 0.944797 0.935112 -0.535906
C34   C     C_2   0.162191 0.481669 0.871776 0.530162
H20   H     H_    0.175499 0.500672 0.771710 0.123508
O34   O     O_2   0.222765 0.444784 0.935107 -0.535890
S5    S     S_3+6 0.388397 0.006236 0.905125 0.155932
O35   O     O_2   0.360391 0.918442 0.963872 -0.294237
O36   O     O_2   0.377386 0.081106 0.002868 -0.281551
O37   O     O_3   0.313591 0.023824 0.780970 -0.431345
H21   H     H_    0.253138 0.024467 0.822386 0.407889
S6    S     S_3+6 0.888397 0.506235 0.905125 0.155941
O38   O     O_2   0.860392 0.418440 0.963870 -0.294227
O39   O     O_2   0.877385 0.581105 0.002869 -0.281553
O40   O     O_3   0.813592 0.523824 0.780969 -0.431348
H22   H     H_    0.753137 0.524463 0.822385 0.407892
C35   C     C_2   0.653325 0.058666 0.137485 0.536680
H23   H     H_    0.682627 0.029050 0.225655 0.095157
O41   O     O_2   0.693359 0.120090 0.084782 -0.553399
C36   C     C_2   0.153328 0.558658 0.137487 0.536665
H24   H     H_    0.182627 0.529041 0.225659 0.095163
O42   O     O_2   0.193367 0.620079 0.084785 -0.553396

loop_
_geom_bond_atom_site_label_1
_geom_bond_atom_site_label_2
_ccdc_geom_bond_type
O16   Zn4   S    
C30   O18   D    
C29   O17   D    
O3    Zn2   S    
C16   S4    S    
S5    O35   D    
N2    Zn2   S    
C17   H1    S    
C33   H19   S    
N3    Zn3   S    
C19   H3    S    
C36   H24   S    
C3    O7    A    
O15   Zn4   S    
C4    O4    A    
S3    O27   D    
O32   H18   S    
H10   N4    S    
S2    O24   D    
C21   H5    S    
S6    O38   D    
O2    Zn1   S    
C31   O19   D    
C9    C13   D    
C8    O16   A    
C11   C15   D    
C1    O1    A    
C12   C16   D    
C10   C20   S    
C18   H2    S    
C14   S2    S    
N4    Zn4   S    
O1    Zn1   S    
C15   S3    S    
S3    O28   D    
C30   H12   S    
C12   C32   S    
C27   C35   S    
C1    C22   S    
S5    O36   D    
C9    C29   S    
C3    C24   S    
S2    O26   S    
O37   H21   S    
S1    O23   S    
O11   Zn2   S    
C9    C19   S    
N1    S5    S    
C10   C30   S    
C22   H6    S    
C13   S1    S    
S2    O25   D    
C10   C14   D    
C8    O12   A    
C4    C23   S    
O23   H15   S    
C1    O5    A    
O12   Zn2   S    
C2    O6    A    
C3    O3    A    
C17   C21   D    
C4    O8    A    
C19   C23   D    
S1    O21   D    
O10   Zn1   S    
C27   N3    D    
S4    O31   D    
O26   H16   S    
N1    Zn1   S    
C2    C21   S    
C11   C31   S    
C35   O41   D    
C24   H8    S    
S1    O22   D    
C5    C14   S    
C28   C36   S    
C26   C34   S    
C32   O20   D    
C7    C16   S    
C25   C33   S    
S5    O37   S    
C23   H7    S    
C25   C27   S    
O8    Zn4   S    
O9    Zn1   S    
C7    O11   A    
C2    O2    A    
S4    O32   S    
N2    S6    S    
C20   H4    S    
S3    O29   S    
C11   C17   S    
O7    Zn4   S    
C35   H23   S    
O4    Zn2   S    
C18   C22   D    
C5    O13   A    
C6    O14   A    
C32   H14   S    
O5    Zn3   S    
C36   O42   D    
C33   O33   D    
C8    C15   S    
C26   C28   S    
O40   H22   S    
C25   N1    D    
C6    C13   S    
C26   N2    D    
S4    O30   D    
S6    O39   D    
O13   Zn3   S    
C28   N4    D    
C7    O15   A    
H9    N3    S    
C31   H13   S    
C34   O34   D    
C29   H11   S    
O29   H17   S    
C34   H20   S    
C12   C18   S    
O6    Zn3   S    
O14   Zn3   S    
C5    O9    A    
C6    O10   A    
C20   C24   D    
S6    O40   S    
