data_mof_unit_25379.cif
_audit_creation_date              2012-12-10T20:49:47-0500
_audit_creation_method            fapswitch 2.2
_symmetry_space_group_name_H-M    P1
_symmetry_Int_Tables_number       1
_space_group_crystal_system       triclinic
_cell_length_a                    8.104108
_cell_length_b                    8.929432
_cell_length_c                    16.891439
_cell_angle_alpha                 90.002534
_cell_angle_beta                  85.266884
_cell_angle_gamma                 90.045719
_cell_volume                      1218.18158422

loop_
_atom_site_label
_atom_site_type_symbol
_atom_type_description
_atom_site_fract_x
_atom_site_fract_y
_atom_site_fract_z
_atom_type_partial_charge
C1    C     C_R   0.500045 0.782020 0.499984 0.943331
C2    C     C_R   0.682620 0.502543 0.215607 -0.144204
C3    C     C_R   0.590671 0.622212 0.853237 -0.091608
C4    C     C_R   0.689604 0.483685 0.133814 -0.077504
C5    C     C_R   0.451078 0.574793 0.900334 0.118601
C6    C     C_R   0.550096 0.430676 0.099156 0.133259
C7    C     C_R   0.312410 0.518065 0.866381 -0.042763
C8    C     C_R   0.408618 0.385603 0.145646 -0.041776
C9    C     C_R   0.318839 0.497497 0.784714 -0.161508
C10   C     C_R   0.400581 0.406304 0.226939 -0.151027
C11   C     C_2   0.461139 0.562319 0.985003 0.176506
C12   C     C_R   0.499954 0.217980 0.500022 0.944507
C13   C     C_2   0.541882 0.444105 0.014365 0.167629
C14   C     C_1   0.500061 0.934805 0.500000 -0.172661
C15   C     C_1   0.499937 0.065194 0.500010 -0.172529
C16   C     C_R   0.477492 0.505495 0.653165 0.869690
C17   C     C_R   0.522521 0.494734 0.346809 0.872723
C18   C     C_R   0.464533 0.532820 0.737903 -0.046941
C19   C     C_R   0.535610 0.469183 0.261890 -0.048671
C20   C     C_R   0.598282 0.599708 0.772084 -0.122222
H1    H     H_    0.204232 0.481715 0.903397 0.152687
H2    H     H_    0.424489 0.894084 0.966012 0.383553
H3    H     H_    0.301309 0.343509 0.118410 0.160176
H4    H     H_    0.799201 0.518334 0.097303 0.155173
H5    H     H_    0.697204 0.667335 0.879927 0.155591
H6    H     H_    0.709753 0.632053 0.736334 0.159969
H7    H     H_    0.788796 0.548553 0.242155 0.169876
H8    H     H_    0.287872 0.375664 0.262196 0.162135
H9    H     H_    0.213555 0.448526 0.758708 0.171440
H10   H     H_    0.875518 0.412659 0.942607 0.340907
N1    N     N_1   0.926360 0.500000 0.499990 -0.028021
N2    N     N_1   0.073640 0.500000 0.500010 -0.028011
O1    O     O_R   0.363150 0.714660 0.500000 -0.610107
O2    O     O_2   0.521207 0.240807 0.897755 -0.255068
O3    O     O_3   0.808057 0.367993 0.902354 -0.532952
O4    O     O_2   0.208699 0.648002 0.087426 -0.282905
O5    O     O_2   0.478313 0.761670 0.104532 -0.272451
O6    O     O_3   0.316658 0.851176 0.986697 -0.479322
O7    O     O_R   0.636850 0.285340 0.500000 -0.609817
O8    O     O_R   0.636850 0.714660 0.500000 -0.615474
O9    O     O_R   0.363150 0.285340 0.500000 -0.614962
O10   O     O_R   0.346950 0.500000 0.615800 -0.621471
O11   O     O_R   0.653050 0.500000 0.384200 -0.622267
O12   O     O_R   0.620700 0.500000 0.615800 -0.616282
O13   O     O_R   0.379300 0.500000 0.384200 -0.616885
O14   O     O_2   0.689335 0.173587 0.006093 -0.247260
S1    S     S_3+6 0.638785 0.300022 0.954539 0.036407
S2    S     S_3+6 0.365133 0.707025 0.044531 0.037165
Zn1   Zn    Zn3+2 0.317220 0.500000 0.500010 1.007630
Zn2   Zn    Zn3+2 0.682780 0.500000 0.499990 1.007711

loop_
_geom_bond_atom_site_label_1
_geom_bond_atom_site_label_2
_ccdc_geom_bond_type
C2    C4    A    
C17   O11   A    
O11   Zn2   S    
C5    C11   S    
C2    H7    S    
O2    S1    D    
C9    H9    S    
C5    C7    A    
C16   O12   A    
O6    S2    S    
N1    N2    T    
C12   C15   S    
O13   Zn1   S    
C10   C19   A    
O3    S1    S    
C8    H3    S    
C12   O7    A    
C1    O1    A    
C3    C20   A    
C7    H1    S    
O5    S2    D    
C11   C13   D    
C11   S2    S    
C12   O9    A    
C20   H6    S    
H10   O3    S    
O8    Zn2   S    
C6    C8    A    
C8    C10   A    
C17   C19   S    
C17   O13   A    
O4    S2    D    
C18   C20   A    
C4    H4    S    
N2    Zn1   S    
C4    C6    A    
N1    Zn2   S    
O1    Zn1   S    
H2    O6    S    
C16   O10   A    
C9    C18   A    
C3    H5    S    
O7    Zn2   S    
C16   C18   S    
C10   H8    S    
C7    C9    A    
C14   C15   T    
O12   Zn2   S    
C1    C14   S    
O10   Zn1   S    
C1    O8    A    
C3    C5    A    
C2    C19   A    
O14   S1    D    
C13   S1    S    
O9    Zn1   S    
C6    C13   S    
