data_mof_unit_41206.cif
_audit_creation_date              2012-12-11T15:56:38-0500
_audit_creation_method            fapswitch 2.2
_symmetry_space_group_name_H-M    P1
_symmetry_Int_Tables_number       1
_space_group_crystal_system       triclinic
_cell_length_a                    14.633484
_cell_length_b                    7.237483
_cell_length_c                    13.738256
_cell_angle_alpha                 89.718623
_cell_angle_beta                  100.343328
_cell_angle_gamma                 89.700908
_cell_volume                      1431.32366101

loop_
_atom_site_label
_atom_site_type_symbol
_atom_type_description
_atom_site_fract_x
_atom_site_fract_y
_atom_site_fract_z
_atom_type_partial_charge
O1    O     O_R   0.336930 0.638190 0.166330 -0.541119
O2    O     O_R   0.663070 0.361810 0.833670 -0.538881
O3    O     O_R   0.163070 0.138190 0.333670 -0.543701
O4    O     O_R   0.836930 0.861810 0.666330 -0.533821
O5    O     O_R   0.147900 0.305430 0.139630 -0.535778
O6    O     O_R   0.852100 0.694570 0.860370 -0.531137
O7    O     O_R   0.352100 0.805430 0.360370 -0.529797
O8    O     O_R   0.647900 0.194570 0.639630 -0.533411
C1    C     C_R   0.115497 0.478010 0.113115 0.708855
C2    C     C_R   0.885767 0.522365 0.885371 0.706170
C3    C     C_R   0.383950 0.977195 0.387690 0.724070
C4    C     C_R   0.615157 0.022868 0.613376 0.703310
O9    O     O_R   0.335280 0.308290 0.154310 -0.545875
O10   O     O_R   0.664720 0.691710 0.845690 -0.545115
O11   O     O_R   0.164720 0.808290 0.345690 -0.539247
O12   O     O_R   0.835280 0.191710 0.654310 -0.547462
O13   O     O_R   0.351790 0.140890 0.348460 -0.532582
O14   O     O_R   0.648210 0.859110 0.651540 -0.528309
O15   O     O_R   0.148210 0.640890 0.151540 -0.529699
O16   O     O_R   0.851790 0.359110 0.848460 -0.534811
C5    C     C_R   0.364524 0.478534 0.133517 0.673240
C6    C     C_R   0.638782 0.521300 0.869488 0.692984
C7    C     C_R   0.131676 0.977399 0.361851 0.674107
C8    C     C_R   0.861308 0.021999 0.630089 0.671144
O17   O     O_3   0.255200 0.472570 0.313680 -0.372852
O18   O     O_3   0.744800 0.527430 0.686320 -0.373875
O19   O     O_3   0.244800 0.972570 0.186320 -0.382535
O20   O     O_3   0.755200 0.027430 0.813680 -0.387789
V1    V     V_3+5 0.249040 0.196590 0.238190 1.388070
V2    V     V_3+5 0.750960 0.803410 0.761810 1.389574
V3    V     V_3+5 0.250960 0.696590 0.261810 1.406248
V4    V     V_3+5 0.749040 0.303410 0.738190 1.372730
C9    C     C_R   0.023703 0.830488 0.464136 -0.215255
C10   C     C_R   0.953006 0.167023 0.509956 -0.210050
C11   C     C_R   0.485651 0.337729 0.048155 -0.249189
C12   C     C_R   0.522262 0.664558 0.958488 -0.221016
H1    H     H_    0.053549 0.699463 0.450623 0.125429
H2    H     H_    0.926869 0.297627 0.529333 0.122696
H3    H     H_    0.472249 0.215543 0.085611 0.154675
H4    H     H_    0.536794 0.794423 0.925022 0.125020
C13   C     C_R   0.948145 0.837056 0.515435 0.094102
C14   C     C_R   0.004217 0.155184 0.431758 0.108258
C15   C     C_R   0.559454 0.342881 0.994497 0.126878
C16   C     C_R   0.462181 0.664086 0.028131 0.094224
C17   C     C_R   0.923856 0.007924 0.553956 -0.086797
C18   C     C_R   0.054281 0.989764 0.421396 -0.094679
C19   C     C_R   0.572669 0.506905 0.940949 -0.073565
C20   C     C_R   0.435349 0.494089 0.066082 -0.087044
C21   C     C_1   0.533471 0.008766 0.533714 -0.183189
C22   C     C_1   0.465273 0.991233 0.467844 -0.177558
C23   C     C_1   0.967162 0.508181 0.965471 -0.177302
C24   C     C_1   0.034778 0.492571 0.032308 -0.184264
C25   C     C_3   0.885379 0.670773 0.510088 -0.358509
C26   C     C_3   0.785768 0.716268 0.455072 -0.261898
C27   C     C_3   0.720518 0.549774 0.446894 -0.710328
H5    H     H_    0.749010 0.436517 0.498454 0.236813
H6    H     H_    0.652137 0.592298 0.464126 0.216860
H7    H     H_    0.707903 0.495830 0.370179 0.191200
H8    H     H_    0.754153 0.828380 0.492676 0.182428
H9    H     H_    0.788650 0.769048 0.379580 0.175987
H10   H     H_    0.913538 0.565459 0.466988 0.166900
H11   H     H_    0.886125 0.609031 0.584173 0.196707
C28   C     C_3   0.993331 0.309083 0.354954 -0.349241
C29   C     C_3   0.891286 0.343966 0.308411 -0.351640
C30   C     C_3   0.880642 0.523265 0.247759 -0.770587
H12   H     H_    0.921021 0.515599 0.186889 0.225986
H13   H     H_    0.806384 0.548066 0.215927 0.217990
H14   H     H_    0.906504 0.642726 0.294747 0.232603
H15   H     H_    0.865549 0.225122 0.260904 0.194592
H16   H     H_    0.846637 0.350834 0.364917 0.209649
H17   H     H_    0.026578 0.433680 0.389830 0.165420
H18   H     H_    0.026122 0.277719 0.290718 0.193974
C31   C     C_3   0.626569 0.178657 0.006622 -0.335938
C32   C     C_3   0.713065 0.208090 0.086723 -0.364264
C33   C     C_3   0.796091 0.267283 0.042805 -0.663464
H19   H     H_    0.804848 0.174223 0.981558 0.255781
H20   H     H_    0.786278 0.412818 0.017854 0.205615
H21   H     H_    0.860861 0.255378 0.097888 0.198508
H22   H     H_    0.698973 0.310882 0.142109 0.197156
H23   H     H_    0.731904 0.075541 0.127004 0.180498
H24   H     H_    0.593745 0.058305 0.032852 0.144057
H25   H     H_    0.642593 0.125940 0.936410 0.204579
C34   C     C_3   0.455468 0.843404 0.081122 -0.328006
C35   C     C_3   0.529514 0.837118 0.177590 -0.281879
C36   C     C_3   0.539433 0.014372 0.237663 -0.801099
H26   H     H_    0.584681 0.113879 0.208033 0.218501
H27   H     H_    0.470767 0.078087 0.238029 0.247844
H28   H     H_    0.573360 0.982680 0.314891 0.211125
H29   H     H_    0.511558 0.725066 0.226311 0.196029
H30   H     H_    0.598743 0.801674 0.159809 0.184076
H31   H     H_    0.465413 0.952874 0.029442 0.127996
H32   H     H_    0.385462 0.880804 0.093565 0.203901

loop_
_geom_bond_atom_site_label_1
_geom_bond_atom_site_label_2
_ccdc_geom_bond_type
C15   C31   S    
C27   H5    S    
O1    C5    A    
O19   V1    S    
O13   V1    S    
C31   C32   S    
O3    C7    A    
C10   C14   A    
C16   C34   S    
O15   V3    S    
C4    C21   S    
C26   H9    S    
C36   H26   S    
O18   V4    S    
C34   H32   S    
C8    C17   S    
O9    V1    S    
O4    C8    A    
C2    C23   S    
O1    V3    S    
C12   C19   A    
O2    V4    S    
C14   C18   A    
O3    V1    S    
C25   H10   S    
C1    O15   A    
C2    O16   A    
C30   H13   S    
O2    C6    A    
O14   V2    S    
C29   H16   S    
C11   C15   A    
C5    C20   S    
O11   C7    A    
C6    C19   S    
O12   C8    A    
C7    C18   S    
C32   H23   S    
C9    C18   A    
C1    C24   S    
C35   H30   S    
O10   V2    S    
C11   C20   A    
C31   H24   S    
O7    C3    A    
O5    V1    S    
C26   H8    S    
C36   H27   S    
O7    V3    S    
C32   C33   S    
C23   C24   T    
O8    V4    S    
C12   H4    S    
C35   C36   S    
C25   C26   S    
C9    H1    S    
C11   H3    S    
C33   H19   S    
O5    C1    A    
C25   H11   S    
C34   C35   S    
O8    C4    A    
C30   H14   S    
O9    C5    A    
C10   C17   A    
C29   H15   S    
C33   H20   S    
C13   C25   S    
O6    V2    S    
C28   H17   S    
C30   H12   S    
C32   H22   S    
C27   H6    S    
C12   C16   A    
C35   H29   S    
C31   H25   S    
O16   V4    S    
C36   H28   S    
C26   C27   S    
C3    O13   A    
C10   H2    S    
O17   V3    S    
O6    C2    A    
O11   V3    S    
O12   V4    S    
C34   H31   S    
C9    C13   A    
C29   C30   S    
O10   C6    A    
O20   V2    S    
C3    C22   S    
C33   H21   S    
C28   C29   S    
C28   H18   S    
C21   C22   T    
C27   H7    S    
C4    O14   A    
C13   C17   A    
C15   C19   A    
C14   C28   S    
O4    V2    S    
C16   C20   A    
