data_mof_unit_65099.cif
_audit_creation_date              2012-10-26T18:47:24-0400
_audit_creation_method            fapswitch 2.2
_symmetry_space_group_name_H-M    P1
_symmetry_Int_Tables_number       1
_space_group_crystal_system       triclinic
_cell_length_a                    23.990849
_cell_length_b                    24.457428
_cell_length_c                    15.863696
_cell_angle_alpha                 90.102034
_cell_angle_beta                  99.291046
_cell_angle_gamma                 90.021489
_cell_volume                      9185.96450714

loop_
_atom_site_label
_atom_site_type_symbol
_atom_type_description
_atom_site_fract_x
_atom_site_fract_y
_atom_site_fract_z
_atom_type_partial_charge
Br1   Br    Br    0.448930 0.828765 0.363307 -0.477925
Br2   Br    Br    0.391147 0.973977 0.870871 -0.545609
Br3   Br    Br    0.114151 0.502433 0.135407 -0.587418
Br4   Br    Br    0.891201 0.473873 0.870937 -0.545529
Br5   Br    Br    0.630347 0.003306 0.720016 -0.480030
Br6   Br    Br    0.369749 0.003042 0.276107 -0.471916
Br7   Br    Br    0.130346 0.503391 0.719987 -0.480075
Br8   Br    Br    0.869750 0.503057 0.276085 -0.471835
Br9   Br    Br    0.547501 0.175946 0.623140 -0.500155
Br10  Br    Br    0.551937 0.829360 0.637885 -0.484980
Br11  Br    Br    0.448180 0.172871 0.366958 -0.512336
Br12  Br    Br    0.948900 0.328783 0.363243 -0.477685
Br13  Br    Br    0.047442 0.675983 0.623006 -0.500422
Br14  Br    Br    0.051637 0.329181 0.637295 -0.485015
Br15  Br    Br    0.947908 0.672710 0.366404 -0.512425
Br16  Br    Br    0.614130 0.002513 0.135362 -0.587562
C1    C     C_R   0.425285 0.076318 0.489806 0.596632
C2    C     C_R   0.490048 0.009896 0.109042 0.216469
C3    C     C_3   0.328785 0.251541 0.292604 -0.419871
C4    C     C_3   0.854125 0.239531 0.375278 -0.247297
C5    C     C_3   0.885566 0.191470 0.422439 -0.419209
C6    C     C_3   0.140783 0.764900 0.604823 -0.253686
C7    C     C_3   0.164359 0.757228 0.699626 -0.414684
C8    C     C_3   0.146504 0.239977 0.624818 -0.247812
C9    C     C_3   0.116380 0.190988 0.577988 -0.418801
C10   C     C_3   0.855199 0.761867 0.384854 -0.251364
C11   C     C_3   0.828308 0.751108 0.292089 -0.419874
C12   C     C_3   0.620402 0.990795 0.913836 -0.244242
C13   C     C_R   0.013270 0.491601 0.891896 0.211374
C14   C     C_3   0.643043 0.047834 0.939336 -0.381532
C15   C     C_3   0.385397 0.034390 0.088171 -0.249897
C16   C     C_3   0.372891 0.094365 0.104885 -0.416721
C17   C     C_3   0.120427 0.491078 0.913844 -0.244246
C18   C     C_3   0.142801 0.548202 0.939372 -0.381601
C19   C     C_3   0.885423 0.534424 0.088156 -0.249890
C20   C     C_3   0.872917 0.594395 0.104898 -0.416755
C21   C     C_R   0.990067 0.509896 0.109049 0.216441
C22   C     C_R   0.563630 0.994162 0.856242 -0.019114
C23   C     C_R   0.439536 0.015899 0.143996 -0.007534
C24   C     C_R   0.063650 0.494252 0.856237 -0.019193
C25   C     C_R   0.939553 0.515918 0.143992 -0.007461
C26   C     C_R   0.560820 0.999205 0.766287 0.311053
C27   C     C_R   0.440270 0.007084 0.232865 0.313373
C28   C     C_R   0.060826 0.499259 0.766276 0.310914
C29   C     C_R   0.574363 0.923329 0.510148 0.591485
C30   C     C_R   0.940276 0.507099 0.232858 0.313506
C31   C     C_R   0.386154 0.877431 0.486039 0.019919
C32   C     C_R   0.615329 0.120991 0.513528 0.025415
C33   C     C_R   0.613722 0.877366 0.513555 0.020052
C34   C     C_R   0.385039 0.121420 0.486558 0.024850
C35   C     C_R   0.886158 0.377428 0.486039 0.019973
C36   C     C_R   0.115331 0.620986 0.513529 0.025412
C37   C     C_R   0.113742 0.377391 0.513554 0.020138
C38   C     C_R   0.885053 0.621441 0.486557 0.024816
C39   C     C_R   0.349498 0.876617 0.545602 -0.155305
C40   C     C_R   0.574845 0.076164 0.510264 0.597098
C41   C     C_R   0.654935 0.117881 0.458723 -0.161920
C42   C     C_R   0.649801 0.876160 0.453178 -0.156217
C43   C     C_R   0.347228 0.120121 0.544344 -0.163132
C44   C     C_R   0.849521 0.376598 0.545630 -0.155275
C45   C     C_R   0.154967 0.617852 0.458776 -0.161929
C46   C     C_R   0.149975 0.376314 0.453396 -0.156229
C47   C     C_R   0.847375 0.620250 0.544551 -0.163129
C48   C     C_R   0.313735 0.832474 0.551774 0.029516
C49   C     C_R   0.689874 0.161883 0.447836 0.029695
C50   C     C_R   0.685344 0.831931 0.446587 0.030336
C51   C     C_R   0.425594 0.923356 0.489742 0.590330
C52   C     C_R   0.312151 0.164257 0.553842 0.029877
C53   C     C_R   0.813762 0.332452 0.551798 0.029522
C54   C     C_R   0.189911 0.661848 0.447882 0.029693
C55   C     C_R   0.185530 0.332099 0.446768 0.030377
C56   C     C_R   0.812311 0.664401 0.554013 0.029864
C57   C     C_R   0.312368 0.788310 0.492945 0.210847
C58   C     C_R   0.688457 0.209611 0.499202 0.212083
C59   C     C_R   0.687434 0.788246 0.506173 0.209977
C60   C     C_R   0.311603 0.210177 0.498514 0.212522
C61   C     C_R   0.812368 0.288309 0.492930 0.210848
C62   C     C_R   0.925292 0.576327 0.489806 0.596608
C63   C     C_R   0.188461 0.709601 0.499184 0.212079
C64   C     C_R   0.187440 0.288273 0.506082 0.209995
C65   C     C_R   0.811604 0.710201 0.498419 0.212517
C66   C     C_R   0.351600 0.787817 0.434341 0.030760
C67   C     C_R   0.647004 0.213334 0.554122 0.029543
C68   C     C_R   0.648702 0.788070 0.565570 0.030152
C69   C     C_R   0.351351 0.212237 0.440709 0.030343
C70   C     C_R   0.851581 0.287830 0.434298 0.030757
C71   C     C_R   0.146979 0.713347 0.554053 0.029540
C72   C     C_R   0.148553 0.287978 0.565249 0.030178
C73   C     C_R   0.074371 0.423339 0.510148 0.591520
C74   C     C_R   0.851210 0.712158 0.440389 0.030329
C75   C     C_R   0.388993 0.832331 0.431887 0.151610
C76   C     C_R   0.609931 0.168999 0.560028 0.155835
C77   C     C_R   0.611302 0.832558 0.568208 0.149460
C78   C     C_R   0.388479 0.167837 0.435711 0.155390
C79   C     C_R   0.888979 0.332341 0.431855 0.151717
C80   C     C_R   0.109907 0.669013 0.559969 0.155725
C81   C     C_R   0.111174 0.332478 0.567942 0.149430
C82   C     C_R   0.888359 0.667765 0.435453 0.155440
C83   C     C_R   0.460917 0.995817 0.746114 0.036311
C84   C     C_R   0.074845 0.576163 0.510264 0.597021
C85   C     C_R   0.539591 0.997362 0.255288 0.041887
C86   C     C_R   0.960926 0.495770 0.746131 0.036230
C87   C     C_R   0.039593 0.497344 0.255299 0.041957
C88   C     C_R   0.461476 0.990615 0.834598 0.135870
C89   C     C_R   0.540774 0.001381 0.167275 0.140300
C90   C     C_R   0.961503 0.490569 0.834621 0.135867
C91   C     C_R   0.040786 0.501357 0.167290 0.140294
C92   C     C_3   0.724024 0.157097 0.376035 -0.252782
C93   C     C_3   0.702926 0.196918 0.303727 -0.408007
C94   C     C_3   0.282429 0.832710 0.627185 -0.252883
C95   C     C_R   0.925595 0.423355 0.489742 0.590436
C96   C     C_3   0.239266 0.879211 0.620705 -0.433031
C97   C     C_3   0.279462 0.161456 0.627549 -0.252177
C98   C     C_3   0.300099 0.204365 0.695699 -0.411090
C99   C     C_3   0.715426 0.831495 0.369895 -0.254046
C100  C     C_3   0.758972 0.877620 0.374730 -0.433996
C101  C     C_3   0.224100 0.657028 0.376133 -0.252787
C102  C     C_3   0.203018 0.696806 0.303757 -0.408046
C103  C     C_3   0.782489 0.332660 0.627242 -0.252868
C104  C     C_3   0.739328 0.379160 0.620833 -0.433018
C105  C     C_3   0.779810 0.661750 0.627945 -0.252175
C106  C     C_R   0.513239 0.991580 0.891887 0.211373
C107  C     C_3   0.800542 0.704821 0.695784 -0.411095
C108  C     C_3   0.215832 0.331851 0.370300 -0.254036
C109  C     C_3   0.259451 0.377940 0.375703 -0.434007
C110  C     C_3   0.354174 0.739498 0.375367 -0.247289
C111  C     C_3   0.385628 0.691462 0.422579 -0.419232
C112  C     C_3   0.640838 0.264865 0.604957 -0.253691
C113  C     C_3   0.664450 0.257154 0.699740 -0.414681
C114  C     C_3   0.646845 0.740205 0.625452 -0.247808
C115  C     C_3   0.616693 0.691094 0.579030 -0.418810
C116  C     C_3   0.355520 0.262068 0.385504 -0.251370
Cu1   Cu    Cu3+1 0.496180 0.000000 0.414950 1.077752
Cu2   Cu    Cu3+1 0.503820 0.000000 0.585050 1.077275
Cu3   Cu    Cu3+1 0.996180 0.500000 0.414950 1.077858
Cu4   Cu    Cu3+1 0.003820 0.500000 0.585050 1.077174
H1    H     H_    0.656499 0.081184 0.420617 0.123762
H2    H     H_    0.421036 0.994260 0.703164 0.147705
H3    H     H_    0.333261 0.106835 0.063152 0.150462
H4    H     H_    0.388050 0.030779 0.019698 0.221474
H5    H     H_    0.349341 0.008171 0.098470 0.196487
H6    H     H_    0.149715 0.571730 0.882168 0.181942
H7    H     H_    0.112303 0.570740 0.972255 0.202018
H8    H     H_    0.183643 0.544909 0.983334 0.173983
H9    H     H_    0.117347 0.466489 0.971311 0.216874
H10   H     H_    0.151761 0.468511 0.882903 0.182649
H11   H     H_    0.867600 0.601078 0.172331 0.205643
H12   H     H_    0.907964 0.620657 0.090448 0.171871
H13   H     H_    0.078874 0.493243 0.299138 0.152183
H14   H     H_    0.833354 0.606905 0.063035 0.150351
H15   H     H_    0.888089 0.530830 0.019682 0.221419
H16   H     H_    0.849360 0.508205 0.098422 0.196484
H17   H     H_    0.921042 0.494175 0.703194 0.147672
H18   H     H_    0.708197 0.239962 0.325728 0.183551
H19   H     H_    0.727178 0.190826 0.250467 0.138459
H20   H     H_    0.657545 0.189260 0.279212 0.177077
H21   H     H_    0.769261 0.161928 0.401081 0.166042
H22   H     H_    0.720685 0.115353 0.347721 0.141013
H23   H     H_    0.211570 0.878651 0.557447 0.165526
H24   H     H_    0.212895 0.874840 0.671678 0.144892
H25   H     H_    0.350401 0.910219 0.590510 0.135195
H26   H     H_    0.260789 0.919483 0.629349 0.157023
H27   H     H_    0.261776 0.793198 0.634586 0.181114
H28   H     H_    0.313355 0.838265 0.686807 0.164608
H29   H     H_    0.345999 0.199006 0.718853 0.173422
H30   H     H_    0.277244 0.199350 0.750737 0.133780
H31   H     H_    0.292564 0.246403 0.670331 0.185253
H32   H     H_    0.233914 0.164313 0.603477 0.165775
H33   H     H_    0.284594 0.120939 0.659587 0.135787
H34   H     H_    0.787632 0.876970 0.437144 0.166651
H35   H     H_    0.784295 0.872832 0.322495 0.143007
H36   H     H_    0.346902 0.084684 0.585322 0.122592
H37   H     H_    0.737811 0.918062 0.366963 0.157214
H38   H     H_    0.735384 0.791717 0.361873 0.181005
H39   H     H_    0.683803 0.837043 0.311079 0.157491
H40   H     H_    0.208265 0.739863 0.325703 0.183545
H41   H     H_    0.227298 0.690691 0.250536 0.138445
H42   H     H_    0.157647 0.689128 0.279209 0.177044
H43   H     H_    0.269329 0.661880 0.401217 0.166053
H44   H     H_    0.220789 0.615268 0.347875 0.140971
H45   H     H_    0.711611 0.378619 0.557591 0.165522
H46   H     H_    0.712980 0.374774 0.671833 0.144910
H47   H     H_    0.648539 0.909469 0.407866 0.133959
H48   H     H_    0.760853 0.419430 0.629484 0.157043
H49   H     H_    0.761841 0.293143 0.634631 0.181116
H50   H     H_    0.813437 0.338195 0.686846 0.164633
H51   H     H_    0.777827 0.699922 0.750997 0.133728
H52   H     H_    0.792910 0.746798 0.670204 0.185251
H53   H     H_    0.846475 0.699536 0.718745 0.173457
H54   H     H_    0.734230 0.664528 0.604078 0.165767
H55   H     H_    0.785057 0.621308 0.660203 0.135810
H56   H     H_    0.287977 0.377093 0.438227 0.166720
H57   H     H_    0.284911 0.373286 0.323608 0.142947
H58   H     H_    0.156550 0.581139 0.420711 0.123706
H59   H     H_    0.238345 0.418415 0.368114 0.157085
H60   H     H_    0.235773 0.292085 0.362137 0.181004
H61   H     H_    0.184353 0.337577 0.311370 0.157505
H62   H     H_    0.430208 0.703056 0.446126 0.188634
H63   H     H_    0.365516 0.678783 0.477736 0.168380
H64   H     H_    0.385176 0.656171 0.378356 0.137846
H65   H     H_    0.311171 0.727952 0.345900 0.144709
H66   H     H_    0.374729 0.749669 0.319749 0.195771
H67   H     H_    0.637750 0.228804 0.730331 0.206981
H68   H     H_    0.707886 0.240209 0.708162 0.155037
H69   H     H_    0.850438 0.410188 0.590564 0.135207
H70   H     H_    0.665397 0.297089 0.733272 0.139965
H71   H     H_    0.662221 0.299655 0.579851 0.156607
H72   H     H_    0.595832 0.277374 0.597474 0.188190
H73   H     H_    0.572024 0.701679 0.554289 0.187265
H74   H     H_    0.637580 0.678029 0.524811 0.169020
H75   H     H_    0.617392 0.656360 0.624154 0.137333
H76   H     H_    0.689992 0.729872 0.655773 0.142967
H77   H     H_    0.625678 0.750337 0.680483 0.194644
H78   H     H_    0.354474 0.222423 0.261457 0.200004
H79   H     H_    0.285704 0.234202 0.288915 0.153976
H80   H     H_    0.847146 0.584892 0.585715 0.122764
H81   H     H_    0.326074 0.290494 0.256378 0.138822
H82   H     H_    0.335211 0.297687 0.410250 0.155838
H83   H     H_    0.400272 0.274616 0.388510 0.189039
H84   H     H_    0.930152 0.203045 0.445982 0.188630
H85   H     H_    0.865460 0.178780 0.477596 0.168409
H86   H     H_    0.885092 0.156193 0.378181 0.137843
H87   H     H_    0.811112 0.228010 0.345819 0.144704
H88   H     H_    0.874676 0.249713 0.319660 0.195770
H89   H     H_    0.137648 0.728888 0.730215 0.206970
H90   H     H_    0.207799 0.740290 0.708107 0.155038
H91   H     H_    0.148830 0.409722 0.408281 0.133741
H92   H     H_    0.165283 0.797176 0.733115 0.139948
H93   H     H_    0.162176 0.799680 0.579706 0.156609
H94   H     H_    0.095775 0.777404 0.597283 0.188176
H95   H     H_    0.071754 0.201654 0.553103 0.187286
H96   H     H_    0.137385 0.178037 0.523832 0.169065
H97   H     H_    0.116943 0.156148 0.622890 0.137293
H98   H     H_    0.189591 0.229546 0.655290 0.142958
H99   H     H_    0.125212 0.249999 0.679763 0.194656
H100  H     H_    0.853950 0.721919 0.260990 0.199934
H101  H     H_    0.785255 0.733753 0.288691 0.153962
H102  H     H_    0.578877 0.993277 0.299120 0.152130
H103  H     H_    0.825497 0.789972 0.255624 0.138805
H104  H     H_    0.834895 0.797525 0.409496 0.155856
H105  H     H_    0.899916 0.774455 0.387589 0.189026
H106  H     H_    0.650238 0.071237 0.882161 0.182049
H107  H     H_    0.612572 0.070595 0.971971 0.201987
H108  H     H_    0.683782 0.044384 0.983519 0.174111
H109  H     H_    0.617228 0.966267 0.971329 0.216816
H110  H     H_    0.651618 0.968066 0.882876 0.182587
H111  H     H_    0.367696 0.101084 0.172361 0.205549
H112  H     H_    0.407880 0.120631 0.090238 0.171781
N1    N     N_2   0.275811 0.742448 0.495912 -0.257898
N2    N     N_R   0.490370 0.000000 0.287200 -0.237662
N3    N     N_R   0.009630 0.500000 0.712800 -0.236762
N4    N     N_R   0.990370 0.500000 0.287200 -0.237650
N5    N     N_2   0.516242 0.983773 0.982747 -0.157890
N6    N     N_2   0.488539 0.017734 0.018367 -0.189574
N7    N     N_2   0.016293 0.483796 0.982759 -0.157786
N8    N     N_2   0.988562 0.517733 0.018375 -0.189739
N9    N     N_2   0.725132 0.255165 0.493637 -0.257342
N10   N     N_2   0.724400 0.742632 0.503756 -0.258312
N11   N     N_2   0.274681 0.255678 0.502837 -0.257751
N12   N     N_2   0.775804 0.242451 0.495880 -0.257902
N13   N     N_2   0.225132 0.755156 0.493603 -0.257336
N14   N     N_2   0.224379 0.242644 0.503595 -0.258285
N15   N     N_2   0.774657 0.755691 0.502675 -0.257755
N16   N     N_R   0.509630 0.000000 0.712800 -0.236734
O1    O     O_R   0.439460 0.057000 0.420280 -0.430376
O2    O     O_R   0.554060 0.943030 0.436080 -0.520416
O3    O     O_R   0.554060 0.056970 0.436080 -0.514377
O4    O     O_R   0.445940 0.943030 0.563920 -0.518534
O5    O     O_R   0.945940 0.556970 0.563920 -0.514632
O6    O     O_R   0.054060 0.443030 0.436080 -0.520328
O7    O     O_R   0.054060 0.556970 0.436080 -0.514419
O8    O     O_R   0.945940 0.443030 0.563920 -0.518493
O9    O     O_R   0.560540 0.943000 0.579720 -0.425733
O10   O     O_R   0.560540 0.057000 0.579720 -0.426316
O11   O     O_R   0.439460 0.943000 0.420280 -0.423260
O12   O     O_R   0.939460 0.557000 0.420280 -0.430277
O13   O     O_R   0.060540 0.443000 0.579720 -0.425838
O14   O     O_R   0.060540 0.557000 0.579720 -0.426318
O15   O     O_R   0.939460 0.443000 0.420280 -0.423275
O16   O     O_R   0.445940 0.056970 0.563920 -0.514565

loop_
_geom_bond_atom_site_label_1
_geom_bond_atom_site_label_2
_ccdc_geom_bond_type
C45   C54   A    
Br5   C26   S    
C70   C79   A    
C9    H96   S    
C110  C111  S    
Cu1   O11   S    
C96   H23   S    
C56   C105  S    
C33   C42   A    
C32   C41   A    
C49   C58   A    
C53   C61   A    
N10   N15   D    
C32   C76   A    
C62   O12   A    
C67   C112  S    
N11   N14   D    
C12   C22   S    
C111  H64   S    
C106  N5    S    
C63   C71   A    
C7    H92   S    
C10   H105  S    
C11   H103  S    
C98   H31   S    
C110  H66   S    
C67   C76   A    
C18   H8    S    
C10   C11   S    
C5    H85   S    
C100  H37   S    
C16   H112  S    
C21   C25   A    
Cu3   O15   S    
C87   N4    A    
C74   C82   A    
C83   H2    S    
C21   C91   A    
C99   H38   S    
C36   C45   A    
C69   C116  S    
N5    N6    D    
C29   O9    A    
C59   C68   A    
C92   H22   S    
C38   C47   A    
C109  H59   S    
C54   C101  S    
C99   C100  S    
N7    N8    D    
C92   C93   S    
C114  H77   S    
Cu3   O12   S    
C37   C46   A    
C62   O5    A    
C107  H52   S    
C93   H20   S    
C40   O3    A    
C66   C110  S    
C99   H39   S    
C20   H11   S    
C113  H68   S    
C114  H76   S    
C20   H12   S    
C9    H95   S    
C85   N2    A    
Cu2   N16   S    
C61   N12   S    
C4    C70   S    
C115  H73   S    
C1    O1    A    
C25   C30   A    
Br12  C79   S    
C98   H30   S    
Cu4   O5    S    
C3    H81   S    
C112  H71   S    
C109  H57   S    
C47   H80   S    
C107  H53   S    
C104  H45   S    
Cu3   N4    S    
C49   C92   S    
C116  H82   S    
C72   C81   A    
C101  H44   S    
C52   C97   S    
C68   C77   A    
Cu3   Cu4   S    
C83   C88   A    
C54   C63   A    
C102  H40   S    
Br1   C75   S    
C14   H108  S    
C112  C113  S    
Cu2   O4    S    
C46   C55   A    
C19   H15   S    
C95   O8    A    
C97   H32   S    
C19   C25   S    
Br9   C76   S    
C31   C51   S    
C55   C64   A    
C7    H89   S    
C42   C50   A    
Cu1   O3    S    
C57   N1    S    
C110  H65   S    
C85   C89   A    
C37   C73   S    
C60   N11   S    
C18   H7    S    
C17   C24   S    
C105  C107  S    
C50   C99   S    
Br13  C80   S    
C100  H34   S    
C86   N3    A    
C58   C67   A    
C55   C108  S    
Cu1   O2    S    
C46   H91   S    
C8    C9    S    
C39   H25   S    
C16   H3    S    
C26   N16   A    
C5    H86   S    
C105  H54   S    
C94   H28   S    
C34   C78   A    
C97   H33   S    
C92   H21   S    
C16   H111  S    
Br10  C77   S    
Br3   C91   S    
Br7   C28   S    
Br4   C90   S    
C108  H61   S    
C36   C84   S    
Cu3   O6    S    
C2    N6    S    
C66   C75   A    
C73   O6    A    
C100  H35   S    
C42   H47   S    
C19   C20   S    
C95   O15   A    
C15   H5    S    
Cu4   O14   S    
C2    C23   A    
C103  H49   S    
C105  H55   S    
C51   O4    A    
C43   C52   A    
C116  H83   S    
C8    C72   S    
C69   C78   A    
C28   N3    A    
C48   C94   S    
C15   C16   S    
C6    H94   S    
C59   N10   S    
C29   C33   S    
C48   C57   A    
C21   N8    S    
C39   C48   A    
C108  H60   S    
C115  H74   S    
C73   O13   A    
C17   C18   S    
C4    H88   S    
C41   H1    S    
Cu4   O8    S    
Cu4   N3    S    
C12   H110  S    
C6    C71   S    
C4    C5    S    
Cu1   O1    S    
C93   H18   S    
C104  H48   S    
C86   H17   S    
C30   N4    A    
Cu3   O7    S    
C22   C106  A    
C17   H9    S    
Br16  C89   S    
C65   C74   A    
C11   H100  S    
Br11  C78   S    
C29   O2    A    
Br2   C88   S    
C65   N15   S    
C14   H107  S    
C115  H75   S    
Cu1   Cu2   S    
Cu2   O10   S    
C13   C90   A    
C52   C60   A    
C5    H84   S    
C34   C43   A    
Br15  C82   S    
C43   H36   S    
C111  H62   S    
C102  H42   S    
C57   C66   A    
C7    H90   S    
C11   H101  S    
Br14  C81   S    
C31   C39   A    
C97   C98   S    
C58   N9    S    
C3    C116  S    
C32   C40   S    
C18   H6    S    
C35   C95   S    
C96   H24   S    
C84   O14   A    
C85   H102  S    
C31   C75   A    
C56   C65   A    
C41   C49   A    
C111  H63   S    
C1    C34   S    
C61   C70   A    
C23   C27   A    
C103  C104  S    
C71   C80   A    
C22   C26   A    
C10   C74   S    
C96   H26   S    
C14   H106  S    
Br6   C27   S    
N9    N12   D    
C37   C81   A    
C3    H78   S    
C12   C14   S    
Cu4   O13   S    
C2    C89   A    
Cu2   O16   S    
C98   H29   S    
C64   C72   A    
C8    H99   S    
C101  C102  S    
C94   H27   S    
C40   O10   A    
C113  H70   S    
C27   N2    A    
C20   H14   S    
C83   N16   A    
C6    H93   S    
C44   C53   A    
C63   N13   S    
C50   C59   A    
C60   C69   A    
C13   C24   A    
C68   C114  S    
C4    H87   S    
C53   C103  S    
C51   O11   A    
C36   C80   A    
C109  H56   S    
C3    H79   S    
C12   H109  S    
C44   H69   S    
C107  H51   S    
C93   H19   S    
C94   C96   S    
C103  H50   S    
C1    O16   A    
C8    H98   S    
C17   H10   S    
C87   H13   S    
C9    H97   S    
C113  H67   S    
C102  H41   S    
C10   H104  S    
C24   C28   A    
C88   C106  A    
C47   C56   A    
Cu1   N2    S    
C19   H16   S    
C86   C90   A    
C114  C115  S    
C15   C23   S    
Cu2   O9    S    
C6    C7    S    
C38   C82   A    
C13   N7    S    
C87   C91   A    
C35   C44   A    
C112  H72   S    
Br8   C30   S    
C33   C77   A    
C15   H4    S    
N1    N13   D    
C104  H46   S    
C45   H58   S    
C64   N14   S    
C101  H43   S    
C35   C79   A    
C108  C109  S    
C38   C62   S    
C84   O7    A    
