data_mof_unit_64980.cif
_audit_creation_date              2012-12-10T21:22:35-0500
_audit_creation_method            fapswitch 2.2
_symmetry_space_group_name_H-M    P1
_symmetry_Int_Tables_number       1
_space_group_crystal_system       triclinic
_cell_length_a                    17.617127
_cell_length_b                    16.757675
_cell_length_c                    27.172496
_cell_angle_alpha                 89.515276
_cell_angle_beta                  90.66217
_cell_angle_gamma                 89.682903
_cell_volume                      8020.97100781

loop_
_atom_site_label
_atom_site_type_symbol
_atom_type_description
_atom_site_fract_x
_atom_site_fract_y
_atom_site_fract_z
_atom_type_partial_charge
C1    C     C_R   0.353585 0.500232 0.499931 1.038264
C2    C     C_R   0.647031 0.499815 0.499630 0.985468
C3    C     C_R   0.575050 0.448041 0.105137 -0.093712
C4    C     C_R   0.509497 0.493534 0.904370 -0.088926
C5    C     C_R   0.538017 0.388381 0.132604 -0.133411
C6    C     C_R   0.540655 0.559256 0.878630 -0.127805
C7    C     C_R   0.504334 0.323919 0.106854 0.174764
C8    C     C_R   0.575541 0.621306 0.906016 0.176276
C9    C     C_R   0.625632 0.499664 0.128955 -0.053544
C10   C     C_R   0.462278 0.439149 0.879609 -0.051931
C11   C     C_R   0.511748 0.502033 0.352424 -0.293215
C12   C     C_R   0.496783 0.499246 0.648013 -0.279407
C13   C     C_R   0.493743 0.415556 0.980407 0.049344
C14   C     C_R   0.598530 0.517688 0.027947 0.050130
C15   C     C_R   0.573024 0.536263 0.979657 -0.009437
C16   C     C_R   0.516911 0.399388 0.029738 -0.013836
C17   C     C_R   0.526052 0.481348 0.954809 -0.026312
C18   C     C_R   0.563146 0.455145 0.054122 -0.030061
C19   C     C_R   0.433119 0.374365 0.957384 0.455777
C20   C     C_R   0.662315 0.554942 0.050053 0.458302
C21   C     C_R   0.421729 0.382518 0.906492 -0.225429
C22   C     C_R   0.673717 0.547836 0.101127 -0.228308
C23   C     C_R   0.500955 0.500433 0.405524 0.920792
C24   C     C_R   0.500014 0.499739 0.594467 0.917346
C25   C     C_R   0.501441 0.326739 0.054893 0.202976
C26   C     C_R   0.585140 0.611795 0.957299 0.190805
C27   C     C_R   0.848716 0.572024 0.489914 0.306609
C28   C     C_R   0.155804 0.454353 0.539939 0.318671
C29   C     C_R   0.150724 0.556400 0.474816 0.299845
C30   C     C_R   0.850465 0.434755 0.521139 0.294562
C31   C     C_R   0.769158 0.569201 0.484993 0.275861
C32   C     C_R   0.235559 0.452422 0.537103 0.257537
C33   C     C_R   0.230393 0.554543 0.471803 0.275095
C34   C     C_R   0.770922 0.431225 0.516295 0.289364
C35   C     C_R   0.730285 0.499993 0.500495 -0.233411
C36   C     C_R   0.271557 0.501007 0.502096 -0.215252
C37   C     C_R   0.887723 0.504344 0.506931 -0.097805
C38   C     C_R   0.115239 0.507864 0.509707 -0.099022
C39   C     C_1   0.967792 0.506419 0.509969 0.242044
C40   C     C_1   0.035102 0.507463 0.510881 0.237978
C41   C     C_R   0.448197 0.833346 0.470237 0.197817
C42   C     C_R   0.552047 0.166408 0.529379 0.191849
C43   C     C_R   0.552199 0.831996 0.529404 0.200768
C44   C     C_R   0.447691 0.167905 0.470597 0.202522
C45   C     C_R   0.451720 0.748010 0.469041 0.398735
C46   C     C_R   0.548320 0.251724 0.530817 0.406448
C47   C     C_R   0.548712 0.746653 0.530675 0.419880
C48   C     C_R   0.451122 0.253276 0.469444 0.400388
C49   C     C_R   0.500132 0.875332 0.499848 -0.060964
C50   C     C_R   0.500009 0.124482 0.499868 -0.061594
C51   C     C_1   0.500097 0.963372 0.499823 0.242013
C52   C     C_1   0.500058 0.036443 0.499821 0.241577
C53   C     C_R   0.538291 0.397395 0.184406 0.620543
C54   C     C_R   0.532675 0.560553 0.826815 0.612580
C55   C     C_R   0.626220 0.500845 0.180197 0.599576
C56   C     C_R   0.455090 0.444167 0.828505 0.606249
C57   C     C_R   0.581465 0.548120 0.281534 0.262099
C58   C     C_R   0.431586 0.531604 0.723553 0.221282
C59   C     C_R   0.574448 0.543113 0.332417 0.329902
C60   C     C_R   0.431969 0.529727 0.672197 0.360789
C61   C     C_R   0.454616 0.473039 0.320783 0.098230
C62   C     C_R   0.559552 0.469925 0.675377 0.085830
C63   C     C_R   0.467271 0.472662 0.269732 0.187726
C64   C     C_R   0.556539 0.468058 0.726895 0.164239
C65   C     C_R   0.539479 0.495274 0.251759 -0.037787
C66   C     C_R   0.493009 0.499986 0.750725 0.046053
H1    H     H_    0.379243 0.346291 0.888321 0.198418
H2    H     H_    0.718325 0.581627 0.118965 0.199146
N1    N     N_R   0.567923 0.465366 0.204918 -0.321787
N2    N     N_R   0.492416 0.502336 0.803322 -0.334284
N3    N     N_R   0.500000 0.707230 0.500000 -0.136500
N4    N     N_R   0.500000 0.292770 0.500000 -0.138401
O1    O     O_R   0.389110 0.566570 0.500000 -0.569785
O2    O     O_R   0.610890 0.433430 0.500000 -0.542898
O3    O     O_R   0.610890 0.566570 0.500000 -0.535384
O4    O     O_R   0.389110 0.433430 0.500000 -0.543030
O5    O     O_R   0.500010 0.566530 0.428750 -0.559654
O6    O     O_R   0.499990 0.433470 0.571250 -0.559006
O7    O     O_R   0.499990 0.566530 0.571250 -0.584978
O8    O     O_R   0.500010 0.433470 0.428750 -0.582106
O9    O     O_2   0.510184 0.340375 0.214062 -0.491859
O10   O     O_2   0.566661 0.616954 0.799415 -0.492536
O11   O     O_2   0.412867 0.390289 0.803881 -0.519244
O12   O     O_2   0.685655 0.532590 0.204412 -0.513092
Zn1   Zn    Zn3+2 0.500000 0.588860 0.500000 1.102778
Zn2   Zn    Zn3+2 0.500000 0.411140 0.500000 1.103468
I1    I     I_    0.348147 0.436100 0.350236 -0.147272
I2    I     I_    0.661608 0.435859 0.639034 -0.159232
O13   O     O_3   0.728575 0.631493 0.463564 -0.710126
H3    H     H_    0.760925 0.658594 0.439055 0.367906
O14   O     O_3   0.279912 0.407098 0.569151 -0.740358
H4    H     H_    0.252770 0.400718 0.600638 0.365520
O15   O     O_3   0.269472 0.603581 0.439886 -0.693240
H5    H     H_    0.240586 0.654017 0.435320 0.360096
O16   O     O_3   0.732084 0.361749 0.526435 -0.681302
H6    H     H_    0.764833 0.315477 0.518518 0.351083
O17   O     O_3   0.394917 0.876825 0.443495 -0.703103
H7    H     H_    0.349612 0.843215 0.438018 0.357127
O18   O     O_3   0.605602 0.122918 0.555882 -0.703494
H8    H     H_    0.650900 0.156601 0.561236 0.360529
O19   O     O_3   0.605642 0.874209 0.555954 -0.702976
H9    H     H_    0.651055 0.840017 0.561250 0.362104
O20   O     O_3   0.394046 0.125763 0.444173 -0.701780
H10   H     H_    0.348513 0.159887 0.439179 0.362301
O21   O     O_3   0.407949 0.704219 0.436896 -0.672197
H11   H     H_    0.396796 0.737132 0.407236 0.344657
O22   O     O_3   0.591785 0.295135 0.563229 -0.657942
H12   H     H_    0.602902 0.261804 0.592721 0.347876
O23   O     O_3   0.593321 0.701516 0.562391 -0.690550
H13   H     H_    0.604661 0.733339 0.592083 0.341924
O24   O     O_3   0.406156 0.298309 0.437973 -0.693957
H14   H     H_    0.394790 0.266518 0.408268 0.348889
I3    I     I_    0.372862 0.459720 0.219806 -0.157779
I4    I     I_    0.647017 0.417227 0.770214 -0.164737
I5    I     I_    0.457144 0.221151 0.142573 -0.062151
I6    I     I_    0.609846 0.733136 0.873914 -0.065144
O25   O     O_3   0.368311 0.558393 0.647358 -0.704378
H15   H     H_    0.369854 0.543187 0.612324 0.336380
O26   O     O_3   0.627035 0.583318 0.360884 -0.687700
H16   H     H_    0.629903 0.558416 0.393972 0.341469
I7    I     I_    0.337010 0.582880 0.759986 -0.119042
I8    I     I_    0.610592 0.664859 0.255581 -0.101725
O27   O     O_3   0.382032 0.332053 0.985535 -0.727106
H17   H     H_    0.342431 0.308827 0.963820 0.356139
O28   O     O_3   0.714352 0.594246 0.021016 -0.723673
H18   H     H_    0.755723 0.615290 0.042205 0.356045
I9    I     I_    0.506881 0.215831 0.015638 -0.162936
I10   I     I_    0.586887 0.717165 0.002419 -0.173049
O29   O     O_3   0.889785 0.640063 0.479431 -0.709296
H19   H     H_    0.857066 0.687443 0.484559 0.363033
O30   O     O_3   0.115814 0.403763 0.570488 -0.709764
H20   H     H_    0.145948 0.354416 0.576152 0.364480
O31   O     O_3   0.105853 0.602348 0.443395 -0.710706
H21   H     H_    0.132653 0.609818 0.411877 0.363374
O32   O     O_3   0.893181 0.372364 0.540646 -0.715012
H22   H     H_    0.861594 0.341772 0.563993 0.367793

loop_
_geom_bond_atom_site_label_1
_geom_bond_atom_site_label_2
_ccdc_geom_bond_type
C2    C35   S    
C29   O31   S    
C63   C65   A    
O15   H5    S    
C45   N3    A    
O25   H15   S    
C8    C26   A    
C14   C18   A    
O24   H14   S    
C54   O10   S    
C53   N1    A    
O17   H7    S    
O32   H22   S    
C66   N2    S    
C19   O27   S    
O19   H9    S    
C32   C36   A    
C5    C53   A    
C19   C21   A    
C48   N4    A    
C9    C22   A    
C57   C59   A    
C32   O14   S    
C58   C60   A    
C29   C33   A    
C33   C36   A    
C3    C18   A    
C53   O9    S    
C34   C35   A    
C42   C46   A    
C7    I5    S    
C61   C63   A    
C62   C64   A    
C61   I1    S    
C57   I8    S    
N3    Zn1   S    
C58   C66   A    
O16   H6    S    
C31   O13   S    
C29   C38   A    
C50   C52   S    
O22   H12   S    
C9    C55   A    
C23   O8    A    
C10   C56   A    
C46   N4    A    
C2    O2    A    
C3    C5    A    
O27   H17   S    
O6    Zn2   S    
O5    Zn1   S    
C2    O3    A    
C21   H1    S    
C6    C54   A    
C11   C59   A    
C41   C49   A    
C44   O20   S    
C45   O21   S    
C10   C21   A    
C64   I4    S    
C30   C34   A    
C27   C31   A    
C51   C52   T    
C14   C20   A    
C28   C32   A    
C34   O16   S    
C4    C6    A    
C39   C40   T    
C5    C7    A    
C13   C19   A    
C43   C49   A    
C15   C26   A    
C6    C8    A    
C49   C51   S    
C47   O23   S    
C62   I2    S    
C23   O5    A    
C30   C37   A    
C64   C66   A    
C43   O19   S    
C3    C9    A    
C12   C62   A    
C24   O7    A    
O18   H8    S    
C54   N2    A    
C28   C38   A    
O1    Zn1   S    
C46   O22   S    
C60   O25   S    
C26   I10   S    
O2    Zn2   S    
C22   H2    S    
C55   N1    A    
C42   C50   A    
C4    C17   A    
C12   C60   A    
C24   O6    A    
C20   C22   A    
C56   N2    A    
O28   H18   S    
C27   O29   S    
C31   C35   A    
C47   N3    A    
C4    C10   A    
O30   H20   S    
O13   H3    S    
O4    Zn2   S    
O7    Zn1   S    
C56   O11   S    
O3    Zn1   S    
O29   H19   S    
C44   C50   A    
C16   C25   A    
C15   C17   A    
C58   I7    S    
C59   O26   S    
C1    O4    A    
C57   C65   A    
C11   C61   A    
C33   O15   S    
N4    Zn2   S    
O26   H16   S    
O21   H11   S    
C12   C24   S    
O8    Zn2   S    
C7    C25   A    
C13   C17   A    
C28   O30   S    
C1    O1    A    
C25   I9    S    
C20   O28   S    
C37   C39   S    
O23   H13   S    
C38   C40   S    
O31   H21   S    
C27   C37   A    
C65   N1    S    
C11   C23   S    
C41   O17   S    
C8    I6    S    
C63   I3    S    
C48   O24   S    
C16   C18   A    
C30   O32   S    
C13   C16   A    
O20   H10   S    
C41   C45   A    
C14   C15   A    
C55   O12   S    
C42   O18   S    
C43   C47   A    
O14   H4    S    
C44   C48   A    
C1    C36   S    
