data_mof_unit_12834.cif
_audit_creation_date              2012-10-26T21:08:38-0400
_audit_creation_method            fapswitch 2.2
_symmetry_space_group_name_H-M    P1
_symmetry_Int_Tables_number       1
_space_group_crystal_system       triclinic
_cell_length_a                    22.315207
_cell_length_b                    22.551445
_cell_length_c                    14.635896
_cell_angle_alpha                 90.087002
_cell_angle_beta                  89.751972
_cell_angle_gamma                 89.998752
_cell_volume                      7365.2931879

loop_
_atom_site_label
_atom_site_type_symbol
_atom_type_description
_atom_site_fract_x
_atom_site_fract_y
_atom_site_fract_z
_atom_type_partial_charge
C1    C     C_R   0.419626 0.919952 0.500088 0.541055
C2    C     C_1   0.659203 0.834105 0.498913 -0.065395
C3    C     C_3   0.632050 0.388017 0.298039 -0.462477
C4    C     C_3   0.616603 0.723816 0.640278 0.010728
C5    C     C_3   0.578019 0.749522 0.717210 -0.245449
C6    C     C_3   0.511706 0.735698 0.703007 -0.490157
C7    C     C_3   0.296052 0.290386 0.282691 0.008093
C8    C     C_3   0.276276 0.253144 0.200747 -0.260585
C9    C     C_3   0.254335 0.292187 0.122671 -0.494241
C10   C     C_3   0.408923 0.714891 0.453473 0.011700
C11   C     C_3   0.443136 0.751238 0.382004 -0.252678
C12   C     C_3   0.502880 0.773558 0.418963 -0.476699
C13   C     C_1   0.665263 0.160183 0.501018 -0.035835
C14   C     C_3   0.657275 0.344092 0.617162 0.007034
C15   C     C_3   0.649416 0.339049 0.720670 -0.262761
C16   C     C_3   0.655179 0.399347 0.767204 -0.492708
C17   C     C_3   0.116548 0.223758 0.640147 0.010722
C18   C     C_3   0.077934 0.249436 0.717067 -0.245438
C19   C     C_3   0.011629 0.235598 0.702809 -0.490172
C20   C     C_3   0.795959 0.790297 0.282597 0.008093
C21   C     C_3   0.776132 0.753004 0.200737 -0.260599
C22   C     C_3   0.754112 0.791997 0.122654 -0.494231
C23   C     C_3   0.908890 0.214921 0.453252 0.011713
C24   C     C_1   0.339573 0.835470 0.500213 -0.082159
C25   C     C_3   0.943126 0.251289 0.381835 -0.252651
C26   C     C_3   0.002883 0.273554 0.418824 -0.476718
C27   C     C_3   0.157219 0.844174 0.616876 0.007031
C28   C     C_3   0.149309 0.839168 0.720380 -0.262764
C29   C     C_3   0.155082 0.899477 0.766875 -0.492696
C30   C     C_3   0.458623 0.150976 0.029367 0.002845
C31   C     C_3   0.466235 0.213843 0.066528 -0.251418
C32   C     C_3   0.421794 0.256580 0.022776 -0.492742
C33   C     C_3   0.509234 0.844812 0.004675 0.020100
C34   C     C_3   0.570498 0.814755 0.996956 -0.266249
C35   C     C_1   0.833927 0.659394 0.501482 -0.031240
C36   C     C_3   0.578941 0.768343 0.071590 -0.496096
C37   C     C_3   0.587442 0.110799 0.891208 0.031070
C38   C     C_3   0.638156 0.124493 0.823847 -0.266800
C39   C     C_3   0.626200 0.181537 0.771031 -0.475861
C40   C     C_3   0.362449 0.926751 0.997595 0.016091
C41   C     C_3   0.316334 0.882474 0.033816 -0.256279
C42   C     C_3   0.269433 0.867800 0.961588 -0.496067
C43   C     C_3   0.958386 0.650910 0.029321 0.002864
C44   C     C_3   0.965894 0.713793 0.066470 -0.251433
C45   C     C_3   0.921428 0.756467 0.022633 -0.492764
C46   C     C_1   0.159200 0.334101 0.498910 -0.065389
C47   C     C_3   0.009480 0.344824 0.004646 0.020252
C48   C     C_3   0.070775 0.314833 0.996896 -0.266292
C49   C     C_3   0.079271 0.268408 0.071496 -0.496112
C50   C     C_3   0.087263 0.610935 0.891185 0.031075
C51   C     C_3   0.137953 0.624682 0.823809 -0.266782
C52   C     C_3   0.125903 0.681681 0.770929 -0.475899
C53   C     C_3   0.862522 0.426634 0.997580 0.016117
C54   C     C_3   0.816726 0.381935 0.033498 -0.256158
C55   C     C_3   0.769718 0.367410 0.961358 -0.496046
C56   C     C_1   0.165255 0.660192 0.501015 -0.035839
C57   C     C_1   0.839561 0.335481 0.500212 -0.082117
C58   C     C_1   0.500337 0.000259 0.194320 0.196238
C59   C     C_1   0.500063 0.999974 0.805610 0.162113
C60   C     C_1   0.000338 0.500255 0.194320 0.196214
C61   C     C_R   0.580440 0.080078 0.500013 0.547882
C62   C     C_1   0.000065 0.499975 0.805610 0.162074
C63   C     C_3   0.548085 0.029810 0.969092 0.275029
C64   C     C_3   0.452685 0.971763 0.030449 0.240278
C65   C     C_3   0.498844 0.056319 0.030924 0.247587
C66   C     C_3   0.502393 0.945238 0.969835 0.254322
C67   C     C_3   0.048036 0.529892 0.969094 0.275035
C68   C     C_3   0.952740 0.471679 0.030445 0.240286
C69   C     C_3   0.998748 0.556313 0.030929 0.247625
C70   C     C_3   0.002493 0.445244 0.969826 0.254435
C71   C     C_3   0.710389 0.739845 0.574339 0.291986
C72   C     C_R   0.579912 0.919450 0.499815 0.540312
C73   C     C_3   0.278804 0.250100 0.426783 0.299220
C74   C     C_3   0.304149 0.724009 0.463491 0.297703
C75   C     C_3   0.705017 0.267633 0.538523 0.292870
C76   C     C_3   0.210357 0.239813 0.574300 0.291985
C77   C     C_3   0.778779 0.750078 0.426753 0.299226
C78   C     C_3   0.804123 0.224048 0.463376 0.297695
C79   C     C_3   0.204998 0.767665 0.538405 0.292868
C80   C     C_3   0.218389 0.191118 0.500965 -0.017290
C81   C     C_3   0.771492 0.798173 0.500283 -0.009380
C82   C     C_3   0.773466 0.199115 0.549717 -0.008539
C83   C     C_R   0.419458 0.079985 0.500190 0.546694
C84   C     C_3   0.234977 0.792030 0.451663 -0.010498
C85   C     C_3   0.718393 0.691124 0.501040 -0.017291
C86   C     C_3   0.271488 0.298169 0.500348 -0.009390
C87   C     C_3   0.273424 0.699143 0.549822 -0.008504
C88   C     C_3   0.734929 0.292064 0.451772 -0.010507
C89   C     C_1   0.373194 0.123245 0.500813 -0.020436
C90   C     C_1   0.623058 0.873247 0.499258 -0.037651
C91   C     C_1   0.626328 0.123706 0.500309 -0.022459
C92   C     C_1   0.375831 0.874462 0.500330 -0.042478
C93   C     C_1   0.873196 0.623247 0.500813 -0.020440
C94   C     C_R   0.919624 0.419954 0.500088 0.541055
C95   C     C_1   0.123056 0.373245 0.499256 -0.037651
C96   C     C_1   0.126322 0.623713 0.500308 -0.022460
C97   C     C_1   0.875823 0.374469 0.500329 -0.042480
C98   C     C_3   0.278737 0.251258 0.576580 -0.101397
C99   C     C_3   0.710523 0.738347 0.424318 -0.145613
C100  C     C_3   0.742946 0.228269 0.414191 -0.098748
C101  C     C_3   0.265740 0.763200 0.588136 -0.146269
C102  C     C_3   0.778770 0.751290 0.576549 -0.101400
C103  C     C_3   0.210549 0.238370 0.424276 -0.145601
C104  C     C_3   0.243007 0.728209 0.414198 -0.098755
C105  C     C_R   0.080438 0.580080 0.500013 0.547883
C106  C     C_3   0.765795 0.263145 0.588147 -0.146257
C107  C     C_3   0.286387 0.203401 0.501846 0.022031
C108  C     C_3   0.703430 0.786927 0.499377 -0.007611
C109  C     C_3   0.712502 0.204453 0.501553 0.019174
C110  C     C_3   0.296086 0.787689 0.499828 -0.014421
C111  C     C_3   0.786391 0.703406 0.501849 0.022029
C112  C     C_3   0.203427 0.286922 0.499372 -0.007610
C113  C     C_3   0.212496 0.704459 0.501549 0.019177
C114  C     C_3   0.796072 0.287701 0.499828 -0.014394
C115  C     C_3   0.551356 0.973848 0.030456 -0.137065
C116  C     C_R   0.079911 0.419449 0.499815 0.540320
C117  C     C_3   0.449529 0.027891 0.969260 -0.211882
C118  C     C_3   0.051404 0.473932 0.030452 -0.137090
C119  C     C_3   0.949483 0.527802 0.969260 -0.211995
C120  C     C_3   0.500936 0.000558 0.091964 -0.019234
C121  C     C_3   0.500104 0.000503 0.907837 -0.045566
C122  C     C_3   0.000939 0.500552 0.091965 -0.019280
C123  C     C_3   0.000106 0.500506 0.907836 -0.045610
C124  C     C_3   0.193153 0.127834 0.501447 -0.253537
C125  C     C_3   0.133081 0.123217 0.451488 -0.302782
C126  C     C_3   0.106450 0.061202 0.460929 -0.459981
C127  C     C_R   0.919459 0.579985 0.500190 0.546690
C128  C     C_3   0.800274 0.859712 0.500375 -0.249651
C129  C     C_3   0.868765 0.855771 0.504007 -0.289308
C130  C     C_3   0.897027 0.917379 0.504878 -0.461909
C131  C     C_3   0.791093 0.144103 0.604643 -0.243837
C132  C     C_3   0.845571 0.155069 0.665765 -0.298984
C133  C     C_3   0.859694 0.100513 0.723281 -0.456437
C134  C     C_3   0.214590 0.845062 0.394670 -0.250472
C135  C     C_3   0.152136 0.834892 0.354512 -0.290295
C136  C     C_3   0.132250 0.887920 0.297601 -0.462474
C137  C     C_3   0.693154 0.627841 0.501601 -0.253536
C138  C     C_1   0.333923 0.159390 0.501482 -0.031235
C139  C     C_3   0.633064 0.623208 0.451696 -0.302783
C140  C     C_3   0.606427 0.561202 0.461233 -0.459989
C141  C     C_3   0.300271 0.359707 0.500520 -0.249656
C142  C     C_3   0.368761 0.355763 0.504204 -0.289325
C143  C     C_3   0.397024 0.417370 0.505144 -0.461902
C144  C     C_3   0.290998 0.644172 0.604882 -0.243795
C145  C     C_3   0.345494 0.655147 0.665961 -0.298956
C146  C     C_3   0.359542 0.600653 0.723659 -0.456429
C147  C     C_3   0.714483 0.345125 0.394894 -0.250477
C148  C     C_3   0.652003 0.334956 0.354824 -0.290309
Cu1   Cu    Cu3+1 0.500000 0.000000 0.590220 0.980392
Cu2   Cu    Cu3+1 0.500000 1.000000 0.409780 1.003644
Cu3   Cu    Cu3+1 0.000000 0.500000 0.590220 0.980376
Cu4   Cu    Cu3+1 0.000000 0.500000 0.409780 1.003652
H1    H     H_    0.408029 0.049215 0.943756 0.080843
H2    H     H_    0.806536 0.755574 0.638969 0.111839
H3    H     H_    0.084039 0.298341 0.719740 0.193763
H4    H     H_    0.995635 0.255671 0.638118 0.141345
H5    H     H_    0.985007 0.254299 0.760292 0.160945
H6    H     H_    0.004294 0.186897 0.700393 0.135128
H7    H     H_    0.833008 0.819994 0.260565 0.144110
H8    H     H_    0.758525 0.819740 0.305345 0.115766
H9    H     H_    0.814457 0.725691 0.176337 0.175412
H10   H     H_    0.739503 0.722539 0.221780 0.157720
H11   H     H_    0.714520 0.818288 0.144844 0.149546
H12   H     H_    0.740965 0.763646 0.063983 0.145416
H13   H     H_    0.775372 0.278316 0.658755 0.093820
H14   H     H_    0.790221 0.822567 0.099881 0.148633
H15   H     H_    0.935037 0.174111 0.467802 0.137124
H16   H     H_    0.905922 0.239712 0.518911 0.118446
H17   H     H_    0.951605 0.223343 0.320498 0.164138
H18   H     H_    0.915656 0.289862 0.360425 0.182281
H19   H     H_    0.995531 0.302687 0.479074 0.150335
H20   H     H_    0.026533 0.299460 0.365226 0.156187
H21   H     H_    0.031574 0.235576 0.438695 0.123867
H22   H     H_    0.121522 0.873428 0.589444 0.140827
H23   H     H_    0.200794 0.866377 0.601360 0.118260
H24   H     H_    0.233699 0.713152 0.343411 0.118209
H25   H     H_    0.104360 0.820372 0.735866 0.170223
H26   H     H_    0.183862 0.808823 0.748379 0.156361
H27   H     H_    0.200534 0.918129 0.755055 0.145812
H28   H     H_    0.147954 0.894374 0.841573 0.143060
H29   H     H_    0.120952 0.930711 0.740024 0.142934
H30   H     H_    0.412909 0.135040 0.047870 0.141529
H31   H     H_    0.463745 0.152131 0.953612 0.111471
H32   H     H_    0.459070 0.213636 0.141751 0.185004
H33   H     H_    0.512584 0.229515 0.052341 0.164403
H34   H     H_    0.430351 0.259820 0.948124 0.145150
H35   H     H_    0.137761 0.027566 0.432445 0.147038
H36   H     H_    0.426913 0.301313 0.053569 0.144641
H37   H     H_    0.375113 0.241201 0.034295 0.147263
H38   H     H_    0.473779 0.810769 0.995374 0.146376
H39   H     H_    0.503164 0.863074 0.075072 0.144936
H40   H     H_    0.574603 0.793011 0.929034 0.171435
H41   H     H_    0.606487 0.848566 0.002736 0.166407
H42   H     H_    0.577075 0.789536 0.140127 0.144800
H43   H     H_    0.623296 0.746684 0.063128 0.147415
H44   H     H_    0.543546 0.733845 0.067006 0.145457
H45   H     H_    0.584096 0.147480 0.941805 0.169414
H46   H     H_    0.097436 0.051026 0.533951 0.143196
H47   H     H_    0.544770 0.108422 0.852139 0.113732
H48   H     H_    0.681002 0.129083 0.861680 0.168322
H49   H     H_    0.642806 0.087206 0.774527 0.183150
H50   H     H_    0.584768 0.177128 0.729769 0.171959
H51   H     H_    0.664339 0.190722 0.724160 0.169907
H52   H     H_    0.621241 0.219408 0.819056 0.132227
H53   H     H_    0.384749 0.906895 0.936505 0.165320
H54   H     H_    0.338739 0.968057 0.977252 0.129371
H55   H     H_    0.339505 0.840991 0.054476 0.166845
H56   H     H_    0.293548 0.901438 0.094925 0.172976
H57   H     H_    0.063569 0.058775 0.422893 0.141576
H58   H     H_    0.245131 0.908599 0.941001 0.143992
H59   H     H_    0.236554 0.835709 0.989963 0.145747
H60   H     H_    0.291045 0.847683 0.900437 0.146507
H61   H     H_    0.912688 0.634915 0.047784 0.141473
H62   H     H_    0.963537 0.652063 0.953570 0.111473
H63   H     H_    0.958678 0.713589 0.141683 0.185009
H64   H     H_    0.012232 0.729521 0.052350 0.164441
H65   H     H_    0.930042 0.759718 0.947997 0.145166
H66   H     H_    0.926457 0.801207 0.053434 0.144646
H67   H     H_    0.874759 0.741023 0.034062 0.147268
H68   H     H_    0.100637 0.155812 0.479260 0.141944
H69   H     H_    0.974059 0.310746 0.995356 0.146422
H70   H     H_    0.003407 0.363075 0.075050 0.144933
H71   H     H_    0.074899 0.293113 0.928958 0.171498
H72   H     H_    0.106727 0.348681 0.002695 0.166390
H73   H     H_    0.077393 0.289579 0.140048 0.144791
H74   H     H_    0.123646 0.246792 0.063008 0.147449
H75   H     H_    0.043909 0.233877 0.066898 0.145444
H76   H     H_    0.083862 0.647626 0.941756 0.169359
H77   H     H_    0.044593 0.608481 0.852123 0.113719
H78   H     H_    0.180792 0.629359 0.861636 0.168293
H79   H     H_    0.139876 0.132897 0.377732 0.159994
H80   H     H_    0.142665 0.587380 0.774528 0.183163
H81   H     H_    0.084474 0.677187 0.729679 0.171898
H82   H     H_    0.164023 0.690901 0.724040 0.169969
H83   H     H_    0.120887 0.719569 0.818911 0.132237
H84   H     H_    0.884809 0.407180 0.936169 0.165077
H85   H     H_    0.838555 0.467913 0.977807 0.129439
H86   H     H_    0.840170 0.340463 0.053488 0.166713
H87   H     H_    0.793995 0.400458 0.094972 0.173076
H88   H     H_    0.745111 0.408184 0.941500 0.143954
H89   H     H_    0.737109 0.334957 0.989483 0.145772
H90   H     H_    0.225700 0.097967 0.466744 0.147256
H91   H     H_    0.791287 0.347780 0.899798 0.146517
H92   H     H_    0.188532 0.112762 0.573344 0.148275
H93   H     H_    0.593102 0.952408 0.054732 0.111187
H94   H     H_    0.884820 0.942029 0.441989 0.153208
H95   H     H_    0.881610 0.942747 0.565721 0.149546
H96   H     H_    0.946574 0.913216 0.507581 0.141974
H97   H     H_    0.882628 0.831673 0.566650 0.159272
H98   H     H_    0.885859 0.831072 0.443554 0.200900
H99   H     H_    0.786336 0.883804 0.437830 0.136321
H100  H     H_    0.783450 0.884570 0.560882 0.149725
H101  H     H_    0.821186 0.089635 0.768612 0.155071
H102  H     H_    0.869622 0.061907 0.678454 0.148892
H103  H     H_    0.899517 0.109517 0.766375 0.138698
H104  H     H_    0.907939 0.549047 0.943762 0.080800
H105  H     H_    0.885400 0.165476 0.623400 0.156097
H106  H     H_    0.836737 0.193081 0.712296 0.155853
H107  H     H_    0.752324 0.131198 0.648206 0.137160
H108  H     H_    0.800577 0.107162 0.556377 0.160171
H109  H     H_    0.130126 0.928450 0.340704 0.145811
H110  H     H_    0.163983 0.895368 0.240053 0.152418
H111  H     H_    0.087016 0.879308 0.269187 0.143489
H112  H     H_    0.152599 0.794748 0.310355 0.162399
H113  H     H_    0.119081 0.827867 0.410426 0.199328
H114  H     H_    0.214335 0.885393 0.438315 0.133651
H115  H     H_    0.093187 0.452555 0.054719 0.111194
H116  H     H_    0.247462 0.851889 0.338398 0.148585
H117  H     H_    0.637728 0.527547 0.432779 0.147030
H118  H     H_    0.597428 0.551068 0.534274 0.143199
H119  H     H_    0.563537 0.558758 0.423223 0.141583
H120  H     H_    0.600634 0.655821 0.479454 0.141947
H121  H     H_    0.639836 0.632849 0.377923 0.159989
H122  H     H_    0.725687 0.597959 0.466898 0.147245
H123  H     H_    0.688558 0.612797 0.573516 0.148284
H124  H     H_    0.384840 0.442040 0.442263 0.153215
H125  H     H_    0.381586 0.442719 0.565993 0.149565
H126  H     H_    0.681962 0.734800 0.362694 0.091321
H127  H     H_    0.446570 0.413205 0.507883 0.141968
H128  H     H_    0.382601 0.331645 0.566839 0.159271
H129  H     H_    0.385875 0.331083 0.443746 0.200889
H130  H     H_    0.286355 0.383824 0.437985 0.136313
H131  H     H_    0.283426 0.384543 0.561036 0.149732
H132  H     H_    0.321021 0.589896 0.769035 0.155079
H133  H     H_    0.369409 0.561969 0.678961 0.148921
H134  H     H_    0.399383 0.609661 0.766714 0.138692
H135  H     H_    0.385335 0.665436 0.623552 0.156158
H136  H     H_    0.336720 0.693238 0.712364 0.155839
H137  H     H_    0.306479 0.255519 0.639028 0.111844
H138  H     H_    0.252217 0.631356 0.648486 0.137150
H139  H     H_    0.300438 0.607169 0.556709 0.160148
H140  H     H_    0.629931 0.428512 0.341217 0.145799
H141  H     H_    0.663740 0.395524 0.240455 0.152455
H142  H     H_    0.586802 0.379401 0.269679 0.143484
H143  H     H_    0.652453 0.294845 0.310597 0.162381
H144  H     H_    0.618992 0.327876 0.410780 0.199321
H145  H     H_    0.714244 0.385428 0.438601 0.133631
H146  H     H_    0.747312 0.352000 0.338579 0.148586
H147  H     H_    0.611225 0.674864 0.640119 0.135925
H148  H     H_    0.275273 0.778414 0.658735 0.093831
H149  H     H_    0.599911 0.741983 0.574483 0.126277
H150  H     H_    0.592585 0.730542 0.783546 0.163407
H151  H     H_    0.584137 0.798427 0.719851 0.193782
H152  H     H_    0.495697 0.755760 0.638315 0.141379
H153  H     H_    0.485107 0.754419 0.760499 0.160992
H154  H     H_    0.504357 0.686998 0.700622 0.135106
H155  H     H_    0.333112 0.320100 0.260757 0.144113
H156  H     H_    0.258600 0.319812 0.305427 0.115752
H157  H     H_    0.314611 0.225830 0.176384 0.175431
H158  H     H_    0.239619 0.222683 0.221686 0.157707
H159  H     H_    0.733592 0.213258 0.343395 0.118215
H160  H     H_    0.214736 0.318481 0.144819 0.149553
H161  H     H_    0.241226 0.263872 0.063939 0.145422
H162  H     H_    0.290475 0.322755 0.100004 0.148614
H163  H     H_    0.435100 0.674109 0.468082 0.137119
H164  H     H_    0.405932 0.739713 0.519102 0.118454
H165  H     H_    0.451632 0.723260 0.320707 0.164137
H166  H     H_    0.415643 0.789782 0.360538 0.182221
H167  H     H_    0.495513 0.802712 0.479185 0.150346
H168  H     H_    0.526509 0.799457 0.365335 0.156176
H169  H     H_    0.531598 0.735608 0.438868 0.123866
H170  H     H_    0.182016 0.234845 0.362618 0.091325
H171  H     H_    0.621561 0.373350 0.589793 0.140828
H172  H     H_    0.700841 0.366306 0.601622 0.118249
H173  H     H_    0.604483 0.320226 0.736191 0.170236
H174  H     H_    0.683999 0.308713 0.748607 0.156358
H175  H     H_    0.700619 0.418022 0.755360 0.145816
H176  H     H_    0.648080 0.394218 0.841904 0.143039
H177  H     H_    0.621026 0.430574 0.740405 0.142938
H178  H     H_    0.111174 0.174806 0.639945 0.135930
H179  H     H_    0.099879 0.241946 0.574351 0.126278
H180  H     H_    0.092484 0.230445 0.783404 0.163441
N1    N     N_1   0.499980 0.000000 0.274190 -0.186919
N2    N     N_1   0.500020 0.000000 0.725810 -0.193907
N3    N     N_1   0.999980 0.500000 0.274190 -0.186916
N4    N     N_1   0.000020 0.500000 0.725810 -0.193910
O1    O     O_R   0.439540 0.939530 0.576170 -0.492312
O2    O     O_R   0.560470 0.060470 0.576200 -0.498470
O3    O     O_R   0.560470 0.939530 0.576200 -0.483777
O4    O     O_R   0.439530 0.060470 0.423800 -0.478196
O5    O     O_R   0.939530 0.439530 0.423800 -0.490903
O6    O     O_R   0.060470 0.560470 0.576200 -0.498475
O7    O     O_R   0.060470 0.439530 0.576200 -0.483759
O8    O     O_R   0.939530 0.560470 0.423800 -0.478189
O9    O     O_3   0.677265 0.737848 0.656842 -0.567084
O10   O     O_3   0.318542 0.252655 0.351580 -0.568754
O11   O     O_3   0.353048 0.697364 0.417182 -0.570778
O12   O     O_R   0.560460 0.060470 0.423830 -0.483961
O13   O     O_3   0.650396 0.287447 0.576793 -0.575649
O14   O     O_3   0.177202 0.237788 0.656772 -0.567089
O15   O     O_3   0.818489 0.752609 0.351512 -0.568756
O16   O     O_3   0.853001 0.197460 0.416939 -0.570763
O17   O     O_3   0.150352 0.787517 0.576544 -0.575654
O18   O     O_3   0.502309 0.113942 0.068692 -0.559738
O19   O     O_3   0.503101 0.887096 0.933976 -0.572692
O20   O     O_3   0.600962 0.057540 0.937395 -0.555064
O21   O     O_3   0.404084 0.939460 0.067205 -0.571775
O22   O     O_3   0.002108 0.613942 0.068700 -0.559687
O23   O     O_R   0.560460 0.939530 0.423830 -0.501645
O24   O     O_3   0.003289 0.387105 0.933956 -0.572550
O25   O     O_3   0.100868 0.557712 0.937412 -0.555066
O26   O     O_3   0.904208 0.439257 0.067160 -0.571762
O27   O     O_R   0.439540 0.060470 0.576170 -0.501174
O28   O     O_R   0.939540 0.439530 0.576170 -0.492323
O29   O     O_R   0.060460 0.560470 0.423830 -0.483961
O30   O     O_R   0.060460 0.439530 0.423830 -0.501646
O31   O     O_R   0.939540 0.560470 0.576170 -0.501189
O32   O     O_R   0.439530 0.939530 0.423800 -0.490909

loop_
_geom_bond_atom_site_label_1
_geom_bond_atom_site_label_2
_ccdc_geom_bond_type
C25   H18   S    
C63   C65   S    
C46   C112  S    
C50   H76   S    
C83   O4    A    
C145  C146  S    
C52   H82   S    
C6    H154  S    
C80   C107  S    
C116  O7    A    
C126  H35   S    
C68   C119  S    
C5    C6    S    
C99   H126  S    
C76   C98   S    
C143  H125  S    
C50   H77   S    
C30   H31   S    
C2    C90   T    
C15   H174  S    
C105  O29   A    
C18   H180  S    
C124  H92   S    
C30   O18   S    
C63   C115  S    
C10   H163  S    
C81   C108  S    
C26   H20   S    
C100  C109  S    
C21   C22   S    
C13   C91   T    
C51   H78   S    
C30   H30   S    
C102  C111  S    
C69   C119  S    
C144  H139  S    
C129  H97   S    
C66   C115  S    
C80   C103  S    
C51   C52   S    
C128  H99   S    
C98   H137  S    
C24   C110  S    
C54   H86   S    
C133  H101  S    
C144  C145  S    
C132  H106  S    
C94   C97   S    
C101  C110  S    
C137  H123  S    
C37   O20   S    
C103  C112  S    
C64   C66   S    
C41   H55   S    
C43   C44   S    
C74   C110  S    
C37   C38   S    
Cu4   O5    S    
C78   C82   S    
C147  H146  S    
C130  H95   S    
C57   C97   T    
C127  O8    A    
C69   O22   S    
C94   O28   A    
C23   H15   S    
C71   C102  S    
C65   O18   S    
C81   C128  S    
C117  H1    S    
C143  H124  S    
C38   H48   S    
C142  H128  S    
Cu4   O30   S    
C136  H109  S    
C44   H64   S    
C3    H142  S    
C4    C5    S    
C67   C123  S    
C54   H87   S    
C139  C140  S    
C119  C123  S    
C64   C120  S    
C33   H39   S    
C107  C138  S    
C34   H40   S    
C68   O26   S    
C2    C108  S    
C65   C120  S    
C67   C118  S    
C36   H42   S    
C141  H130  S    
C87   C113  S    
C118  H115  S    
C22   H14   S    
C116  O30   A    
C73   C103  S    
C20   C21   S    
C89   C138  T    
C29   H27   S    
C39   H50   S    
C8    H158  S    
C105  O6    A    
C82   C131  S    
C77   O15   S    
C86   C141  S    
C74   O11   S    
C147  C148  S    
C119  H104  S    
C133  H103  S    
C7    C8    S    
C104  H24   S    
C53   C54   S    
C99   C108  S    
C38   C39   S    
C72   C90   S    
Cu1   O2    S    
C118  C122  S    
C145  H136  S    
C13   C109  S    
C87   C101  S    
C140  H118  S    
C74   C87   S    
C12   H169  S    
C139  H121  S    
C126  H46   S    
C47   H69   S    
C7    H155  S    
C135  H112  S    
C136  H111  S    
C45   H66   S    
C3    H140  S    
C145  H135  S    
C24   C92   T    
C27   H22   S    
C9    H161  S    
C83   C89   S    
C72   O3    A    
C82   C109  S    
C53   H85   S    
C14   H172  S    
C17   O14   S    
C48   H72   S    
C144  H138  S    
C25   C26   S    
C16   H177  S    
Cu1   N2    S    
C36   H44   S    
C60   N3    T    
C85   C99   S    
C22   H12   S    
C31   C32   S    
C95   C116  S    
Cu3   Cu4   S    
C11   H166  S    
C31   H33   S    
C17   C18   S    
C5    H151  S    
C53   H84   S    
C6    H152  S    
C61   O2    A    
C79   C113  S    
C20   H8    S    
C84   C104  S    
C49   H73   S    
C42   H60   S    
C23   O16   S    
C74   C104  S    
C129  C130  S    
C148  H143  S    
C54   C55   S    
C21   H10   S    
C76   O14   S    
C19   H6    S    
C53   O26   S    
Cu2   O23   S    
C76   C80   S    
C78   O16   S    
C125  H79   S    
C126  H57   S    
C73   O10   S    
C134  C135  S    
C139  H120  S    
Cu4   N3    S    
C140  H119  S    
C146  H133  S    
C16   H175  S    
C69   C122  S    
C70   C118  S    
C12   H168  S    
C77   C99   S    
C34   C36   S    
C82   C106  S    
C64   O21   S    
C15   H173  S    
C10   C11   S    
C18   H3    S    
C104  C113  S    
C125  H68   S    
Cu2   N1    S    
C12   H167  S    
C65   C117  S    
C14   C15   S    
C79   C101  S    
C115  H93   S    
C39   H52   S    
C43   H62   S    
C1    O1    A    
C66   O19   S    
C10   H164  S    
C96   C105  S    
C134  H114  S    
C63   O20   S    
C103  H170  S    
C39   H51   S    
C31   H32   S    
Cu3   O31   S    
C41   C42   S    
C71   O9    S    
C146  H132  S    
C135  C136  S    
C137  C139  S    
C84   C134  S    
C55   H91   S    
C28   C29   S    
C20   O15   S    
C10   O11   S    
C30   C31   S    
C73   C107  S    
C137  H122  S    
C75   O13   S    
C18   C19   S    
C77   C111  S    
Cu2   O12   S    
C27   O17   S    
C40   H53   S    
C147  H145  S    
C56   C113  S    
C87   C144  S    
C49   H75   S    
C28   H25   S    
C102  H2    S    
C42   H58   S    
C51   H80   S    
C128  C129  S    
C19   H4    S    
C78   C114  S    
C83   O27   A    
C52   H81   S    
C6    H153  S    
C134  H116  S    
C55   H88   S    
C136  H110  S    
C106  H13   S    
C3    H141  S    
C68   C122  S    
C130  H96   S    
C64   C117  S    
C33   H38   S    
Cu3   O6    S    
C79   C84   S    
Cu3   N4    S    
C77   C81   S    
C11   C12   S    
C58   C120  S    
C50   C51   S    
C66   C121  S    
C60   C122  S    
C88   C100  S    
C131  H107  S    
C34   H41   S    
C48   C49   S    
C26   H19   S    
C1    C92   S    
C1    O32   A    
C78   C100  S    
C125  C126  S    
C27   H23   S    
C131  C132  S    
C85   C137  S    
C44   C45   S    
C80   C124  S    
C56   C96   T    
C129  H98   S    
C55   H89   S    
C58   N1    T    
C85   C111  S    
C133  H102  S    
C50   O25   S    
C127  O31   A    
C132  H105  S    
C26   H21   S    
C32   H34   S    
C41   H56   S    
Cu1   Cu2   S    
Cu4   O8    S    
Cu1   O27   S    
C59   N2    T    
C88   C147  S    
Cu1   O1    S    
C88   C114  S    
C86   C98   S    
C98   C107  S    
C23   H16   S    
C75   C106  S    
C142  C143  S    
Cu4   O29   S    
C52   H83   S    
C33   O19   S    
C59   C121  S    
C44   H63   S    
C45   H65   S    
C130  H94   S    
C9    H160  S    
C140  H117  S    
C128  H100  S    
C29   H29   S    
C106  C114  S    
Cu3   O28   S    
C142  H129  S    
C15   C16   S    
C4    O9    S    
C117  C121  S    
C141  H131  S    
C47   O24   S    
C71   C85   S    
C70   C123  S    
C79   O17   S    
C46   C95   T    
C132  C133  S    
C11   H165  S    
C20   H7    S    
C8    H157  S    
C17   H178  S    
C4    H147  S    
C37   H45   S    
C5    H150  S    
Cu2   O32   S    
C23   C25   S    
C43   O22   S    
C3    C148  S    
C62   C123  S    
C63   C121  S    
C81   C102  S    
C35   C93   T    
C148  H144  S    
C40   H54   S    
C75   C109  S    
C21   H9    S    
C32   H36   S    
C19   H5    S    
C101  H148  S    
C17   H179  S    
C100  H159  S    
C8    C9    S    
C94   O5    A    
C29   H28   S    
C84   C110  S    
Cu1   O3    S    
C67   C69   S    
C86   C112  S    
C93   C127  S    
C146  H134  S    
C47   C48   S    
C16   H176  S    
C76   C112  S    
C143  H127  S    
C33   C34   S    
Cu3   O7    S    
C62   N4    T    
C40   C41   S    
C72   O23   A    
C47   H70   S    
C7    H156  S    
C45   H67   S    
C70   O24   S    
C124  H90   S    
C43   H61   S    
C35   C111  S    
C9    H162  S    
C25   H17   S    
C131  H108  S    
C40   O21   S    
C67   O25   S    
Cu2   O4    S    
C14   H171  S    
C57   C114  S    
C48   H71   S    
C14   O13   S    
C61   O12   A    
C36   H43   S    
C141  C142  S    
C22   H11   S    
C38   H49   S    
C32   H37   S    
C4    H149  S    
C37   H47   S    
C73   C86   S    
C75   C88   S    
C68   C70   S    
C115  C120  S    
C27   C28   S    
C135  H113  S    
C49   H74   S    
C7    O10   S    
C28   H26   S    
C42   H59   S    
C61   C91   S    
C71   C108  S    
C124  C125  S    
