data_mof_unit_46112.cif
_audit_creation_date              2012-12-10T18:18:20-0500
_audit_creation_method            fapswitch 2.2
_symmetry_space_group_name_H-M    P1
_symmetry_Int_Tables_number       1
_space_group_crystal_system       triclinic
_cell_length_a                    14.020641
_cell_length_b                    15.014795
_cell_length_c                    15.447464
_cell_angle_alpha                 90.01355
_cell_angle_beta                  67.750517
_cell_angle_gamma                 90.005541
_cell_volume                      3009.82668641

loop_
_atom_site_label
_atom_site_type_symbol
_atom_type_description
_atom_site_fract_x
_atom_site_fract_y
_atom_site_fract_z
_atom_type_partial_charge
C1    C     C_R   0.500059 0.673531 0.499823 0.900940
C2    C     C_R   0.499970 0.326465 0.500109 0.901268
C3    C     C_R   0.368671 0.528836 0.110426 -0.241748
C4    C     C_R   0.600104 0.599557 0.908391 -0.237137
C5    C     C_R   0.296028 0.518900 0.070187 -0.195429
C6    C     C_R   0.672339 0.609582 0.949345 -0.191387
C7    C     C_R   0.584576 0.184788 0.505169 -0.249548
C8    C     C_R   0.415629 0.815189 0.494377 -0.247344
C9    C     C_R   0.499946 0.230572 0.500156 -0.080009
C10   C     C_R   0.500191 0.769412 0.499541 -0.078336
C11   C     C_R   0.415342 0.184780 0.495074 -0.252195
C12   C     C_R   0.584857 0.815199 0.504502 -0.251282
C13   C     C_R   0.414809 0.092650 0.494807 0.117097
C14   C     C_R   0.585469 0.907327 0.504602 0.117459
C15   C     C_R   0.500104 0.046325 0.499787 0.063134
C16   C     C_R   0.500196 0.953652 0.499571 0.062917
C17   C     C_R   0.585293 0.092657 0.505014 0.116737
C18   C     C_R   0.414989 0.907319 0.494378 0.116497
C19   C     C_R   0.330554 0.046249 0.489592 -0.209389
C20   C     C_R   0.669748 0.953725 0.509767 -0.208716
C21   C     C_R   0.330649 0.953713 0.489365 -0.207687
C22   C     C_R   0.669656 0.046261 0.509980 -0.208757
C23   C     C_R   0.435694 0.501460 0.676361 0.893895
C24   C     C_R   0.564188 0.501263 0.323615 0.894401
C25   C     C_R   0.172933 0.456334 0.569280 -0.056958
C26   C     C_R   0.827106 0.543525 0.430565 -0.056240
C27   C     C_R   0.230670 0.543554 0.430613 -0.062619
C28   C     C_R   0.769474 0.456202 0.569149 -0.061436
C29   C     C_R   0.130901 0.544232 0.428648 0.012247
C30   C     C_R   0.869328 0.455326 0.570888 0.009533
C31   C     C_R   0.050689 0.499787 0.499782 0.088554
C32   C     C_R   0.949515 0.499814 0.499772 0.086230
C33   C     C_R   0.071589 0.455351 0.570961 0.014040
C34   C     C_R   0.928582 0.544266 0.428627 0.015000
C35   C     C_R   0.109517 0.588108 0.357616 -0.212938
C36   C     C_R   0.890800 0.411172 0.641705 -0.200368
C37   C     C_R   0.009254 0.588130 0.357614 -0.185609
C38   C     C_R   0.991024 0.411201 0.641752 -0.188356
C39   C     C_R   0.394727 0.510564 0.777987 -0.103986
C40   C     C_R   0.602679 0.517154 0.223008 -0.104684
C41   C     C_R   0.256305 0.499021 0.930086 0.167876
C42   C     C_R   0.724415 0.585517 0.082500 0.168063
C43   C     C_R   0.291118 0.494428 0.832726 -0.209609
C44   C     C_R   0.699243 0.555253 0.174151 -0.205898
C45   C     C_R   0.462321 0.536170 0.820028 -0.263382
C46   C     C_R   0.532586 0.507712 0.179830 -0.259436
C47   C     C_R   0.430024 0.542930 0.916942 0.068161
C48   C     C_R   0.551112 0.545042 0.092534 0.065443
C49   C     C_R   0.326197 0.520956 0.973035 0.109070
C50   C     C_R   0.650371 0.580345 0.040786 0.102929
C51   C     C_R   0.501416 0.563222 0.959005 0.086401
C52   C     C_R   0.473492 0.545134 0.054900 0.090584
H1    H     H_    0.217221 0.505825 0.116026 0.185197
H2    H     H_    0.746157 0.638311 0.907553 0.185297
H3    H     H_    0.190627 0.422413 0.623227 0.131980
H4    H     H_    0.809362 0.577487 0.376665 0.133332
H5    H     H_    0.293060 0.577908 0.376807 0.135342
H6    H     H_    0.707124 0.421795 0.622930 0.138400
H7    H     H_    0.170284 0.622421 0.302093 0.147408
H8    H     H_    0.830092 0.376656 0.697078 0.149072
H9    H     H_    0.994829 0.622471 0.302106 0.158984
H10   H     H_    0.005500 0.376701 0.697145 0.154028
H11   H     H_    0.462184 0.471629 0.216577 0.163638
H12   H     H_    0.542115 0.545928 0.775830 0.164198
H13   H     H_    0.753659 0.564035 0.207929 0.175842
H14   H     H_    0.238007 0.475463 0.800118 0.176058
H15   H     H_    0.340314 0.525677 0.185833 0.144541
H16   H     H_    0.622324 0.623792 0.837689 0.151882
H17   H     H_    0.649871 0.220655 0.509307 0.165035
H18   H     H_    0.350307 0.779320 0.490289 0.165310
H19   H     H_    0.349973 0.220639 0.491104 0.165206
H20   H     H_    0.650193 0.779341 0.508550 0.164683
H21   H     H_    0.264829 0.081479 0.485720 0.150343
H22   H     H_    0.735464 0.918495 0.513660 0.150182
H23   H     H_    0.264988 0.918479 0.485337 0.150689
H24   H     H_    0.735311 0.081495 0.514018 0.150309
N1    N     N_R   0.249980 0.499930 0.499960 -0.100429
N2    N     N_R   0.750020 0.500070 0.500040 -0.102006
O1    O     O_R   0.419720 0.632140 0.499980 -0.619344
O2    O     O_R   0.580280 0.367860 0.500020 -0.619138
O3    O     O_R   0.580270 0.632160 0.499970 -0.624613
O4    O     O_R   0.419730 0.367840 0.500030 -0.623073
O5    O     O_R   0.373870 0.499980 0.632250 -0.615611
O6    O     O_R   0.626130 0.500020 0.367750 -0.614610
O7    O     O_R   0.534420 0.500000 0.632240 -0.625899
O8    O     O_R   0.465580 0.500000 0.367760 -0.623794
Zn1   Zn    Zn3+2 0.392800 0.499980 0.500010 0.948549
Zn2   Zn    Zn3+2 0.607200 0.500020 0.499990 0.947303
I1    I     I_    0.099339 0.465280 0.005938 -0.364799
I2    I     I_    0.872696 0.643239 0.015416 -0.357484

loop_
_geom_bond_atom_site_label_1
_geom_bond_atom_site_label_2
_ccdc_geom_bond_type
C41   I1    S    
C27   C29   A    
C34   C37   A    
O5    Zn1   S    
C22   H24   S    
O1    Zn1   S    
C47   C49   A    
C40   C46   A    
C26   N2    A    
C23   O5    A    
C25   N1    A    
C5    H1    S    
C19   C21   A    
C11   H19   S    
C1    O3    A    
O4    Zn1   S    
C18   C21   A    
C35   H7    S    
C27   N1    A    
C26   C34   A    
C47   C51   A    
C7    C17   A    
C31   C33   A    
C28   N2    A    
C39   C45   A    
C48   C50   A    
C12   H20   S    
C41   C43   A    
C5    C49   A    
C44   H13   S    
C42   C44   A    
C6    H2    S    
C41   C49   A    
C45   C47   A    
C46   C48   A    
C13   C19   A    
C4    C51   A    
C51   C52   A    
C14   C20   A    
C19   H21   S    
C4    C6    A    
C27   H5    S    
C4    H16   S    
O8    Zn1   S    
C39   C43   A    
C36   H8    S    
C8    C18   A    
C42   I2    S    
C32   C34   A    
C31   C32   A    
C40   C44   A    
C29   C31   A    
C20   H22   S    
C6    C50   A    
C9    C11   A    
C10   C12   A    
C42   C50   A    
C8    C10   A    
C20   C22   A    
C13   C15   A    
C1    O1    A    
C14   C16   A    
C2    O4    A    
O7    Zn2   S    
N2    Zn2   S    
C15   C17   A    
C21   H23   S    
C35   C37   A    
C3    H15   S    
C1    C10   S    
O6    Zn2   S    
C12   C14   A    
C3    C5    A    
C26   H4    S    
C7    H17   S    
C37   H9    S    
C3    C52   A    
C28   H6    S    
C29   C35   A    
C45   H12   S    
C8    H18   S    
C17   C22   A    
C30   C36   A    
C46   H11   S    
C36   C38   A    
C24   O6    A    
O2    Zn2   S    
C30   C32   A    
C11   C13   A    
C43   H14   S    
C23   C39   S    
C28   C30   A    
C24   C40   S    
C25   H3    S    
O3    Zn2   S    
C2    O2    A    
C7    C9    A    
C48   C52   A    
N1    Zn1   S    
C16   C18   A    
C23   O7    A    
C33   C38   A    
C2    C9    S    
C24   O8    A    
C15   C16   A    
C25   C33   A    
C38   H10   S    
