data_mof_unit_56110.cif
_audit_creation_date              2012-12-11T18:13:34-0500
_audit_creation_method            fapswitch 2.2
_symmetry_space_group_name_H-M    P1
_symmetry_Int_Tables_number       1
_space_group_crystal_system       triclinic
_cell_length_a                    8.247343
_cell_length_b                    12.936198
_cell_length_c                    18.631341
_cell_angle_alpha                 99.271201
_cell_angle_beta                  90.714294
_cell_angle_gamma                 98.82211
_cell_volume                      1937.17912172

loop_
_atom_site_label
_atom_site_type_symbol
_atom_type_description
_atom_site_fract_x
_atom_site_fract_y
_atom_site_fract_z
_atom_type_partial_charge
Ba1   Ba    Ba6+2 0.852780 0.548340 0.465070 1.694319
Ba2   Ba    Ba6+2 0.337060 0.451750 0.534940 1.693015
Br1   Br    Br    0.522660 0.986292 0.241987 -0.577378
Br2   Br    Br    0.110638 0.317105 0.786015 -0.613174
Br3   Br    Br    0.909896 0.955191 0.635444 -0.673235
C1    C     C_3   0.670717 0.885854 0.214579 0.060046
C2    C     C_R   0.888002 0.403020 0.096688 0.033887
C3    C     C_R   0.724549 0.360601 0.074899 -0.071764
C4    C     C_3   0.123247 0.737219 0.231708 0.409219
C5    C     C_R   0.661461 0.370832 0.006826 -0.090604
C6    C     C_R   0.761335 0.422242 0.958621 0.030078
C7    C     C_R   0.924838 0.466788 0.980210 0.025336
C8    C     C_R   0.701674 0.425827 0.888351 -0.110079
C9    C     C_R   0.805021 0.469359 0.837344 -0.018466
C10   C     C_R   0.966492 0.520488 0.860328 0.046161
C11   C     C_R   0.025941 0.518287 0.931889 0.022693
C12   C     C_3   0.660364 0.806350 0.267270 0.385147
C13   C     C_R   0.755897 0.457692 0.762970 -0.022885
C14   C     C_R   0.867203 0.493399 0.713091 -0.262187
C15   C     C_R   0.022177 0.550536 0.735230 0.077917
C16   C     C_3   0.048344 0.764550 0.163102 -0.026982
C17   C     C_R   0.073044 0.566288 0.810212 -0.009765
C18   C     C_R   0.151995 0.500499 0.071268 -0.002602
C19   C     C_R   0.213694 0.494206 0.141720 -0.014380
C20   C     C_R   0.109656 0.444250 0.190827 -0.061167
C21   C     C_R   0.951438 0.392749 0.165113 -0.027412
C22   C     C_R   0.231115 0.618535 0.835736 -0.031787
C23   C     C_3   0.468448 0.278226 0.315956 0.330138
C24   C     C_R   0.292044 0.612359 0.905439 0.052590
C25   C     C_R   0.190000 0.561148 0.953491 0.034706
C26   C     C_R   0.253249 0.551563 0.022828 0.036329
C27   C     C_R   0.456304 0.653023 0.926814 -0.056695
C28   C     C_3   0.242371 0.783066 0.618930 0.320013
C29   C     C_R   0.519334 0.642283 0.994751 -0.066704
C30   C     C_R   0.418591 0.592224 0.043275 0.052325
C31   C     C_R   0.378593 0.539271 0.163117 -0.059622
C32   C     C_R   0.480642 0.583842 0.112132 -0.108028
C33   C     C_R   0.434490 0.540510 0.235446 0.033465
C34   C     C_3   0.444116 0.243542 0.234060 -0.320144
C35   C     C_R   0.328393 0.496032 0.284181 -0.207083
C36   C     C_R   0.167070 0.449203 0.264053 0.028785
C37   C     C_R   0.761997 0.183607 0.532233 -0.304702
C38   C     C_R   0.443698 0.810579 0.475034 -0.228742
C39   C     C_R   0.417790 0.978419 0.440465 -0.074582
C40   C     C_3   0.313959 0.899989 0.640223 -0.379407
C41   C     C_R   0.363225 0.868990 0.435532 0.042472
C42   C     C_R   0.581580 0.853935 0.517784 0.079232
C43   C     C_R   0.641682 0.965737 0.527102 -0.057196
C44   C     C_R   0.556235 0.028944 0.486922 -0.047157
C45   C     C_3   0.053379 0.173574 0.739384 0.599793
C46   C     C_R   0.617013 0.139440 0.491849 0.043725
C47   C     C_R   0.850927 0.122593 0.567868 -0.013326
C48   C     C_R   0.787544 0.016466 0.569630 0.160049
C49   C     C_3   0.988212 0.208193 0.379166 0.271189
C50   C     C_3   0.063264 0.107747 0.360160 -0.302563
C51   C     C_3   0.733264 0.701887 0.682069 0.358351
C52   C     C_3   0.756141 0.740779 0.763708 -0.375854
C53   C     C_3   0.084037 0.104779 0.796035 -0.303523
C54   C     C_3   0.570566 0.195091 0.713329 0.375087
C55   C     C_3   0.583476 0.107491 0.757582 -0.391593
C56   C     C_R   0.988048 0.457556 0.049645 0.004071
H1    H     H_    0.441174 0.907758 0.662575 0.110490
H2    H     H_    0.641988 0.628042 0.672175 0.031942
H3    H     H_    0.795838 0.931742 0.215222 0.098752
H4    H     H_    0.856898 0.809537 0.774680 0.146462
H5    H     H_    0.786523 0.677642 0.792601 0.029882
H6    H     H_    0.641052 0.765911 0.785485 0.120648
H7    H     H_    0.529777 0.785803 0.276448 0.085918
H8    H     H_    0.352246 0.301398 0.337754 -0.030288
H9    H     H_    0.567866 0.347691 0.326273 0.055096
H10   H     H_    0.340333 0.176914 0.221758 0.168676
H11   H     H_    0.416241 0.310118 0.207791 0.017146
H12   H     H_    0.314385 0.941051 0.592392 0.090141
H13   H     H_    0.557756 0.217793 0.211058 0.156996
H14   H     H_    0.635167 0.843952 0.158443 0.106382
H15   H     H_    0.921242 0.157562 0.723465 -0.038744
H16   H     H_    0.212958 0.125274 0.817687 0.142726
H17   H     H_    0.000880 0.118117 0.841916 0.092421
H18   H     H_    0.060979 0.019393 0.772729 0.126673
H19   H     H_    0.697232 0.228842 0.700655 -0.082625
H20   H     H_    0.500552 0.160498 0.661434 0.064838
H21   H     H_    0.653451 0.141016 0.809592 0.126538
H22   H     H_    0.648251 0.046606 0.726643 0.113562
H23   H     H_    0.240512 0.939627 0.682495 0.181872
H24   H     H_    0.044286 0.666734 0.246627 0.051353
H25   H     H_    0.459360 0.069189 0.769587 0.126043
H26   H     H_    0.645045 0.319690 0.110626 0.071491
H27   H     H_    0.535060 0.336787 0.991367 0.088858
H28   H     H_    0.829270 0.480755 0.656128 0.048649
H29   H     H_    0.576119 0.390312 0.873302 0.123177
H30   H     H_    0.873822 0.346527 0.198496 0.107956
H31   H     H_    0.311985 0.659606 0.800747 0.090261
H32   H     H_    0.537147 0.691642 0.890488 0.059330
H33   H     H_    0.646986 0.673725 0.009511 0.075248
H34   H     H_    0.858619 0.185975 0.392478 0.018916
H35   H     H_    0.609003 0.612823 0.125075 0.105348
H36   H     H_    0.245691 0.716912 0.217265 0.041835
H37   H     H_    0.372453 0.499174 0.339585 0.063158
H38   H     H_    0.355973 0.021869 0.406795 0.109094
H39   H     H_    0.812028 0.266009 0.532210 0.057339
H40   H     H_    0.400842 0.726073 0.469413 0.080773
H41   H     H_    0.983418 0.691012 0.129091 0.043204
H42   H     H_    0.960147 0.819325 0.177246 0.128998
H43   H     H_    0.337510 0.739663 0.593194 -0.008273
H44   H     H_    0.136754 0.774920 0.580017 0.087544
H45   H     H_    0.055195 0.257203 0.427833 0.073456
H46   H     H_    0.995104 0.056030 0.312616 0.158827
H47   H     H_    0.060011 0.065322 0.407390 0.102933
H48   H     H_    0.191989 0.127043 0.344731 0.138376
H49   H     H_    0.852544 0.687030 0.659655 0.013932
I1    I     I_    0.795623 0.876569 0.365144 -0.449461
I2    I     I_    0.226565 0.838088 0.097281 -0.452744
O1    O     O_2   0.873090 0.425890 0.325140 -0.457852
O2    O     O_2   0.174214 0.126321 0.541731 -0.472841
O3    O     O_3   0.154801 0.154127 0.680074 -0.544668
O4    O     O_3   0.122420 0.434370 0.414380 -0.504170
O5    O     O_3   0.578370 0.633800 0.536380 -0.494989
O6    O     O_2   0.341510 0.231850 0.465510 -0.478300
O7    O     O_3   0.510878 0.193839 0.347308 -0.590638
O8    O     O_2   0.419654 0.461094 0.756125 -0.436714
O9    O     O_3   0.487132 0.270850 0.753488 -0.550936
O10   O     O_3   0.659500 0.627100 0.368810 -0.437640
O11   O     O_2   0.758528 0.527214 0.245625 -0.497813
O12   O     O_3   0.675973 0.781409 0.651351 -0.594048
O13   O     O_3   0.990985 0.256326 0.316948 -0.628163
O14   O     O_3   0.728415 0.717259 0.236821 -0.640985
O15   O     O_2   0.848200 0.768190 0.534530 -0.454279
O16   O     O_3   0.081160 0.685950 0.404810 -0.442975
O17   O     O_2   0.325621 0.708441 0.336642 -0.583646
O18   O     O_3   0.136969 0.823189 0.290237 -0.564179
O19   O     O_2   0.316610 0.574140 0.674900 -0.459375
O20   O     O_3   0.067290 0.565720 0.585630 -0.507358
O21   O     O_3   0.530210 0.372990 0.631200 -0.475696
O22   O     O_3   0.191014 0.743868 0.681707 -0.637764
O23   O     O_3   0.611340 0.366290 0.463630 -0.487212
O24   O     O_3   0.108550 0.314140 0.595200 -0.450744
P1    P     P_3+3 0.041040 0.394770 0.336330 0.980421
P2    P     P_3+3 0.672880 0.754030 0.556100 1.027268
P3    P     P_3+3 0.210152 0.784713 0.370121 0.958037
P4    P     P_3+3 0.148670 0.605320 0.663680 0.981195
P5    P     P_3+3 0.066717 0.179457 0.599148 1.029768
P6    P     P_3+3 0.641077 0.604870 0.272796 0.982784
P7    P     P_3+3 0.523917 0.230716 0.441916 0.961939
P8    P     P_3+3 0.549597 0.393350 0.726056 1.011097

loop_
_geom_bond_atom_site_label_1
_geom_bond_atom_site_label_2
_ccdc_geom_bond_type
C39   C44   A    
C54   O9    S    
C33   C35   A    
O3    P5    S    
C8    H29   S    
C22   C24   A    
C28   H43   S    
O7    P7    S    
C9    C13   A    
C14   C15   A    
O8    P8    D    
Ba1   O16   S    
C52   H5    S    
Br1   C1    S    
Ba2   O6    S    
C2    C3    A    
C4    O18   S    
C5    H27   S    
C19   C31   A    
C2    C21   A    
C51   O12   S    
O12   P2    S    
C31   C32   A    
C30   C32   A    
O16   P3    S    
C29   C30   A    
C24   C27   A    
C45   H15   S    
O22   P4    S    
C25   C26   A    
C39   H38   S    
C12   O14   S    
C11   C25   A    
C10   C11   A    
C40   H1    S    
C28   C40   S    
C51   C52   S    
O11   P6    D    
C40   H12   S    
C45   O3    S    
C34   H13   S    
C1    H3    S    
Ba1   O10   S    
C2    C56   A    
O19   P4    D    
C53   H16   S    
C4    H24   S    
Ba2   O4    S    
C28   O22   S    
C10   C17   A    
C23   H8    S    
C44   C46   A    
Ba2   O20   S    
C34   H11   S    
O15   P2    D    
C36   P1    S    
C37   C46   A    
Ba1   O20   S    
O23   P7    S    
C27   H32   S    
C54   C55   S    
C8    C9    A    
C50   H48   S    
C33   P6    S    
O9    P8    S    
Ba1   O15   S    
Ba1   O1    S    
C52   H6    S    
O18   P3    S    
C12   I1    S    
C47   P5    S    
C51   H49   S    
C37   C47   A    
Ba2   O5    S    
C39   C41   A    
C43   C48   A    
C49   O13   S    
Ba2   O21   S    
C49   H45   S    
C45   C53   S    
O2    P5    D    
C7    C11   A    
C1    H14   S    
C28   H44   S    
C19   C20   A    
O6    P7    D    
C20   C36   A    
C55   H25   S    
C13   C14   A    
C23   C34   S    
O13   P1    S    
C21   H30   S    
O14   P6    S    
Ba2   O24   S    
C32   H35   S    
C50   H46   S    
C27   C29   A    
C38   H40   S    
C24   C25   A    
C14   H28   S    
C37   H39   S    
C42   C43   A    
O17   P3    D    
C18   C19   A    
C52   H4    S    
Ba2   O19   S    
C51   H2    S    
C22   H31   S    
Ba1   O5    S    
C49   H34   S    
C55   H21   S    
C53   H18   S    
C16   H41   S    
C43   C44   A    
Ba1   O4    S    
C29   H33   S    
C17   C22   A    
O1    P1    D    
C40   H23   S    
O20   P4    S    
O10   P6    S    
C16   I2    S    
Ba1   P1    S    
C47   C48   A    
O4    P1    S    
Br3   C48   S    
C1    C12   S    
C49   C50   S    
C35   C36   A    
C12   H7    S    
C4    H36   S    
C23   H9    S    
C54   H20   S    
C15   C17   A    
O5    P2    S    
C54   H19   S    
C6    C7    A    
C23   O7    S    
C46   P7    S    
O21   P8    S    
Ba2   O23   S    
C50   H47   S    
C3    H26   S    
Ba2   P4    S    
C15   P4    S    
C31   C33   A    
C20   C21   A    
C35   H37   S    
C7    C56   A    
C6    C8    A    
C4    C16   S    
Ba1   Ba2   S    
C42   P2    S    
C13   P8    S    
C55   H22   S    
O24   P5    S    
C26   C30   A    
C38   C41   A    
C5    C6    A    
C53   H17   S    
C16   H42   S    
C18   C56   A    
C3    C5    A    
Br2   C45   S    
C34   H10   S    
C9    C10   A    
Ba1   O23   S    
C38   C42   A    
Ba1   P2    S    
C18   C26   A    
C41   P3    S    
