data_mof_unit_54097.cif
_audit_creation_date              2012-12-10T17:25:31-0500
_audit_creation_method            fapswitch 2.2
_symmetry_space_group_name_H-M    P1
_symmetry_Int_Tables_number       1
_space_group_crystal_system       triclinic
_cell_length_a                    10.207925
_cell_length_b                    10.805931
_cell_length_c                    23.119992
_cell_angle_alpha                 92.77542
_cell_angle_beta                  80.950739
_cell_angle_gamma                 96.841799
_cell_volume                      2499.4538275

loop_
_atom_site_label
_atom_site_type_symbol
_atom_type_description
_atom_site_fract_x
_atom_site_fract_y
_atom_site_fract_z
_atom_type_partial_charge
C1    C     C_R   0.557548 0.731743 0.491617 0.804477
C2    C     C_R   0.442831 0.267757 0.507568 0.829150
C3    C     C_R   0.510836 0.478776 0.771975 0.421563
C4    C     C_R   0.618808 0.560974 0.226506 0.433672
C5    C     C_R   0.522338 0.446464 0.712246 0.147514
C6    C     C_R   0.625232 0.551957 0.286360 0.152774
C7    C     C_R   0.500260 0.533353 0.672719 -0.229702
C8    C     C_R   0.505525 0.528139 0.326337 -0.236820
C9    C     C_R   0.459340 0.648937 0.693375 -0.363533
C10   C     C_R   0.382810 0.533669 0.306861 -0.332560
C11   C     C_R   0.434539 0.676812 0.753179 0.524541
C12   C     C_R   0.377359 0.557587 0.249081 0.489753
C13   C     C_R   0.461739 0.592414 0.792734 -0.019370
C14   C     C_R   0.494370 0.565037 0.208189 0.016706
C15   C     C_2   0.595760 0.864201 0.481701 0.256603
C16   C     C_2   0.405865 0.134032 0.512236 0.234317
C17   C     C_2   0.497111 0.935961 0.482035 0.154792
C18   C     C_2   0.503993 0.060758 0.510850 0.156080
C19   C     C_2   0.926803 0.471764 0.513897 0.525451
C20   C     C_2   0.077571 0.467856 0.499155 0.503810
C21   C     C_R   0.499557 0.502947 0.610789 0.972910
C22   C     C_R   0.502683 0.507799 0.389084 0.915230
C23   C     C_R   0.415909 0.481686 0.120243 0.605500
C24   C     C_R   0.505804 0.711068 0.880289 0.584398
C25   C     C_R   0.535749 0.685435 0.120491 0.621978
C26   C     C_R   0.344283 0.531922 0.887000 0.636066
C27   C     C_R   0.521277 0.701235 0.061707 -0.149741
C28   C     C_R   0.348770 0.522341 0.947002 -0.145260
C29   C     C_R   0.448698 0.603209 0.032887 -0.119282
C30   C     C_R   0.433745 0.613575 0.973782 -0.124343
C31   C     C_R   0.392202 0.493810 0.062816 -0.174933
C32   C     C_R   0.505270 0.714325 0.941222 -0.169206
C33   C     C_R   0.576536 0.810149 0.030633 0.188838
C34   C     C_R   0.280188 0.420483 0.979844 0.217282
C35   C     C_R   0.578076 0.811864 0.969827 0.422030
C36   C     C_R   0.311977 0.400623 0.035120 0.412678
H1    H     H_    0.438879 0.715090 0.663039 0.182588
H2    H     H_    0.289866 0.523801 0.336661 0.204900
N1    N     N_R   0.484819 0.576915 0.147617 -0.335021
N2    N     N_R   0.432217 0.616443 0.854674 -0.338634
N3    N     N_2   0.842710 0.448880 0.476480 0.018145
N4    N     N_2   0.157290 0.551120 0.523520 0.035446
O1    O     O_R   0.431060 0.692470 0.504730 -0.608449
O2    O     O_R   0.568940 0.307530 0.495270 -0.642682
O3    O     O_R   0.651120 0.659650 0.489640 -0.595275
O4    O     O_R   0.348880 0.340350 0.510360 -0.542962
O5    O     O_R   0.389950 0.516450 0.591390 -0.664154
O6    O     O_R   0.610050 0.483550 0.408610 -0.590286
O7    O     O_R   0.610020 0.483630 0.576300 -0.543707
O8    O     O_R   0.389980 0.516370 0.423700 -0.601727
O9    O     O_2   0.369526 0.376262 0.149413 -0.504359
O10   O     O_2   0.582687 0.798069 0.846344 -0.487517
O11   O     O_2   0.600633 0.776096 0.150760 -0.471953
O12   O     O_2   0.259360 0.453800 0.859525 -0.494349
Zn1   Zn    Zn3+2 0.353060 0.521920 0.510080 1.006622
Zn2   Zn    Zn3+2 0.646940 0.478080 0.489920 1.039267
Br1   Br    Br    0.646434 0.963353 0.067661 -0.445949
Br2   Br    Br    0.143326 0.301625 0.952962 -0.434247
O13   O     O_3   0.106576 0.658297 0.542500 -0.538060
C37   C     C_3   0.166689 0.705976 0.590973 0.268118
H3    H     H_    0.256295 0.771513 0.575972 0.172108
H4    H     H_    0.193748 0.631605 0.617059 0.131508
C38   C     C_3   0.068587 0.777998 0.631815 -0.888127
H5    H     H_    0.984742 0.713567 0.653580 0.274548
H6    H     H_    0.119915 0.830877 0.665754 0.201929
H7    H     H_    0.026331 0.844047 0.606860 0.282267
O14   O     O_3   0.893365 0.420726 0.420505 -0.587403
C39   C     C_3   0.819822 0.308680 0.403013 0.208527
H8    H     H_    0.713546 0.315039 0.405302 0.215051
H9    H     H_    0.826471 0.231023 0.431894 0.128950
C40   C     C_3   0.869604 0.272780 0.339211 -0.867061
H10   H     H_    0.975286 0.253995 0.332475 0.246243
H11   H     H_    0.807974 0.187709 0.325831 0.217627
H12   H     H_    0.860327 0.347959 0.309868 0.304485
O15   O     O_3   0.641234 0.915255 0.939476 -0.545891
C41   C     C_3   0.779176 0.902956 0.925358 0.148914
H13   H     H_    0.796445 0.819710 0.896049 0.136855
H14   H     H_    0.825308 0.894320 0.965299 0.157163
C42   C     C_3   0.849456 0.018406 0.893777 -0.697745
H15   H     H_    0.833316 0.103030 0.922026 0.272660
H16   H     H_    0.958311 0.011337 0.883513 0.208904
H17   H     H_    0.809673 0.027133 0.852302 0.265430
O16   O     O_3   0.256847 0.292151 0.063318 -0.542742
C43   C     C_3   0.341121 0.198029 0.045264 0.173955
H18   H     H_    0.442029 0.224183 0.057811 0.159879
H19   H     H_    0.352255 0.180258 0.996972 0.157905
C44   C     C_3   0.280530 0.077364 0.074926 -0.682899
H20   H     H_    0.179537 0.049046 0.063251 0.256107
H21   H     H_    0.344526 0.002126 0.060253 0.216382
H22   H     H_    0.272534 0.090459 0.123249 0.268539
O17   O     O_3   0.528326 0.391315 0.811058 -0.535277
C45   C     C_3   0.654703 0.420791 0.828872 0.096441
H23   H     H_    0.671044 0.519555 0.844735 0.113845
H24   H     H_    0.734867 0.403562 0.791961 0.159200
C46   C     C_3   0.664823 0.337696 0.878898 -0.734155
H25   H     H_    0.651426 0.238071 0.864435 0.284703
H26   H     H_    0.764433 0.358865 0.892958 0.212865
H27   H     H_    0.586597 0.354341 0.916741 0.236702
O18   O     O_3   0.734650 0.575018 0.186260 -0.554524
C47   C     C_3   0.763190 0.455712 0.163733 0.086284
H28   H     H_    0.676611 0.403846 0.145732 0.145639
H29   H     H_    0.790451 0.400158 0.198499 0.171525
C48   C     C_3   0.880482 0.469804 0.114093 -0.702005
H30   H     H_    0.970517 0.517235 0.130546 0.262142
H31   H     H_    0.902519 0.376444 0.095582 0.241820
H32   H     H_    0.856007 0.525437 0.078873 0.244530
Br3   Br    Br    0.550416 0.278529 0.687859 -0.447008
Br4   Br    Br    0.797023 0.591737 0.311183 -0.499502
O19   O     O_3   0.382959 0.786502 0.772727 -0.541520
C49   C     C_3   0.242248 0.763657 0.781125 0.083016
H33   H     H_    0.205866 0.698635 0.817610 0.159792
H34   H     H_    0.205348 0.723476 0.740563 0.124095
C50   C     C_3   0.183378 0.885854 0.796943 -0.747620
H35   H     H_    0.217892 0.952892 0.761295 0.271430
H36   H     H_    0.072693 0.868840 0.802987 0.192064
H37   H     H_    0.214898 0.926648 0.838292 0.274179
O20   O     O_3   0.255870 0.567424 0.231503 -0.574030
C51   C     C_3   0.229880 0.693203 0.238668 0.079282
H38   H     H_    0.319728 0.759631 0.223358 0.155330
H39   H     H_    0.193667 0.714658 0.285623 0.182272
C52   C     C_3   0.122438 0.713993 0.202653 -0.705782
H40   H     H_    0.030857 0.649702 0.216285 0.303694
H41   H     H_    0.158531 0.696575 0.155404 0.235490
H42   H     H_    0.098057 0.811612 0.209298 0.220200
Br5   Br    Br    0.644749 0.112932 0.557664 -0.479827
Br6   Br    Br    0.359193 0.879611 0.434180 -0.486053
O21   O     O_3   0.276494 0.085864 0.506821 -0.587764
C53   C     C_3   0.195924 0.093385 0.562136 0.145903
H43   H     H_    0.211461 0.186696 0.584367 0.150307
H44   H     H_    0.217869 0.021287 0.590877 0.145313
C54   C     C_3   0.049703 0.070047 0.554256 -0.733183
H45   H     H_    0.030197 0.979119 0.530927 0.277644
H46   H     H_    0.985275 0.069192 0.597697 0.215614
H47   H     H_    0.023647 0.144685 0.528337 0.270259
O22   O     O_3   0.727306 0.916744 0.481025 -0.591259
C55   C     C_3   0.814154 0.862368 0.435499 0.187180
H48   H     H_    0.761979 0.810852 0.401062 0.158149
H49   H     H_    0.870454 0.797036 0.454790 0.203169
C56   C     C_3   0.913864 0.963641 0.405180 -0.813749
H50   H     H_    0.965889 0.021038 0.437540 0.264920
H51   H     H_    0.989031 0.920728 0.372844 0.239162
H52   H     H_    0.860727 0.024224 0.381814 0.244152
O23   O     O_3   0.126724 0.354114 0.482753 -0.647070
C57   C     C_3   0.128718 0.323638 0.422657 0.135008
H53   H     H_    0.132804 0.406345 0.395397 0.174451
H54   H     H_    0.040770 0.257298 0.419454 0.166321
C58   C     C_3   0.242084 0.247749 0.396879 -0.749438
H55   H     H_    0.224387 0.152909 0.414678 0.295951
H56   H     H_    0.244532 0.237142 0.348706 0.200658
H57   H     H_    0.340595 0.292183 0.404771 0.250709
O24   O     O_3   0.877413 0.503980 0.571138 -0.591216
C59   C     C_3   0.884644 0.403565 0.607244 0.121763
H58   H     H_    0.976194 0.355395 0.594781 0.114195
H59   H     H_    0.796710 0.333722 0.605059 0.229778
C60   C     C_3   0.883966 0.450521 0.670295 -0.799732
H60   H     H_    0.802452 0.510159 0.683733 0.262818
H61   H     H_    0.869502 0.369735 0.699397 0.229318
H62   H     H_    0.981175 0.504767 0.675069 0.228249

loop_
_geom_bond_atom_site_label_1
_geom_bond_atom_site_label_2
_ccdc_geom_bond_type
C24   O10   S    
C22   O6    A    
C44   H20   S    
C38   H6    S    
C11   O19   S    
C56   H51   S    
C46   H25   S    
C41   C42   S    
O6    Zn2   S    
C54   H47   S    
C1    O3    A    
C53   H43   S    
C21   O7    A    
C46   H27   S    
O22   C55   S    
N3    O14   S    
C27   C33   A    
C35   O15   S    
C37   C38   S    
C3    O17   S    
C58   H56   S    
C41   H14   S    
C50   H35   S    
C57   C58   S    
C18   Br5   S    
C56   H52   S    
C17   Br6   S    
C15   O22   S    
C36   O16   S    
O23   C57   S    
C27   C29   A    
C37   H4    S    
C49   H33   S    
C47   H28   S    
C52   H42   S    
C24   N2    A    
C14   N1    S    
C51   H38   S    
C1    O1    A    
C58   H55   S    
O3    Zn2   S    
C2    O2    A    
C39   H8    S    
C13   N2    S    
O4    Zn1   S    
C8    C22   S    
O24   C59   S    
C43   C44   S    
C1    C15   S    
C2    C16   S    
C3    C13   A    
C22   O8    A    
C50   H37   S    
C38   H7    S    
C28   C34   A    
O13   C37   S    
C60   H62   S    
C20   O23   S    
C55   C56   S    
C26   O12   S    
C9    H1    S    
C51   H39   S    
O14   C39   S    
C32   C35   A    
C58   H57   S    
C43   H18   S    
C4    C6    A    
O17   C45   S    
C5    C7    A    
C57   H53   S    
C6    C8    A    
C3    C5    A    
C7    C21   S    
C45   C46   S    
C2    O4    A    
C42   H15   S    
C37   H3    S    
C51   C52   S    
C23   C31   A    
O15   C41   S    
C24   C32   A    
N3    Zn2   S    
C29   C30   A    
N4    Zn1   S    
C40   H12   S    
O2    Zn2   S    
C23   O9    S    
O16   C43   S    
C59   C60   S    
C45   H24   S    
C17   C18   S    
C48   H31   S    
C16   C18   D    
C41   H13   S    
C60   H61   S    
C9    C11   A    
C49   C50   S    
C52   H40   S    
C10   C12   A    
C57   H54   S    
C59   H59   S    
C44   H21   S    
C4    O18   S    
C54   H45   S    
C53   C54   S    
C48   H30   S    
C55   H49   S    
O5    Zn1   S    
C47   H29   S    
C5    Br3   S    
O1    Zn1   S    
C7    C9    A    
C33   Br1   S    
C26   C28   A    
C19   O24   S    
C25   O11   S    
C55   H48   S    
C54   H46   S    
C53   H44   S    
N4    O13   S    
C42   H17   S    
C20   N4    D    
C56   H50   S    
C46   H26   S    
C15   C17   D    
O21   C53   S    
C25   C27   A    
O7    Zn2   S    
C42   H16   S    
O8    Zn1   S    
O18   C47   S    
C10   H2    S    
C19   C20   S    
C28   C30   A    
C12   C14   A    
C40   H10   S    
C29   C31   A    
O20   C51   S    
C25   N1    A    
C30   C32   A    
C11   C13   A    
C26   N2    A    
C39   C40   S    
C23   N1    A    
C45   H23   S    
C33   C35   A    
C48   H32   S    
C34   C36   A    
C47   C48   S    
C4    C14   A    
C16   O21   S    
C49   H34   S    
C52   H41   S    
C38   H5    S    
C59   H58   S    
C8    C10   A    
C44   H22   S    
C40   H11   S    
C60   H60   S    
C34   Br2   S    
C39   H9    S    
C6    Br4   S    
C31   C36   A    
C43   H19   S    
C12   O20   S    
C50   H36   S    
O19   C49   S    
C19   N3    D    
C21   O5    A    
