data_mof_unit_7057.cif
_audit_creation_date              2012-12-10T19:04:11-0500
_audit_creation_method            fapswitch 2.2
_symmetry_space_group_name_H-M    P1
_symmetry_Int_Tables_number       1
_space_group_crystal_system       triclinic
_cell_length_a                    10.705108
_cell_length_b                    10.858666
_cell_length_c                    9.569458
_cell_angle_alpha                 89.625795
_cell_angle_beta                  89.047829
_cell_angle_gamma                 89.657681
_cell_volume                      1112.18788007

loop_
_atom_site_label
_atom_site_type_symbol
_atom_type_description
_atom_site_fract_x
_atom_site_fract_y
_atom_site_fract_z
_atom_type_partial_charge
C1    C     C_R   0.502626 0.262888 0.500276 0.790595
C2    C     C_3   0.968856 0.534021 0.371793 0.335570
C3    C     C_3   0.045596 0.417078 0.404530 -0.217409
C4    C     C_3   0.124089 0.493226 0.504331 -0.102908
C5    C     C_R   0.486411 0.062030 0.620381 0.040808
C6    C     C_R   0.509050 0.130445 0.499921 -0.073364
C7    C     C_R   0.534377 0.065512 0.375344 -0.207868
C8    C     C_R   0.531713 0.936387 0.374996 -0.169606
C9    C     C_R   0.501334 0.870342 0.498164 -0.109182
C10   C     C_R   0.474577 0.938450 0.617522 0.004139
C11   C     C_3   0.423502 0.932943 0.765059 0.323448
C12   C     C_R   0.259965 0.495261 0.501386 0.822224
C13   C     C_3   0.439654 0.073802 0.767242 -0.507750
C14   C     C_R   0.526435 0.605121 0.072529 0.247184
C15   C     C_R   0.457911 0.401565 0.075757 -0.069058
C16   C     C_R   0.456988 0.402033 0.927247 -0.052448
C17   C     C_R   0.530387 0.603590 0.924953 0.247138
C18   C     C_3   0.654345 0.663947 0.921141 -0.422665
C19   C     C_3   0.645629 0.672880 0.078230 -0.465700
C20   C     C_R   0.499227 0.737359 0.499587 0.796791
C21   C     C_R   0.741040 0.503326 0.498481 0.856891
C22   C     C_3   0.035579 0.462827 0.626452 0.498452
C23   C     C_3   0.954951 0.385571 0.527868 -0.371628
C24   C     C_3   0.878795 0.503959 0.494830 -0.142697
C25   C     C_3   0.959714 0.579478 0.594539 0.170029
C26   C     C_3   0.049393 0.609796 0.471273 -0.263823
Cu1   Cu    Cu3+1 0.499990 0.499980 0.640670 0.975462
Cu2   Cu    Cu3+1 0.500010 0.500020 0.359330 0.959997
H1    H     H_    0.914797 0.292984 0.548029 0.156018
H2    H     H_    0.487030 0.884776 0.837797 0.101421
H3    H     H_    0.350575 0.126486 0.775360 0.202890
H4    H     H_    0.514023 0.104435 0.838647 0.163395
H5    H     H_    0.425339 0.320869 0.131742 0.138996
H6    H     H_    0.422851 0.322366 0.873475 0.141462
H7    H     H_    0.728178 0.598332 0.886471 0.248080
H8    H     H_    0.653732 0.754607 0.867134 0.213793
H9    H     H_    0.715572 0.617888 0.133825 0.267609
H10   H     H_    0.633642 0.768763 0.114668 0.188924
H11   H     H_    0.090658 0.701225 0.447617 0.170900
H12   H     H_    0.083794 0.350624 0.327026 0.166958
H13   H     H_    0.554920 0.113793 0.278326 0.158580
H14   H     H_    0.551263 0.889284 0.278308 0.154613
N1    N     N_R   0.500800 0.500930 0.147930 -0.185852
N2    N     N_R   0.500800 0.500890 0.852020 -0.187247
O1    O     O_R   0.500000 0.319640 0.618810 -0.590533
O2    O     O_R   0.500010 0.319680 0.381230 -0.602123
O3    O     O_R   0.316850 0.499950 0.618770 -0.544540
O4    O     O_R   0.316860 0.499990 0.381190 -0.573999
O5    O     O_R   0.499990 0.680320 0.618770 -0.580975
O6    O     O_R   0.500000 0.680360 0.381190 -0.583722
O7    O     O_R   0.683140 0.500010 0.618810 -0.577210
O8    O     O_R   0.683150 0.500050 0.381230 -0.573949
O9    O     O_3   0.081640 0.425030 0.757464 -0.589298
C27   C     C_3   0.982610 0.383079 0.844236 0.097620
H15   H     H_    0.922007 0.316553 0.789588 0.123389
H16   H     H_    0.924863 0.462512 0.880361 0.201712
C28   C     C_3   0.037010 0.316662 0.970960 -0.312445
H17   H     H_    0.099735 0.240969 0.934626 0.213849
H18   H     H_    0.093345 0.382078 0.032281 0.254464
C29   C     C_3   0.934078 0.262186 0.064526 -0.886718
H19   H     H_    0.870074 0.335763 0.103119 0.282181
H20   H     H_    0.976434 0.215128 0.155687 0.253630
H21   H     H_    0.879418 0.193600 0.005840 0.254427
Br1   Br    Br    0.907429 0.708383 0.720715 -0.591564
Br2   Br    Br    0.954039 0.594428 0.183043 -0.561777
O10   O     O_3   0.296035 0.900015 0.790853 -0.585071
C30   C     C_3   0.222138 0.879832 0.671566 0.159016
H22   H     H_    0.144649 0.819462 0.706141 0.218522
H23   H     H_    0.270771 0.827090 0.588187 0.101504
C31   C     C_3   0.164772 0.000362 0.616295 -0.387356
H24   H     H_    0.114257 0.048213 0.702854 0.237193
H25   H     H_    0.238722 0.062214 0.575171 0.217776
C32   C     C_3   0.074265 0.977003 0.498019 -0.871980
H26   H     H_    0.123551 0.931042 0.409413 0.260798
H27   H     H_    0.035640 0.066157 0.460329 0.251609
H28   H     H_    0.995594 0.918598 0.535060 0.292407

loop_
_geom_bond_atom_site_label_1
_geom_bond_atom_site_label_2
_ccdc_geom_bond_type
C11   C13   S    
C32   H26   S    
C13   H4    S    
C3    C23   S    
C12   O4    A    
C2    Br2   S    
C7    C8    A    
O9    C27   S    
Cu2   O2    S    
C29   H21   S    
C23   H1    S    
C8    H14   S    
C5    C6    A    
C26   H11   S    
C28   H18   S    
C15   C16   A    
C29   H20   S    
C18   C19   S    
C20   O6    A    
C19   H9    S    
C16   H6    S    
Cu2   O6    S    
Cu1   N2    S    
C11   H2    S    
C8    C9    A    
C22   C25   S    
C23   C24   S    
C31   H24   S    
C4    C12   S    
C9    C10   A    
C16   N2    A    
C5    C13   S    
C11   O10   S    
Cu1   O1    S    
O10   C30   S    
C32   H27   S    
C14   C17   A    
C12   O3    A    
Cu1   O7    S    
C22   O9    S    
C27   H16   S    
C1    C6    S    
C24   C25   S    
C28   C29   S    
C25   C26   S    
C30   H22   S    
C29   H19   S    
C30   H23   S    
C25   Br1   S    
C20   O5    A    
C19   H10   S    
C4    C22   S    
C9    C20   S    
C31   C32   S    
C17   C18   S    
C2    C26   S    
C3    H12   S    
C2    C24   S    
C32   H28   S    
C3    C4    S    
C21   O7    A    
C18   H7    S    
Cu1   O3    S    
C27   H15   S    
Cu2   O4    S    
C14   C19   S    
C13   H3    S    
C4    C26   S    
C6    C7    A    
Cu2   N1    S    
C30   C31   S    
C2    C3    S    
C17   N2    A    
C15   N1    A    
C5    C10   A    
Cu2   O8    S    
C1    O1    A    
C28   H17   S    
C7    H13   S    
C1    O2    A    
C10   C11   S    
C21   C24   S    
Cu1   Cu2   S    
C22   C23   S    
C31   H25   S    
C18   H8    S    
C15   H5    S    
C21   O8    A    
Cu1   O5    S    
C14   N1    A    
C27   C28   S    
