data_mof_unit_38216.cif
_audit_creation_date              2013-03-05T16:36:13-0500
_audit_creation_method            fapswitch 2.2
_symmetry_space_group_name_H-M    P1
_symmetry_Int_Tables_number       1
_space_group_crystal_system       triclinic
_cell_length_a                    27.717375
_cell_length_b                    9.072669
_cell_length_c                    7.77922
_cell_angle_alpha                 90.064506
_cell_angle_beta                  89.779683
_cell_angle_gamma                 90.031509
_cell_volume                      1956.22888572

loop_
_atom_site_label
_atom_site_type_symbol
_atom_site_description
_atom_site_fract_x
_atom_site_fract_y
_atom_site_fract_z
_atom_type_partial_charge
O1    O     O_R   0.500000 0.288390 0.642760 -0.580661
O2    O     O_R   0.500000 0.711610 0.357240 -0.580572
O3    O     O_R   0.500000 0.711610 0.642760 -0.573556
O4    O     O_R   0.500000 0.288390 0.357240 -0.578542
C1    C     C_R   0.499916 0.220026 0.499941 0.825866
C2    C     C_R   0.499921 0.779972 0.500058 0.836597
O5    O     O_R   0.430260 0.500000 0.642770 -0.584864
O6    O     O_R   0.569740 0.500000 0.357230 -0.563873
O7    O     O_R   0.569740 0.500000 0.642770 -0.551002
O8    O     O_R   0.430260 0.500000 0.357230 -0.580540
C3    C     C_R   0.407375 0.500080 0.500284 0.825186
C4    C     C_R   0.593024 0.497786 0.499545 0.879559
Cu1   Cu    Cu3+1 0.500000 0.500000 0.669080 1.015340
Cu2   Cu    Cu3+1 0.500000 0.500000 0.330920 1.012586
C5    C     C_R   0.180539 0.367598 0.381173 0.635822
C6    C     C_R   0.823005 0.620250 0.434572 0.631534
C7    C     C_R   0.179136 0.620608 0.327070 0.629692
C8    C     C_R   0.824564 0.362081 0.491084 0.637861
O9    O     O_2   0.205564 0.241919 0.355943 -0.471500
O10   O     O_2   0.797383 0.745527 0.414893 -0.504659
O11   O     O_2   0.202315 0.730029 0.244000 -0.464010
O12   O     O_2   0.800508 0.236744 0.528748 -0.501647
N1    N     N_R   0.203945 0.501469 0.392149 -0.440584
N2    N     N_R   0.799711 0.491032 0.470953 -0.414548
C9    C     C_R   0.280462 0.646456 0.459354 0.438573
C10   C     C_R   0.721429 0.433510 0.343549 0.346964
C11   C     C_R   0.276236 0.391717 0.543931 0.444604
C12   C     C_R   0.724859 0.546528 0.627953 0.351096
C13   C     C_R   0.331373 0.641207 0.464029 -0.020560
C14   C     C_R   0.670595 0.424664 0.355137 -0.017351
C15   C     C_R   0.327091 0.384965 0.552954 -0.019088
C16   C     C_R   0.673714 0.551450 0.633840 -0.027811
C17   C     C_R   0.253812 0.512229 0.458386 0.121939
C18   C     C_R   0.747953 0.489444 0.481788 0.248422
C19   C     C_R   0.103432 0.492321 0.369373 -0.048732
C20   C     C_R   0.899783 0.490962 0.433609 -0.042523
C21   C     C_R   0.129884 0.361274 0.385061 -0.046906
C22   C     C_R   0.873422 0.622760 0.416048 -0.041953
C23   C     C_R   0.128466 0.622830 0.331768 -0.050163
C24   C     C_R   0.874957 0.359513 0.472180 -0.041854
C25   C     C_R   0.105490 0.227645 0.403929 -0.124001
C26   C     C_R   0.897761 0.753873 0.379959 -0.131771
C27   C     C_R   0.102672 0.751480 0.297653 -0.128316
C28   C     C_R   0.900778 0.228555 0.490971 -0.133692
C29   C     C_R   0.354597 0.507187 0.500547 -0.185920
C30   C     C_R   0.646566 0.491403 0.496633 -0.140976
H1    H     H_    0.125076 0.124629 0.413047 0.188689
H2    H     H_    0.878363 0.856924 0.367182 0.188292
H3    H     H_    0.121184 0.853006 0.265219 0.186591
H4    H     H_    0.882571 0.126189 0.521919 0.187354
C31   C     C_R   0.976745 0.356200 0.430296 0.044458
C32   C     C_R   0.026298 0.624457 0.355217 0.044224
C33   C     C_R   0.975249 0.624687 0.374674 0.043487
C34   C     C_R   0.027758 0.355972 0.409954 0.043314
C35   C     C_R   0.950813 0.490617 0.412759 0.076469
C36   C     C_R   0.052255 0.491017 0.378912 0.078705
C37   C     C_R   0.950574 0.226669 0.471099 -0.201223
C38   C     C_R   0.052632 0.752947 0.310420 -0.203151
C39   C     C_R   0.947575 0.755292 0.360432 -0.199298
C40   C     C_R   0.055463 0.224775 0.417298 -0.201426
H5    H     H_    0.967400 0.121335 0.491410 0.133490
H6    H     H_    0.035841 0.857068 0.282791 0.133031
H7    H     H_    0.963163 0.861845 0.335904 0.131404
H8    H     H_    0.039767 0.117058 0.432209 0.130786
C41   C     C_1   0.499849 0.065407 0.499915 -0.168488
C42   C     C_1   0.499849 0.934590 0.500077 -0.167931
N3    N     N_1   0.500000 0.500000 0.076820 -0.037462
N4    N     N_1   0.500000 0.500000 0.923180 -0.038103
N5    N     N_3   0.350166 0.253087 0.612930 -0.580179
H9    H     H_    0.373366 0.214399 0.516665 0.227520
H10   H     H_    0.370657 0.279011 0.721358 0.242817
N6    N     N_3   0.648966 0.619447 0.775663 -0.550335
H11   H     H_    0.660598 0.728636 0.787197 0.235241
H12   H     H_    0.656961 0.561722 0.888257 0.233026
N7    N     N_3   0.358875 0.773436 0.436679 -0.579471
H13   H     H_    0.380343 0.792301 0.544749 0.220799
H14   H     H_    0.381450 0.757838 0.330280 0.244529
N8    N     N_3   0.643199 0.342617 0.229719 -0.544637
H15   H     H_    0.622612 0.264648 0.296552 0.222242
H16   H     H_    0.665522 0.278308 0.151676 0.240066
O13   O     O_3   0.247721 0.291298 0.631650 -0.669761
H17   H     H_    0.268005 0.222161 0.697980 0.368356
O14   O     O_3   0.753843 0.598899 0.758995 -0.690531
H18   H     H_    0.734031 0.631510 0.857650 0.332283
O15   O     O_3   0.256389 0.778631 0.481871 -0.650896
H19   H     H_    0.279544 0.860487 0.498170 0.374529
O16   O     O_3   0.746581 0.389043 0.199079 -0.691313
H20   H     H_    0.726904 0.412625 0.096687 0.333035

loop_
_geom_bond_atom_site_label_1
_geom_bond_atom_site_label_2
_geom_bond_distance
_ccdc_geom_bond_type
C38   H6    1.075596 S    
O5    Cu1   1.944598 S    
O16   H20   0.990723 S    
N6    H12   1.045577 S    
O3    C2    1.272238 A    
O13   H17   0.989515 S    
C33   C39   1.416571 A    
C16   N6    1.435776 S    
C34   C40   1.418195 A    
O15   H19   0.989655 S    
C11   C17   1.424842 A    
C5    O9    1.348750 S    
C7    N1    1.379211 A    
O1    C1    1.271824 A    
C19   C21   1.402869 A    
C22   C26   1.395472 A    
N8    H16   1.043325 S    
C7    C23   1.404954 A    
N5    H10   1.045214 S    
C8    C24   1.404128 A    
C5    C21   1.405372 A    
C20   C24   1.408579 A    
O7    Cu1   1.943030 S    
C27   C38   1.390215 A    
C10   C18   1.399623 A    
C10   O16   1.380257 S    
N1    C17   1.480086 S    
Cu2   N3    1.976699 S    
C31   C37   1.416381 A    
O3    Cu1   1.930984 S    
C6    O10   1.349731 S    
C5    N1    1.379379 A    
C12   C18   1.401527 A    
C6    N2    1.367443 A    
Cu1   Cu2   2.630622 S    
C12   O14   1.383882 S    
C21   C25   1.395457 A    
O2    C2    1.271796 A    
O5    C3    1.279213 A    
C33   C35   1.422832 A    
C9    C13   1.412567 A    
C34   C36   1.420914 A    
C11   C15   1.412965 A    
N3    N4    1.195200 T    
C12   C16   1.418897 A    
C1    C41   1.402807 S    
O8    Cu2   1.943032 S    
N8    H15   1.046141 S    
N6    H11   1.045483 S    
C11   O13   1.384485 S    
C23   C27   1.395340 A    
N2    C18   1.436795 S    
C13   C29   1.405902 A    
C19   C23   1.402623 A    
N7    H13   1.045724 S    
C15   N5    1.436211 S    
O14   H18   0.987176 S    
C2    C42   1.402806 S    
C28   C37   1.388366 A    
O6    C4    1.283800 A    
C9    O15   1.383261 S    
C25   H1    1.083652 S    
C26   H2    1.083627 S    
N7    H14   1.045223 S    
C32   C38   1.418162 A    
C4    C30   1.485290 S    
C10   C14   1.413759 A    
C8    N2    1.367451 A    
C3    C29   1.464311 S    
O1    Cu1   1.930526 S    
C32   C33   1.422435 A    
C28   H4    1.083629 S    
O6    Cu2   1.944595 S    
C19   C36   1.420185 A    
C8    O12   1.349800 S    
C16   C30   1.416585 A    
C14   C30   1.419543 A    
C27   H3    1.083691 S    
C25   C40   1.390342 A    
O4    C1    1.272226 A    
C26   C39   1.388531 A    
C37   H5    1.075708 S    
C13   N7    1.436615 S    
C39   H7    1.075616 S    
C40   H8    1.075735 S    
C31   C34   1.422177 A    
C20   C22   1.408713 A    
C20   C35   1.423069 A    
C31   C35   1.422869 A    
O4    Cu2   1.930985 S    
N5    H9    1.045691 S    
O2    Cu2   1.930525 S    
O7    C4    1.285586 A    
C7    O11   1.346627 S    
O8    C3    1.278813 A    
C14   N8    1.444311 S    
C24   C28   1.395488 A    
C41   C42   1.186861 T    
C15   C29   1.405256 A    
C9    C17   1.423993 A    
C32   C36   1.421184 A    
C6    C22   1.404458 A    
Cu1   N4    1.976699 S    
