data_mof_unit_26645.cif
_audit_creation_date              2012-12-10T20:45:35-0500
_audit_creation_method            fapswitch 2.2
_symmetry_space_group_name_H-M    P1
_symmetry_Int_Tables_number       1
_space_group_crystal_system       triclinic
_cell_length_a                    10.790007
_cell_length_b                    10.653105
_cell_length_c                    9.878403
_cell_angle_alpha                 90.086786
_cell_angle_beta                  91.141161
_cell_angle_gamma                 90.601691
_cell_volume                      1135.20405839

loop_
_atom_site_label
_atom_site_type_symbol
_atom_type_description
_atom_site_fract_x
_atom_site_fract_y
_atom_site_fract_z
_atom_type_partial_charge
Br1   Br    Br    0.783565 0.727530 0.181697 -0.515302
Br2   Br    Br    0.792042 0.880484 0.531114 -0.511628
C1    C     C_R   0.497225 0.260306 0.500146 0.872466
C2    C     C_R   0.880041 0.741651 0.915007 -0.189861
C3    C     C_R   0.827569 0.661382 0.009893 0.330840
C4    C     C_R   0.260038 0.503451 0.498306 0.853929
C5    C     C_R   0.809668 0.533973 0.978905 -0.193249
C6    C     C_R   0.842698 0.487418 0.851946 -0.163027
C7    C     C_R   0.893122 0.568794 0.755289 0.156992
C8    C     C_R   0.538545 0.064803 0.612562 0.054427
C9    C     C_R   0.486600 0.128470 0.502976 -0.046250
C10   C     C_R   0.420901 0.063851 0.400482 -0.210195
C11   C     C_R   0.422233 0.933890 0.399773 -0.203016
C12   C     C_R   0.193566 0.602057 0.982746 -0.095783
C13   C     C_R   0.489693 0.871456 0.501328 -0.033772
C14   C     C_R   0.542738 0.936964 0.609839 0.037905
C15   C     C_3   0.673324 0.935406 0.664422 0.100404
C16   C     C_R   0.498436 0.739690 0.499964 0.928001
C17   C     C_3   0.666530 0.077368 0.672025 -0.507924
C18   C     C_R   0.512017 0.390641 0.071191 0.211579
C19   C     C_R   0.497624 0.609415 0.071905 -0.071076
C20   C     C_R   0.498437 0.609507 0.928267 -0.140825
C21   C     C_R   0.511744 0.390645 0.928806 0.213116
C22   C     C_3   0.426644 0.279669 0.921157 -0.498997
C23   C     C_R   0.931432 0.492588 0.380599 -0.186124
C24   C     C_3   0.427459 0.279242 0.074829 -0.515654
C25   C     C_R   0.740053 0.501718 0.501814 0.927294
C26   C     C_R   0.198379 0.690156 0.087476 -0.162042
C27   C     C_R   0.156192 0.657749 0.215513 -0.054546
C28   C     C_R   0.109015 0.536528 0.239526 0.169752
C29   C     C_R   0.102788 0.448885 0.133439 -0.182160
C30   C     C_R   0.145779 0.481545 0.005595 -0.129555
C31   C     C_R   0.872684 0.503332 0.504991 -0.064366
C32   C     C_R   0.942445 0.521660 0.626050 0.010014
C33   C     C_R   0.069069 0.515415 0.619708 -0.257230
C34   C     C_R   0.127418 0.508373 0.495464 -0.089870
C35   C     C_R   0.057762 0.506346 0.373468 -0.007359
C36   C     C_R   0.914060 0.695360 0.789279 -0.177561
H1    H     H_    0.227687 0.627571 0.884315 0.132438
H2    H     H_    0.235181 0.783422 0.069504 0.120805
H3    H     H_    0.495134 0.697904 0.874860 0.150451
H4    H     H_    0.334974 0.302327 0.874663 0.210521
H5    H     H_    0.471983 0.196093 0.877624 0.204101
H6    H     H_    0.336077 0.300933 0.118742 0.218036
H7    H     H_    0.474361 0.195858 0.118677 0.208085
H8    H     H_    0.159482 0.727114 0.295842 0.120557
H9    H     H_    0.064729 0.355789 0.149796 0.126699
H10   H     H_    0.141356 0.413457 0.924314 0.124685
H11   H     H_    0.878694 0.483174 0.286627 0.181541
H12   H     H_    0.771309 0.470972 0.053303 0.141079
H13   H     H_    0.122310 0.524379 0.712815 0.162288
H14   H     H_    0.959909 0.757607 0.719271 0.187238
H15   H     H_    0.896325 0.839624 0.939319 0.166140
H16   H     H_    0.830606 0.388429 0.829656 0.134249
H17   H     H_    0.372635 0.113324 0.319957 0.150899
H18   H     H_    0.374864 0.882862 0.318685 0.143034
H19   H     H_    0.681181 0.889269 0.765039 0.134418
H20   H     H_    0.666084 0.113470 0.777645 0.172078
H21   H     H_    0.731142 0.128107 0.604274 0.225722
H22   H     H_    0.493216 0.697755 0.125391 0.170708
N1    N     N_R   0.499160 0.499140 0.142800 -0.104514
N2    N     N_R   0.499160 0.499180 0.857150 -0.108325
O1    O     O_R   0.500020 0.316790 0.614690 -0.620736
O2    O     O_R   0.500000 0.316760 0.385350 -0.624707
O3    O     O_R   0.316770 0.500030 0.614670 -0.632457
O4    O     O_R   0.316750 0.499990 0.385330 -0.622073
O5    O     O_R   0.500000 0.683240 0.614650 -0.639699
O6    O     O_R   0.499980 0.683210 0.385310 -0.602726
O7    O     O_R   0.683250 0.500010 0.614670 -0.617385
O8    O     O_R   0.683230 0.499970 0.385330 -0.594714
Zn1   Zn    Zn3+2 0.500010 0.500020 0.653130 0.946245
Zn2   Zn    Zn3+2 0.499990 0.499980 0.346870 0.975973

loop_
_geom_bond_atom_site_label_1
_geom_bond_atom_site_label_2
_ccdc_geom_bond_type
C13   C16   S    
O8    Zn2   S    
C9    C10   A    
C27   C28   A    
C1    O1    A    
C2    H15   S    
C20   N2    A    
C22   H4    S    
C8    C17   S    
C19   N1    A    
C29   C30   A    
C25   O7    A    
C18   C21   A    
O6    Zn2   S    
C27   H8    S    
C21   C22   S    
C11   H18   S    
C17   H21   S    
C11   C13   A    
C31   C32   A    
C16   O5    A    
C24   H6    S    
C5    C6    A    
C29   H9    S    
C1    O2    A    
C25   C31   S    
Br2   C15   S    
C30   H10   S    
C22   C24   S    
C26   C27   A    
O1    Zn1   S    
C25   O8    A    
C18   C24   S    
Br1   C3    S    
C2    C3    A    
N1    Zn2   S    
C7    C32   S    
C34   C35   A    
C15   C17   S    
C4    C34   S    
N2    Zn1   S    
O5    Zn1   S    
O2    Zn2   S    
C17   H20   S    
C33   H13   S    
C28   C29   A    
C23   H11   S    
C10   H17   S    
C1    C9    S    
C8    C9    A    
C26   H2    S    
C16   O6    A    
C6    H16   S    
C13   C14   A    
C20   H3    S    
C14   C15   S    
C4    O4    A    
C36   H14   S    
C10   C11   A    
C28   C35   S    
C19   H22   S    
C3    C5    A    
C32   C33   A    
C23   C31   A    
C18   N1    A    
O7    Zn1   S    
C22   H5    S    
C7    C36   A    
C2    C36   A    
C8    C14   A    
C21   N2    A    
C24   H7    S    
C12   C26   A    
C12   H1    S    
C19   C20   A    
C12   C30   A    
C4    O3    A    
O4    Zn2   S    
O3    Zn1   S    
C5    H12   S    
C15   H19   S    
C6    C7    A    
C33   C34   A    
C23   C35   A    
