data_mof_unit_51334.cif
_audit_creation_date              2012-12-11T17:34:20-0500
_audit_creation_method            fapswitch 2.2
_symmetry_space_group_name_H-M    P1
_symmetry_Int_Tables_number       1
_space_group_crystal_system       triclinic
_cell_length_a                    23.826992
_cell_length_b                    7.220464
_cell_length_c                    20.630091
_cell_angle_alpha                 89.998808
_cell_angle_beta                  105.270236
_cell_angle_gamma                 89.999726
_cell_volume                      3423.93263368

loop_
_atom_site_label
_atom_site_type_symbol
_atom_type_description
_atom_site_fract_x
_atom_site_fract_y
_atom_site_fract_z
_atom_type_partial_charge
O1    O     O_R   0.449110 0.494310 0.552140 -0.537332
O2    O     O_R   0.550890 0.994310 0.447860 -0.537331
O3    O     O_R   0.440010 0.824420 0.415850 -0.535172
O4    O     O_R   0.559990 0.324420 0.584150 -0.535170
C1    C     C_R   0.425277 0.655535 0.391186 0.687892
C2    C     C_R   0.574722 0.155530 0.608814 0.687886
O5    O     O_R   0.442260 0.824040 0.549660 -0.540461
O6    O     O_R   0.557740 0.324040 0.450340 -0.540463
O7    O     O_R   0.553160 0.993960 0.582620 -0.531892
O8    O     O_R   0.446840 0.493960 0.417380 -0.531887
C3    C     C_R   0.428526 0.655356 0.567493 0.677303
C4    C     C_R   0.571474 0.155357 0.432508 0.677301
O9    O     O_3   0.536380 0.660670 0.510660 -0.373102
O10   O     O_3   0.463620 0.160670 0.489340 -0.373097
V1    V     V_3+5 0.493250 0.935680 0.498020 1.400320
V2    V     V_3+5 0.506750 0.435680 0.501980 1.400317
C5    C     C_R   0.820256 0.911496 0.166733 -0.137124
C6    C     C_R   0.179745 0.411498 0.833270 -0.137120
H1    H     H_    0.799781 0.786490 0.178488 0.107474
H2    H     H_    0.200220 0.286490 0.821517 0.107479
C7    C     C_R   0.859531 0.899574 0.126693 -0.177489
C8    C     C_R   0.140470 0.399576 0.873309 -0.177483
H3    H     H_    0.868259 0.764924 0.108393 0.124010
H4    H     H_    0.131742 0.264926 0.891611 0.124015
C9    C     C_R   0.886900 0.059648 0.110437 -0.054391
C10   C     C_R   0.113101 0.559650 0.889563 -0.054404
C11   C     C_R   0.873887 0.231487 0.135712 -0.177131
C12   C     C_R   0.126113 0.731490 0.864286 -0.177086
H5    H     H_    0.893934 0.358049 0.124678 0.125953
H6    H     H_    0.106066 0.858053 0.875319 0.125961
C13   C     C_R   0.834636 0.242917 0.175593 -0.142194
C14   C     C_R   0.165365 0.742919 0.824406 -0.142150
H7    H     H_    0.825423 0.376799 0.194188 0.108045
H8    H     H_    0.174578 0.876802 0.805810 0.108053
C15   C     C_R   0.807627 0.083224 0.191403 0.130619
C16   C     C_R   0.192374 0.583226 0.808598 0.130604
C17   C     C_1   0.767320 0.096186 0.233129 -0.061829
C18   C     C_1   0.232682 0.596186 0.766873 -0.061814
C19   C     C_1   0.733749 0.107904 0.268116 -0.059700
C20   C     C_1   0.266252 0.607903 0.731886 -0.059687
C21   C     C_R   0.670833 0.959854 0.331169 -0.138656
C22   C     C_R   0.329170 0.459851 0.668836 -0.138653
H9    H     H_    0.683296 0.824917 0.316632 0.105897
H10   H     H_    0.316708 0.324914 0.683375 0.105901
C23   C     C_R   0.631630 0.971245 0.371130 -0.167082
C24   C     C_R   0.368373 0.471243 0.628875 -0.167085
H11   H     H_    0.614894 0.843577 0.386296 0.124930
H12   H     H_    0.385110 0.343575 0.613711 0.124933
C25   C     C_R   0.614191 0.144493 0.390882 -0.050413
C26   C     C_R   0.385810 0.644490 0.609119 -0.050418
C27   C     C_R   0.637552 0.305872 0.369593 -0.165901
C28   C     C_R   0.362447 0.805870 0.630406 -0.165885
H13   H     H_    0.625351 0.441650 0.383535 0.121394
H14   H     H_    0.374648 0.941648 0.616461 0.121397
C29   C     C_R   0.676814 0.293974 0.329526 -0.135256
C30   C     C_R   0.323186 0.793971 0.670473 -0.135239
H15   H     H_    0.693978 0.420034 0.313632 0.105777
H16   H     H_    0.306021 0.920032 0.686365 0.105780
C31   C     C_R   0.693550 0.120910 0.309983 0.132026
C32   C     C_R   0.306452 0.620907 0.690020 0.132024
C33   C     C_R   0.641157 0.153797 0.794889 -0.154923
C34   C     C_R   0.358841 0.653764 0.205111 -0.154914
H17   H     H_    0.554945 0.158026 0.729865 0.117857
H18   H     H_    0.445053 0.657958 0.270133 0.117857
H19   H     H_    0.624285 0.162990 0.838618 0.146734
H20   H     H_    0.375712 0.662920 0.161381 0.146746
C35   C     C_R   0.619354 0.146609 0.673925 -0.072620
C36   C     C_R   0.380644 0.646624 0.326076 -0.072623
C37   C     C_R   0.901921 0.997302 0.769312 -0.168046
C38   C     C_R   0.098072 0.497336 0.230692 -0.167958
C39   C     C_R   0.863161 0.973293 0.706153 0.327701
C40   C     C_R   0.136822 0.473487 0.293873 0.327784
C41   C     C_R   0.803739 0.006113 0.697839 -0.176688
C42   C     C_R   0.196245 0.506306 0.302181 -0.176715
C43   C     C_R   0.782110 0.076406 0.750604 0.052010
C44   C     C_R   0.217882 0.576495 0.249405 0.052014
C45   C     C_R   0.822071 0.091082 0.815605 -0.004307
C46   C     C_R   0.177924 0.591106 0.184398 -0.004316
C47   C     C_R   0.721441 0.117487 0.742098 0.052486
C48   C     C_R   0.278553 0.617547 0.257907 0.052499
C49   C     C_R   0.701402 0.142539 0.800928 0.019214
C50   C     C_R   0.298594 0.642542 0.199074 0.019217
C51   C     C_R   0.741323 0.155219 0.865162 0.283306
C52   C     C_R   0.258676 0.655198 0.134839 0.283295
C53   C     C_R   0.801049 0.134860 0.871089 -0.209699
C54   C     C_R   0.198949 0.634840 0.128910 -0.209683
C55   C     C_R   0.679608 0.137253 0.677893 0.148897
C56   C     C_R   0.320389 0.637329 0.322111 0.148903
C57   C     C_R   0.600930 0.150767 0.732501 -0.208364
C58   C     C_R   0.399067 0.650735 0.267499 -0.208363
C59   C     C_R   0.882312 0.052854 0.824391 -0.120996
C60   C     C_R   0.117686 0.552851 0.175611 -0.120987
H21   H     H_    0.947462 0.963332 0.776460 0.115604
H22   H     H_    0.052535 0.463303 0.223522 0.115451
H23   H     H_    0.775140 0.965029 0.650500 0.153826
H24   H     H_    0.224843 0.465285 0.349530 0.153816
H25   H     H_    0.831552 0.149540 0.919854 0.121033
H26   H     H_    0.168449 0.649483 0.080142 0.121022
O11   O     O_R   0.053190 0.709680 0.082610 -0.531510
O12   O     O_R   0.946810 0.209680 0.917390 -0.531516
O13   O     O_R   0.057740 0.380240 0.950340 -0.539789
O14   O     O_R   0.942260 0.880240 0.049660 -0.539790
C61   C     C_R   0.071148 0.548921 0.932119 0.674546
C62   C     C_R   0.928852 0.048919 0.067881 0.674537
O15   O     O_R   0.060000 0.379940 0.084150 -0.532673
O16   O     O_R   0.940000 0.879940 0.915850 -0.532666
O17   O     O_R   0.949110 0.210100 0.052140 -0.538878
O18   O     O_R   0.050890 0.710100 0.947860 -0.538877
C63   C     C_R   0.074648 0.548229 0.109016 0.692492
C64   C     C_R   0.925353 0.048233 0.890984 0.692498
O19   O     O_3   0.963630 0.543720 0.989330 -0.372755
O20   O     O_3   0.036370 0.043720 0.010670 -0.372753
V3    V     V_3+5 0.006750 0.268680 0.001980 1.407700
V4    V     V_3+5 0.993250 0.768680 0.998020 1.407710
N1    N     N_2   0.720472 0.196251 0.922735 -0.529760
H27   H     H_    0.696357 0.316323 0.918835 0.253438
C65   C     C_3   0.756595 0.158553 0.989639 -0.521783
H28   H     H_    0.729871 0.168455 0.026202 0.205280
H29   H     H_    0.792111 0.262362 0.003693 0.189797
H30   H     H_    0.774791 0.016217 0.992413 0.205174
N2    N     N_2   0.279528 0.696206 0.077264 -0.529764
H31   H     H_    0.303636 0.816290 0.081155 0.253443
C66   C     C_3   0.243410 0.658471 0.010362 -0.521798
H32   H     H_    0.270135 0.668375 0.973799 0.205276
H33   H     H_    0.207888 0.762260 0.996299 0.189799
H34   H     H_    0.225223 0.516125 0.007598 0.205179
N3    N     N_3   0.697881 0.167807 0.617814 -0.694072
H35   H     H_    0.678610 0.067383 0.582387 0.211411
H36   H     H_    0.683011 0.297916 0.598431 0.234196
N4    N     N_3   0.302120 0.667958 0.382189 -0.694057
H37   H     H_    0.321385 0.567543 0.417626 0.211396
H38   H     H_    0.316999 0.798072 0.401557 0.234232
N5    N     N_2   0.883377 0.903429 0.651723 -0.517882
H39   H     H_    0.851163 0.854362 0.611620 0.253161
C67   C     C_3   0.924701 0.020486 0.630776 -0.531915
H40   H     H_    0.938140 0.952864 0.588892 0.196482
H41   H     H_    0.964311 0.042400 0.672624 0.198670
H42   H     H_    0.904512 0.156398 0.613064 0.199029
N6    N     N_2   0.116616 0.403783 0.348341 -0.517811
H43   H     H_    0.148857 0.355633 0.388596 0.253177
C68   C     C_3   0.074960 0.520215 0.368954 -0.531862
H44   H     H_    0.061756 0.453054 0.411077 0.196386
H45   H     H_    0.035260 0.540316 0.327071 0.198578
H46   H     H_    0.094737 0.656970 0.386213 0.199067

loop_
_geom_bond_atom_site_label_1
_geom_bond_atom_site_label_2
_ccdc_geom_bond_type
C67   H42   S    
O12   C64   A    
C20   C32   S    
C29   C31   A    
N1    C65   S    
C11   H5    S    
O13   V3    S    
O1    C3    A    
H18   C58   S    
O2    C4    A    
C2    O7    A    
C47   C55   A    
C4    C25   S    
C66   H32   S    
O5    C3    A    
C42   C44   A    
O16   V4    S    
C14   C16   A    
C59   C64   S    
O15   V3    S    
C38   H22   S    
C44   C46   A    
C37   H21   S    
C65   H29   S    
C60   C63   S    
C66   H33   S    
N1    H27   S    
O11   C63   A    
C35   C57   A    
C22   C24   A    
O18   V4    S    
C37   C39   A    
O17   V3    S    
C7    C9    A    
C40   N6    S    
C33   C57   A    
C12   H6    S    
C25   C27   A    
C36   C58   A    
C13   H7    S    
C61   O18   A    
C56   N4    S    
C27   C29   A    
C46   C54   A    
C67   H40   S    
C34   C50   A    
C45   C53   A    
O6    V2    S    
C21   H9    S    
C22   H10   S    
O11   V4    S    
C1    C36   S    
C55   N3    S    
O20   V3    S    
C49   C51   A    
C28   H14   S    
C23   H11   S    
C24   H12   S    
C34   H20   S    
C11   C13   A    
C51   N1    S    
C12   C14   A    
C21   C31   A    
C40   C42   A    
C65   H30   S    
C22   C32   A    
C39   C41   A    
C66   H34   S    
C46   C60   A    
C52   N2    S    
C5    C7    A    
C30   C32   A    
C27   H13   S    
C14   H8    S    
O4    V2    S    
N4    H38   S    
N3    H36   S    
C29   H15   S    
O14   V4    S    
C42   H24   S    
C10   C61   S    
C26   C28   A    
C23   C25   A    
O6    C4    A    
C19   C31   S    
H17   C57   S    
O1    V2    S    
O14   C62   A    
O2    V1    S    
C43   C45   A    
N2    H31   S    
C48   C50   A    
C2    C35   S    
C51   C53   A    
C37   C59   A    
C50   C52   A    
C7    H3    S    
N5    H39   S    
C36   C56   A    
C8    H4    S    
C68   H46   S    
O4    C2    A    
C41   C43   A    
N3    H35   S    
O3    V1    S    
C47   C49   A    
O16   C64   A    
C67   H41   S    
O15   C63   A    
C45   C59   A    
C21   C23   A    
C15   C17   S    
C6    C8    A    
C10   C12   A    
C38   C60   A    
O12   V3    S    
C44   C48   A    
C52   C54   A    
O3    C1    A    
C39   N5    S    
C38   C40   A    
N6    H43   S    
C9    C62   S    
C9    C11   A    
C24   C26   A    
C35   C55   A    
O13   C61   A    
C68   H45   S    
N4    H37   S    
O7    V1    S    
C1    O8    A    
C48   C56   A    
C3    C26   S    
C33   C49   A    
C68   H44   S    
C16   C18   S    
C18   C20   T    
N6    C68   S    
C6    C16   A    
C34   C58   A    
C13   C15   A    
O5    V1    S    
C5    H1    S    
C30   H16   S    
O19   V4    S    
C6    H2    S    
C54   H26   S    
N2    C66   S    
C53   H25   S    
C33   H19   S    
C17   C19   T    
C8    C10   A    
O9    V2    S    
N5    C67   S    
C41   H23   S    
O10   V1    S    
O8    V2    S    
C5    C15   A    
C65   H28   S    
C43   C47   A    
C62   O17   A    
C28   C30   A    
