data_mof_unit_31495.cif
_audit_creation_date              2012-12-10T17:13:36-0500
_audit_creation_method            fapswitch 2.2
_symmetry_space_group_name_H-M    P1
_symmetry_Int_Tables_number       1
_space_group_crystal_system       triclinic
_cell_length_a                    10.848914
_cell_length_b                    13.107242
_cell_length_c                    11.804634
_cell_angle_alpha                 99.981284
_cell_angle_beta                  92.987178
_cell_angle_gamma                 93.528174
_cell_volume                      1646.70253131

loop_
_atom_site_label
_atom_site_type_symbol
_atom_type_description
_atom_site_fract_x
_atom_site_fract_y
_atom_site_fract_z
_atom_type_partial_charge
C1    C     C_R   0.501285 0.299641 0.478123 0.883269
C2    C     C_3   0.877592 0.497082 0.494945 -0.088269
C3    C     C_3   0.932704 0.610663 0.488596 0.528440
C4    C     C_3   0.915090 0.412714 0.389885 0.582080
C5    C     C_R   0.506326 0.814492 0.531459 -0.224813
C6    C     C_R   0.497495 0.186050 0.464337 -0.274331
C7    C     C_R   0.396521 0.019205 0.373559 0.102849
C8    C     C_R   0.423337 0.124474 0.373072 0.351889
C9    C     C_R   0.560617 0.139364 0.547005 0.407701
C10   C     C_R   0.541121 0.031031 0.542179 -0.109892
C11   C     C_R   0.461158 0.970190 0.453384 0.014850
C12   C     C_R   0.259839 0.496322 0.500603 0.804012
C13   C     C_R   0.452931 0.861152 0.442689 0.084045
C14   C     C_R   0.569450 0.877889 0.627846 0.447824
C15   C     C_R   0.597283 0.982619 0.626361 -0.248962
C16   C     C_R   0.356641 0.431275 0.027036 -0.278664
C17   C     C_R   0.372566 0.432119 0.146353 0.340274
C18   C     C_R   0.565633 0.529180 0.152335 0.318848
C19   C     C_R   0.557038 0.519192 0.029294 -0.163296
C20   C     C_R   0.449849 0.471881 0.966693 -0.178051
C21   C     C_R   0.439082 0.464984 0.844368 0.579586
C22   C     C_R   0.627015 0.570560 0.850898 0.485545
C23   C     C_R   0.501502 0.700667 0.521144 0.824856
C24   C     C_R   0.652221 0.558375 0.967574 0.256965
C25   C     C_R   0.739498 0.497451 0.498380 0.923827
C26   C     C_3   0.070716 0.460107 0.614830 0.322355
C27   C     C_3   0.928383 0.463909 0.609078 -0.529906
C28   C     C_3   0.080415 0.608303 0.487107 0.143879
C29   C     C_3   0.060700 0.413361 0.394962 -0.118587
C30   C     C_3   0.120731 0.495004 0.501619 -0.022543
Cu1   Cu    Cu3+1 0.509350 0.507730 0.615930 1.034749
Cu2   Cu    Cu3+1 0.490650 0.492270 0.384070 0.945214
H1    H     H_    0.658718 0.025455 0.695526 0.184251
H2    H     H_    0.270175 0.398312 0.981793 0.166807
H3    H     H_    0.883199 0.386507 0.614985 0.249443
H4    H     H_    0.898824 0.513237 0.687552 0.188316
H5    H     H_    0.094007 0.438112 0.316534 0.157625
N1    N     N_R   0.523430 0.519360 0.790130 -0.279706
N2    N     N_R   0.476570 0.480640 0.209880 -0.221080
O1    O     O_R   0.506640 0.354460 0.582000 -0.573641
O2    O     O_R   0.490840 0.341410 0.386200 -0.581964
O3    O     O_R   0.325590 0.506510 0.597900 -0.527048
O4    O     O_R   0.309790 0.493450 0.402100 -0.559295
O5    O     O_R   0.509160 0.658590 0.613800 -0.502047
O6    O     O_R   0.493360 0.645540 0.418000 -0.637057
O7    O     O_R   0.690210 0.506550 0.597900 -0.538970
O8    O     O_R   0.674410 0.493490 0.402100 -0.595538
N3    N     N_3   0.127186 0.526310 0.721425 -0.515817
H6    H     H_    0.105825 0.492629 0.792767 0.211425
H7    H     H_    0.090249 0.598403 0.736677 0.215669
N4    N     N_3   0.871325 0.439568 0.277775 -0.546559
H8    H     H_    0.922608 0.405718 0.210422 0.156219
H9    H     H_    0.779953 0.412194 0.253332 0.252795
N5    N     N_3   0.124882 0.632327 0.377293 -0.584503
H10   H     H_    0.125576 0.711741 0.376223 0.221622
H11   H     H_    0.069385 0.595569 0.305178 0.263732
O9    O     O_3   0.880534 0.635272 0.383246 -0.555373
C31   C     C_3   0.873125 0.742278 0.380328 -0.303144
H12   H     H_    0.957441 0.790751 0.418265 0.136296
H13   H     H_    0.790129 0.770966 0.423514 0.171907
H14   H     H_    0.861897 0.752085 0.289028 0.196592
N6    N     N_3   0.395562 0.799448 0.338632 -0.551369
H15   H     H_    0.329751 0.745180 0.358540 0.255466
H16   H     H_    0.463103 0.763363 0.289255 0.230460
O10   O     O_3   0.609476 0.837132 0.722332 -0.558972
C32   C     C_3   0.524855 0.860791 0.808478 -0.305821
H17   H     H_    0.428225 0.832552 0.776233 0.162727
H18   H     H_    0.530136 0.945636 0.842925 0.133019
H19   H     H_    0.548630 0.820837 0.881121 0.172855
N7    N     N_3   0.296606 0.964535 0.297873 -0.544209
H20   H     H_    0.216456 0.003964 0.312757 0.232730
H21   H     H_    0.317472 0.963294 0.212326 0.234359
O11   O     O_3   0.367367 0.167678 0.286831 -0.592454
C33   C     C_3   0.441073 0.154428 0.190554 -0.371086
H22   H     H_    0.472502 0.074536 0.168221 0.146225
H23   H     H_    0.385401 0.169484 0.114433 0.171772
H24   H     H_    0.522832 0.211267 0.205173 0.183419
O12   O     O_3   0.657761 0.196387 0.616098 -0.545681
C34   C     C_3   0.628043 0.220266 0.732511 -0.328194
H25   H     H_    0.547366 0.172570 0.754779 0.122370
H26   H     H_    0.611862 0.303770 0.754894 0.198421
H27   H     H_    0.709152 0.207317 0.788119 0.159160
O13   O     O_3   0.340353 0.408242 0.779097 -0.542840
C35   C     C_3   0.341924 0.300932 0.783941 -0.406385
H28   H     H_    0.248775 0.271978 0.803955 0.165415
H29   H     H_    0.409593 0.280921 0.849387 0.137777
H30   H     H_    0.360754 0.257557 0.698129 0.193175
N8    N     N_3   0.097445 0.351724 0.618178 -0.516178
H31   H     H_    0.191831 0.343002 0.613728 0.260467
H32   H     H_    0.070124 0.330029 0.694853 0.209521
O14   O     O_3   0.709638 0.623919 0.791415 -0.528494
C36   C     C_3   0.778617 0.709330 0.860892 -0.201053
H33   H     H_    0.800566 0.768596 0.807173 0.203126
H34   H     H_    0.868910 0.685039 0.891321 0.169409
H35   H     H_    0.728125 0.747595 0.934437 0.140695
O15   O     O_3   0.770635 0.580101 0.019003 -0.558345
C37   C     C_3   0.838141 0.491905 0.988585 -0.300109
H36   H     H_    0.932277 0.508076 0.031890 0.186139
H37   H     H_    0.848637 0.474623 0.894016 0.147041
H38   H     H_    0.794361 0.422813 0.018059 0.148950
N9    N     N_3   0.275346 0.385497 0.201314 -0.569456
H39   H     H_    0.203569 0.350785 0.141925 0.157178
H40   H     H_    0.311555 0.326271 0.237146 0.282768
N10   N     N_3   0.662709 0.599430 0.214319 -0.465117
H41   H     H_    0.645214 0.620049 0.299450 0.279641
H42   H     H_    0.657961 0.670185 0.185271 0.185835
N11   N     N_3   0.141623 0.687253 0.581162 -0.623448
H43   H     H_    0.237601 0.688474 0.576866 0.230329
H44   H     H_    0.119983 0.761449 0.569365 0.201096
N12   N     N_3   0.891991 0.682628 0.589754 -0.567348
H45   H     H_    0.933259 0.669281 0.666605 0.204813
H46   H     H_    0.918314 0.760430 0.589920 0.202384
N13   N     N_3   0.101984 0.307742 0.391657 -0.501069
H47   H     H_    0.086758 0.266438 0.307628 0.219471
H48   H     H_    0.197700 0.310117 0.407639 0.222056
O16   O     O_3   0.861464 0.314133 0.407967 -0.546610
C38   C     C_3   0.829187 0.238787 0.307929 -0.286402
H49   H     H_    0.892555 0.241306 0.237692 0.122936
H50   H     H_    0.732861 0.246558 0.276272 0.144249
H51   H     H_    0.831783 0.160733 0.331853 0.196488

loop_
_geom_bond_atom_site_label_1
_geom_bond_atom_site_label_2
_ccdc_geom_bond_type
C32   H18   S    
N9    H39   S    
C23   O6    A    
Cu1   O3    S    
Cu2   O6    S    
C19   C20   A    
C35   H30   S    
C7    N7    S    
N10   H42   S    
C37   H36   S    
C7    C8    A    
Cu1   O1    S    
C7    C11   A    
C26   C27   S    
C29   C30   S    
C33   H23   S    
C16   C20   A    
C35   H29   S    
C12   O4    A    
C10   C15   A    
C38   H50   S    
C17   N2    A    
C32   H19   S    
C28   N11   S    
C31   H13   S    
C22   N1    A    
O16   C38   S    
C18   C19   A    
O11   C33   S    
Cu2   N2    S    
C17   N9    S    
N12   H45   S    
C8    O11   S    
N6    H16   S    
C1    O1    A    
C16   H2    S    
C14   O10   S    
C21   N1    A    
C21   O13   S    
C16   C17   A    
C33   H24   S    
C12   O3    A    
C22   O14   S    
N7    H20   S    
C9    C10   A    
C25   O8    A    
C5    C13   A    
C4    C29   S    
C26   N3    S    
C31   H14   S    
N3    H7    S    
C32   H17   S    
N9    H40   S    
N11   H44   S    
C6    C9    A    
N10   H41   S    
C37   H37   S    
N5    H11   S    
Cu1   O5    S    
C13   N6    S    
C4    N4    S    
N4    H8    S    
C35   H28   S    
C33   H22   S    
C38   H51   S    
O14   C36   S    
C34   H26   S    
C28   N5    S    
O12   C34   S    
C6    C8    A    
C27   H3    S    
C31   H12   S    
Cu1   O7    S    
C36   H35   S    
C23   O5    A    
C1    C6    S    
N4    H9    S    
C2    C4    S    
C18   N2    A    
N6    H15   S    
O13   C35   S    
C5    C23   S    
Cu2   O2    S    
O15   C37   S    
C36   H34   S    
C18   N10   S    
N8    H31   S    
C5    C14   A    
C2    C27   S    
C3    O9    S    
C1    O2    A    
N3    H6    S    
N8    H32   S    
C26   C30   S    
Cu2   O8    S    
C22   C24   A    
N11   H43   S    
C37   H38   S    
N13   H47   S    
C29   N13   S    
N5    H10   S    
C3    C28   S    
C12   C30   S    
C4    O16   S    
Cu1   Cu2   S    
C34   H27   S    
C27   H4    S    
Cu1   N1    S    
C24   O15   S    
C2    C3    S    
C38   H49   S    
C11   C13   A    
O9    C31   S    
C28   C30   S    
C36   H33   S    
Cu2   O4    S    
C19   C24   A    
C2    C25   S    
C9    O12   S    
N12   H46   S    
C10   C11   A    
C34   H25   S    
C20   C21   A    
C26   N8    S    
O10   C32   S    
C29   H5    S    
C14   C15   A    
N7    H21   S    
C3    N12   S    
C25   O7    A    
C15   H1    S    
N13   H48   S    
