data_mof_unit_52142.cif
_audit_creation_date              2012-12-10T17:19:54-0500
_audit_creation_method            fapswitch 2.2
_symmetry_space_group_name_H-M    P1
_symmetry_Int_Tables_number       1
_space_group_crystal_system       triclinic
_cell_length_a                    9.651504
_cell_length_b                    10.752916
_cell_length_c                    15.422671
_cell_angle_alpha                 86.804668
_cell_angle_beta                  74.455599
_cell_angle_gamma                 89.527793
_cell_volume                      1539.61325684

loop_
_atom_site_label
_atom_site_type_symbol
_atom_type_description
_atom_site_fract_x
_atom_site_fract_y
_atom_site_fract_z
_atom_type_partial_charge
C1    C     C_R   0.000814 0.262934 0.499346 0.783020
C2    C     C_R   0.673616 0.517061 0.908457 0.088987
C3    C     C_R   0.773136 0.490218 0.959800 0.167731
C4    C     C_R   0.525985 0.537146 0.953244 0.066959
C5    C     C_R   0.478213 0.518026 0.048787 0.062592
C6    C     C_R   0.581749 0.492841 0.097280 -0.222031
C7    C     C_R   0.726198 0.479950 0.053418 -0.239210
C8    C     C_R   0.425314 0.578551 0.906086 -0.223020
C9    C     C_R   0.281887 0.596810 0.950653 -0.242308
C10   C     C_R   0.232237 0.571546 0.043287 0.166939
C11   C     C_R   0.328925 0.528592 0.092970 0.089278
C12   C     C_R   0.918082 0.500535 0.672162 0.788123
C13   C     C_R   0.086534 0.589696 0.087036 -0.222384
C14   C     C_R   0.034664 0.563484 0.179547 -0.206851
C15   C     C_R   0.272386 0.497309 0.185372 -0.262725
C16   C     C_R   0.142289 0.142036 0.334626 -0.169966
C17   C     C_R   0.204520 0.082910 0.255356 -0.134445
C18   C     C_R   0.196904 0.953793 0.253904 -0.140244
C19   C     C_R   0.128709 0.882994 0.332009 -0.202363
C20   C     C_R   0.068128 0.940785 0.413506 0.094854
C21   C     C_R   0.072501 0.072029 0.414442 0.100484
C22   C     C_R   0.003726 0.129385 0.494877 -0.089607
C23   C     C_R   0.999931 0.737175 0.498551 0.773919
C24   C     C_R   0.932069 0.058801 0.572302 -0.214143
C25   C     C_R   0.931103 0.930313 0.571999 -0.183848
C26   C     C_R   0.000075 0.871364 0.493890 -0.083174
C27   C     C_R   0.694501 0.665272 0.379840 -0.136573
C28   C     C_R   0.648048 0.746358 0.320424 -0.215075
C29   C     C_R   0.505105 0.747476 0.320580 -0.196539
C30   C     C_R   0.407849 0.667309 0.379997 -0.123427
C31   C     C_R   0.450152 0.582272 0.441314 0.168735
C32   C     C_R   0.599251 0.581952 0.441391 0.191777
C33   C     C_R   0.553980 0.419616 0.553513 -0.052366
C34   C     C_R   0.081585 0.502962 0.327922 0.751459
C35   C     C_R   0.405655 0.419958 0.556052 0.228470
C36   C     C_R   0.871124 0.501576 0.771183 -0.049029
C37   C     C_R   0.127821 0.517757 0.229182 -0.046304
C38   C     C_R   0.919261 0.473610 0.916878 -0.215816
C39   C     C_R   0.968140 0.481793 0.823310 -0.206891
C40   C     C_R   0.725097 0.519249 0.813930 -0.253022
Cu1   Cu    Cu3+1 0.140660 0.499990 0.500010 0.921003
Cu2   Cu    Cu3+1 0.859340 0.500010 0.499990 0.927860
H1    H     H_    0.801626 0.460621 0.093302 0.152266
H2    H     H_    0.013116 0.626284 0.049867 0.141379
H3    H     H_    0.878296 0.103536 0.633494 0.136823
H4    H     H_    0.148461 0.242496 0.332608 0.134819
H5    H     H_    0.257392 0.137631 0.194591 0.139563
H6    H     H_    0.243389 0.908308 0.191954 0.140057
H7    H     H_    0.121729 0.783349 0.327643 0.107733
H8    H     H_    0.877475 0.876396 0.633135 0.141567
H9    H     H_    0.594822 0.353460 0.595835 0.155346
H10   H     H_    0.806356 0.670868 0.374267 0.193975
H11   H     H_    0.723841 0.808689 0.273857 0.155395
H12   H     H_    0.338544 0.455652 0.225120 0.153722
H13   H     H_    0.469040 0.810855 0.274191 0.159361
H14   H     H_    0.301137 0.675668 0.374675 0.195831
H15   H     H_    0.922867 0.581447 0.212333 0.152939
H16   H     H_    0.209014 0.630335 0.912034 0.148549
H17   H     H_    0.995761 0.452820 0.955666 0.145446
H18   H     H_    0.080979 0.469862 0.791856 0.166657
H19   H     H_    0.652671 0.530985 0.771925 0.155684
H20   H     H_    0.555660 0.486507 0.169816 0.152200
H21   H     H_    0.454611 0.602365 0.834735 0.144038
N1    N     N_R   0.648320 0.501210 0.499140 -0.219620
N2    N     N_R   0.352470 0.501290 0.499110 -0.219186
O1    O     O_R   0.118810 0.319640 0.500010 -0.598777
O2    O     O_R   0.881240 0.319660 0.500000 -0.568220
O3    O     O_R   0.055570 0.499980 0.629840 -0.585556
O4    O     O_R   0.818000 0.500010 0.629830 -0.581998
O5    O     O_R   0.118760 0.680340 0.500000 -0.586090
O6    O     O_R   0.881190 0.680360 0.499990 -0.588768
O7    O     O_R   0.182000 0.499990 0.370170 -0.603478
O8    O     O_R   0.944430 0.500020 0.370160 -0.593427
C41   C     C_3   0.313631 0.324294 0.622212 -0.359852
C42   C     C_3   0.326588 0.335060 0.718485 -0.914409
H22   H     H_    0.323619 0.434131 0.735747 0.256454
H23   H     H_    0.236689 0.283516 0.767015 0.250806
H24   H     H_    0.428403 0.293356 0.726296 0.248415
H25   H     H_    0.199688 0.330539 0.625514 0.263022
H26   H     H_    0.348117 0.229602 0.600176 0.186503

loop_
_geom_bond_atom_site_label_1
_geom_bond_atom_site_label_2
_ccdc_geom_bond_type
C12   O4    A    
C35   C41   S    
C16   C21   A    
Cu2   N1    S    
C34   C37   S    
Cu1   Cu2   S    
C19   C20   A    
C4    C8    A    
C12   O3    A    
C24   H3    S    
C28   C29   A    
C5    C11   A    
C3    C7    A    
C38   C39   A    
C16   C17   A    
C35   N2    A    
C9    H16   S    
C23   C26   S    
C25   H8    S    
C15   C37   A    
C1    O2    A    
C11   C15   A    
C3    C38   A    
C8    C9    A    
C7    H1    S    
C12   C36   S    
C9    C10   A    
C1    C22   S    
C41   H26   S    
C21   C22   A    
C23   O5    A    
C17   C18   A    
Cu1   O3    S    
C41   C42   S    
C15   H12   S    
C23   O6    A    
C36   C40   A    
C24   C25   A    
C32   N1    A    
C8    H21   S    
C16   H4    S    
C18   C19   A    
Cu1   N2    S    
C29   H13   S    
C25   C26   A    
C30   H14   S    
Cu2   O4    S    
C40   H19   S    
C2    C4    A    
C42   H22   S    
C29   C30   A    
C19   H7    S    
C31   C32   A    
C30   C31   A    
C1    O1    A    
C42   H23   S    
C6    C7    A    
Cu1   O7    S    
C41   H25   S    
Cu2   O2    S    
C22   C24   A    
C34   O7    A    
C27   H10   S    
C31   N2    A    
C14   H15   S    
Cu2   O8    S    
C27   C32   A    
C36   C39   A    
C17   H5    S    
C4    C5    A    
C10   C13   A    
C18   H6    S    
C28   H11   S    
Cu1   O1    S    
C33   H9    S    
C6    H20   S    
C2    C3    A    
C14   C37   A    
C5    C6    A    
C20   C26   A    
C33   N1    A    
C39   H18   S    
Cu2   O6    S    
C33   C35   A    
C42   H24   S    
C10   C11   A    
C34   O8    A    
C38   H17   S    
C2    C40   A    
C20   C21   A    
C27   C28   A    
C13   C14   A    
C13   H2    S    
Cu1   O5    S    
