data_mof_unit_64835.cif
_audit_creation_date              2013-03-05T16:27:21-0500
_audit_creation_method            fapswitch 2.2
_symmetry_space_group_name_H-M    P1
_symmetry_Int_Tables_number       1
_space_group_crystal_system       triclinic
_cell_length_a                    32.245028
_cell_length_b                    32.245078
_cell_length_c                    30.190993
_cell_angle_alpha                 90.002254
_cell_angle_beta                  90.000054
_cell_angle_gamma                 90.196328
_cell_volume                      31390.7026982

loop_
_atom_site_label
_atom_site_type_symbol
_atom_site_description
_atom_site_fract_x
_atom_site_fract_y
_atom_site_fract_z
_atom_type_partial_charge
O1    O     O_R   0.440170 0.965330 0.000010 -0.558897
O2    O     O_R   0.965330 0.559830 0.000010 -0.570944
O3    O     O_R   0.559830 0.034670 0.000010 -0.559051
O4    O     O_R   0.034670 0.440170 0.000010 -0.570967
O5    O     O_R   0.440170 0.034670 0.999990 -0.570818
O6    O     O_R   0.965330 0.440170 0.999990 -0.559070
O7    O     O_R   0.559830 0.965330 0.999990 -0.570814
O8    O     O_R   0.034670 0.559830 0.999990 -0.558996
O9    O     O_R   0.940170 0.465330 0.500010 -0.558942
O10   O     O_R   0.465330 0.059830 0.500010 -0.570916
O11   O     O_R   0.059830 0.534670 0.500010 -0.559113
O12   O     O_R   0.534670 0.940170 0.500010 -0.571413
O13   O     O_R   0.940170 0.534670 0.499990 -0.570854
O14   O     O_R   0.465330 0.940170 0.499990 -0.559277
O15   O     O_R   0.059830 0.465330 0.499990 -0.571030
O16   O     O_R   0.534670 0.059830 0.499990 -0.558961
C1    C     C_R   0.420454 0.999920 0.000009 0.808345
C2    C     C_R   0.000080 0.579546 0.999993 0.808547
C3    C     C_R   0.579546 0.000080 0.000008 0.808517
C4    C     C_R   0.999920 0.420454 0.999994 0.808661
C5    C     C_R   0.920454 0.499920 0.500008 0.808408
C6    C     C_R   0.500080 0.079546 0.499993 0.808400
C7    C     C_R   0.079546 0.500080 0.500006 0.808769
C8    C     C_R   0.499920 0.920454 0.499999 0.809341
O17   O     O_R   0.500030 0.965330 0.064870 -0.569352
O18   O     O_R   0.965330 0.499970 0.064870 -0.569817
O19   O     O_R   0.499970 0.034670 0.064870 -0.569319
O20   O     O_R   0.034670 0.500030 0.064870 -0.569646
O21   O     O_R   0.500030 0.034670 0.935130 -0.569887
O22   O     O_R   0.965330 0.500030 0.935130 -0.569368
O23   O     O_R   0.499970 0.965330 0.935130 -0.569592
O24   O     O_R   0.034670 0.499970 0.935130 -0.569442
O25   O     O_R   0.000030 0.465330 0.564870 -0.569577
O26   O     O_R   0.465330 0.999970 0.564870 -0.570275
O27   O     O_R   0.999970 0.534670 0.564870 -0.569240
O28   O     O_R   0.534670 0.000030 0.564870 -0.569185
O29   O     O_R   0.000030 0.534670 0.435130 -0.569934
O30   O     O_R   0.465330 0.000030 0.435130 -0.568928
O31   O     O_R   0.999970 0.465330 0.435130 -0.569549
O32   O     O_R   0.534670 0.999970 0.435130 -0.569990
C9    C     C_R   0.499999 0.000001 0.085771 0.800371
C10   C     C_R   0.000000 0.500000 0.085772 0.795988
C11   C     C_R   0.500001 0.999999 0.914226 0.795799
C12   C     C_R   1.000000 0.500001 0.914227 0.800540
C13   C     C_R   1.000000 0.500001 0.585773 0.800532
C14   C     C_R   0.500000 0.999999 0.585771 0.796424
C15   C     C_R   0.000001 0.499999 0.414227 0.795964
C16   C     C_R   0.500000 0.000001 0.414225 0.800661
Cu1   Cu    Cu3+1 0.500000 0.958950 0.000000 1.087019
Cu2   Cu    Cu3+1 0.958950 0.500000 0.000000 1.086553
Cu3   Cu    Cu3+1 0.500000 0.041050 0.000000 1.086635
Cu4   Cu    Cu3+1 0.041050 0.500000 0.000000 1.086698
Cu5   Cu    Cu3+1 1.000000 0.458950 0.500000 1.086646
Cu6   Cu    Cu3+1 0.458950 0.000000 0.500000 1.086416
Cu7   Cu    Cu3+1 0.000000 0.541050 0.500000 1.086540
Cu8   Cu    Cu3+1 0.541050 0.000000 0.500000 1.086445
C17   C     C_R   0.472534 0.025476 0.343063 -0.112456
C18   C     C_R   0.025676 0.527451 0.343071 -0.117597
C19   C     C_R   0.527471 0.974536 0.343060 -0.112508
C20   C     C_R   0.974332 0.472540 0.343069 -0.118226
C21   C     C_R   0.472633 0.974232 0.656923 -0.116443
C22   C     C_R   0.025595 0.472650 0.656929 -0.112624
C23   C     C_R   0.527378 0.025753 0.656925 -0.118236
C24   C     C_R   0.974406 0.527354 0.656931 -0.112714
C25   C     C_R   0.972646 0.525594 0.843071 -0.112660
C26   C     C_R   0.525606 0.027517 0.843067 -0.117935
C27   C     C_R   0.027354 0.474409 0.843068 -0.112617
C28   C     C_R   0.474407 0.972471 0.843065 -0.118098
C29   C     C_R   0.972562 0.474309 0.156927 -0.117797
C30   C     C_R   0.525716 0.972768 0.156921 -0.112675
C31   C     C_R   0.027443 0.525685 0.156930 -0.117940
C32   C     C_R   0.474284 0.027243 0.156923 -0.112799
C33   C     C_R   0.500001 0.000004 0.365975 -0.096121
C34   C     C_R   0.000003 0.499997 0.365980 -0.098576
C35   C     C_R   0.500003 0.999996 0.634016 -0.098425
C36   C     C_R   0.000000 0.500002 0.634020 -0.096415
C37   C     C_R   1.000000 0.500001 0.865980 -0.096390
C38   C     C_R   0.500004 0.999996 0.865977 -0.098644
C39   C     C_R   0.000001 0.499998 0.134019 -0.098558
C40   C     C_R   0.499999 0.000003 0.134014 -0.096402
C41   C     C_R   0.527822 0.973973 0.296627 -0.021257
C42   C     C_R   0.973759 0.472195 0.296636 -0.022161
C43   C     C_R   0.472186 0.026044 0.296630 -0.021335
C44   C     C_R   0.026253 0.527793 0.296638 -0.022206
C45   C     C_R   0.527722 0.026328 0.703358 -0.022026
C46   C     C_R   0.973835 0.527699 0.703364 -0.021417
C47   C     C_R   0.472296 0.973652 0.703357 -0.022163
C48   C     C_R   0.026165 0.472306 0.703362 -0.021409
C49   C     C_R   0.027698 0.473840 0.796636 -0.021437
C50   C     C_R   0.473837 0.972121 0.796632 -0.022210
C51   C     C_R   0.972301 0.526165 0.796638 -0.021370
C52   C     C_R   0.526181 0.027860 0.796634 -0.022190
C53   C     C_R   0.027788 0.526258 0.203363 -0.022173
C54   C     C_R   0.473712 0.027585 0.203356 -0.021359
C55   C     C_R   0.972221 0.473732 0.203361 -0.022184
C56   C     C_R   0.526293 0.972430 0.203353 -0.021561
C57   C     C_R   0.500003 0.000008 0.273279 -0.009577
C58   C     C_R   0.000005 0.499994 0.273286 -0.009617
C59   C     C_R   0.500009 0.999990 0.726708 -0.009731
C60   C     C_R   0.000000 0.500002 0.726713 -0.009598
C61   C     C_R   0.000000 0.500002 0.773287 -0.009603
C62   C     C_R   0.500009 0.999990 0.773282 -0.009501
C63   C     C_R   0.000005 0.499995 0.226712 -0.009629
C64   C     C_R   0.500003 0.000008 0.226705 -0.009571
C65   C     C_R   0.554681 0.947251 0.273253 0.235722
C66   C     C_R   0.946825 0.445363 0.273263 0.231368
C67   C     C_R   0.445332 0.052771 0.273259 0.234627
C68   C     C_R   0.053189 0.554622 0.273267 0.231734
C69   C     C_R   0.554465 0.053350 0.726731 0.231418
C70   C     C_R   0.946984 0.554428 0.726737 0.234581
C71   C     C_R   0.445559 0.946625 0.726728 0.232558
C72   C     C_R   0.053015 0.445576 0.726733 0.235008
C73   C     C_R   0.054430 0.446990 0.773263 0.234928
C74   C     C_R   0.446979 0.945214 0.773258 0.231419
C75   C     C_R   0.945569 0.553014 0.773267 0.234703
C76   C     C_R   0.553045 0.054762 0.773262 0.231512
C77   C     C_R   0.054604 0.553207 0.226736 0.231516
C78   C     C_R   0.446739 0.054192 0.226729 0.234508
C79   C     C_R   0.945408 0.446779 0.226732 0.231624
C80   C     C_R   0.553271 0.945829 0.226723 0.234967
C81   C     C_R   0.227827 0.986664 0.962665 -0.193333
C82   C     C_R   0.990167 0.772143 0.961284 -0.195073
C83   C     C_R   0.772172 0.012638 0.962384 -0.193216
C84   C     C_R   0.009352 0.227852 0.961157 -0.195096
C85   C     C_R   0.227856 0.010689 0.038463 -0.195055
C86   C     C_R   0.987976 0.227831 0.037855 -0.193185
C87   C     C_R   0.772145 0.990022 0.038675 -0.195118
C88   C     C_R   0.012498 0.772173 0.037671 -0.193243
C89   C     C_R   0.727827 0.486809 0.462602 -0.193355
C90   C     C_R   0.489583 0.272142 0.461457 -0.195116
C91   C     C_R   0.272171 0.511563 0.461981 -0.193145
C92   C     C_R   0.505564 0.727846 0.460365 -0.194907
C93   C     C_R   0.727856 0.510539 0.538507 -0.195072
C94   C     C_R   0.491705 0.727834 0.539013 -0.192967
C95   C     C_R   0.272147 0.491117 0.538968 -0.195116
C96   C     C_R   0.513072 0.272174 0.537446 -0.193290
H1    H     H_    0.210659 0.977468 0.933386 0.199165
H2    H     H_    0.981482 0.789291 0.931855 0.198925
H3    H     H_    0.789339 0.021291 0.932917 0.199234
H4    H     H_    0.017669 0.210701 0.931606 0.198919
H5    H     H_    0.210707 0.020027 0.067661 0.198907
H6    H     H_    0.979802 0.210666 0.067477 0.199269
H7    H     H_    0.789294 0.981226 0.068065 0.198895
H8    H     H_    0.021040 0.789342 0.067175 0.199236
H9    H     H_    0.710659 0.477726 0.433283 0.199187
H10   H     H_    0.480451 0.289289 0.432185 0.198904
H11   H     H_    0.289336 0.519378 0.432248 0.199320
H12   H     H_    0.510981 0.710693 0.430050 0.199063
H13   H     H_    0.710707 0.519764 0.567746 0.198934
H14   H     H_    0.486433 0.710674 0.569375 0.199464
H15   H     H_    0.289297 0.483159 0.568631 0.198942
H16   H     H_    0.522062 0.289344 0.566796 0.199208
C97   C     C_R   0.206147 0.999253 0.000336 0.014203
C98   C     C_R   0.000752 0.793853 0.999689 0.014125
C99   C     C_R   0.793853 0.000750 0.000315 0.014157
C100  C     C_R   0.999246 0.206147 0.999708 0.014090
C101  C     C_R   0.706147 0.499251 0.500330 0.014169
C102  C     C_R   0.500750 0.293853 0.499673 0.014167
C103  C     C_R   0.293853 0.500756 0.500281 0.014029
C104  C     C_R   0.499230 0.706146 0.499819 0.013720
C105  C     C_R   0.271426 0.009547 0.039614 0.300005
C106  C     C_R   0.014034 0.728606 0.037821 0.298105
C107  C     C_R   0.728575 0.991182 0.039799 0.300161
C108  C     C_R   0.986443 0.271398 0.038027 0.298188
C109  C     C_R   0.271395 0.985123 0.962559 0.298012
C110  C     C_R   0.008176 0.271422 0.960056 0.300315
C111  C     C_R   0.728604 0.014175 0.962242 0.298102
C112  C     C_R   0.991331 0.728573 0.960167 0.300212
C113  C     C_R   0.771426 0.509393 0.539651 0.300061
C114  C     C_R   0.514611 0.228607 0.537567 0.297949
C115  C     C_R   0.228577 0.492304 0.540049 0.300374
C116  C     C_R   0.490200 0.771402 0.539364 0.298989
C117  C     C_R   0.771395 0.485269 0.462488 0.297969
C118  C     C_R   0.504298 0.771416 0.459412 0.301005
C119  C     C_R   0.228603 0.513094 0.461785 0.298267
C120  C     C_R   0.490732 0.228572 0.460318 0.300161
C121  C     C_R   0.293499 0.997031 0.001214 -0.110478
C122  C     C_R   0.002989 0.706501 0.998876 -0.110476
C123  C     C_R   0.706501 0.002985 0.001141 -0.110475
C124  C     C_R   0.997001 0.293498 0.998928 -0.110475
C125  C     C_R   0.793499 0.497026 0.501196 -0.110487
C126  C     C_R   0.502976 0.206501 0.498818 -0.110487
C127  C     C_R   0.206502 0.503008 0.501026 -0.110486
C128  C     C_R   0.496934 0.793497 0.499316 -0.110502
C129  C     C_1   0.161380 0.999742 0.000120 0.032142
C130  C     C_1   0.000261 0.838620 0.999888 0.032172
C131  C     C_1   0.838620 0.000259 0.000111 0.032168
C132  C     C_1   0.999739 0.161380 0.999900 0.032185
C133  C     C_1   0.661380 0.499740 0.500116 0.032141
C134  C     C_1   0.500260 0.338620 0.499883 0.032145
C135  C     C_1   0.338620 0.500261 0.500098 0.032206
C136  C     C_1   0.499733 0.661380 0.499941 0.032341
C137  C     C_1   0.338422 0.998660 0.000647 0.147266
C138  C     C_1   0.001348 0.661578 0.999402 0.147416
C139  C     C_1   0.661578 0.001346 0.000607 0.147437
C140  C     C_1   0.998648 0.338421 0.999431 0.147525
C141  C     C_1   0.838422 0.498659 0.500637 0.147264
C142  C     C_1   0.501343 0.161578 0.499372 0.147289
C143  C     C_1   0.161579 0.501356 0.500544 0.147594
C144  C     C_1   0.498620 0.838420 0.499644 0.148176
C145  C     C_1   0.375878 0.999571 0.000279 -0.050439
C146  C     C_1   0.000431 0.624122 0.999744 -0.050408
C147  C     C_1   0.624122 0.000431 0.000261 -0.050363
C148  C     C_1   0.999568 0.375878 0.999757 -0.050360
C149  C     C_1   0.875878 0.499570 0.500273 -0.050479
C150  C     C_1   0.500430 0.124122 0.499731 -0.050477
C151  C     C_1   0.124123 0.500433 0.500232 -0.050347
C152  C     C_1   0.499561 0.875877 0.499852 -0.050104
C153  C     C_1   0.123923 0.999950 0.000023 -0.126764
C154  C     C_1   0.000051 0.876077 0.999977 -0.126757
C155  C     C_1   0.876077 0.000050 0.000021 -0.126755
C156  C     C_1   0.999949 0.123923 0.999983 -0.126758
C157  C     C_1   0.623923 0.499949 0.500022 -0.126740
C158  C     C_1   0.500051 0.376077 0.499976 -0.126754
C159  C     C_1   0.376077 0.500050 0.500018 -0.126722
C160  C     C_1   0.499948 0.623922 0.499992 -0.126686
O33   O     O_R   0.000010 0.059770 0.037600 -0.567817
O34   O     O_R   0.059770 0.999990 0.037600 -0.567926
O35   O     O_R   0.999990 0.940230 0.037600 -0.567820
O36   O     O_R   0.940230 0.000010 0.037600 -0.567963
O37   O     O_R   0.000010 0.940230 0.962400 -0.567953
O38   O     O_R   0.059770 0.000010 0.962400 -0.567832
O39   O     O_R   0.999990 0.059770 0.962400 -0.567966
O40   O     O_R   0.940230 0.999990 0.962400 -0.567804
O41   O     O_R   0.500010 0.559770 0.537600 -0.567848
O42   O     O_R   0.559770 0.499990 0.537600 -0.567925
O43   O     O_R   0.499990 0.440230 0.537600 -0.567806
O44   O     O_R   0.440230 0.500010 0.537600 -0.567949
O45   O     O_R   0.500010 0.440230 0.462400 -0.567951
O46   O     O_R   0.559770 0.500010 0.462400 -0.567811
O47   O     O_R   0.499990 0.559770 0.462400 -0.567952
O48   O     O_R   0.440230 0.499990 0.462400 -0.567820
C161  C     C_R   0.000043 0.079317 1.000000 0.806637
C162  C     C_R   0.079317 0.000043 0.000001 0.806629
C163  C     C_R   0.999957 0.920683 0.999998 0.806636
C164  C     C_R   0.920683 0.999957 0.000001 0.806640
C165  C     C_R   0.500044 0.579317 0.500000 0.806679
C166  C     C_R   0.579317 0.500043 0.500001 0.806626
C167  C     C_R   0.499957 0.420683 0.499998 0.806607
C168  C     C_R   0.420683 0.499957 0.500001 0.806652
Cu9   Cu    Cu3+1 0.000000 0.000000 0.044450 1.048108
Cu10  Cu    Cu3+1 0.000000 0.000000 0.955550 1.048077
Cu11  Cu    Cu3+1 0.500000 0.500000 0.544450 1.048188
Cu12  Cu    Cu3+1 0.500000 0.500000 0.455550 1.048173
H17   H     H_    0.452307 0.045517 0.361969 0.196523
H18   H     H_    0.045863 0.547668 0.361980 0.198358
H19   H     H_    0.547697 0.954494 0.361962 0.195635
H20   H     H_    0.954145 0.452324 0.361976 0.198324
H21   H     H_    0.452481 0.953981 0.638013 0.198221
H22   H     H_    0.045726 0.452515 0.638022 0.196209
H23   H     H_    0.547528 0.046005 0.638016 0.198227
H24   H     H_    0.954274 0.547489 0.638025 0.196510
H25   H     H_    0.952509 0.545724 0.861978 0.196389
H26   H     H_    0.545740 0.047788 0.861974 0.198417
H27   H     H_    0.047490 0.454279 0.861974 0.196290
H28   H     H_    0.454271 0.952202 0.861971 0.198365
H29   H     H_    0.952356 0.454111 0.138018 0.198346
H30   H     H_    0.545935 0.952721 0.138012 0.196315
H31   H     H_    0.047648 0.545884 0.138022 0.198324
H32   H     H_    0.454064 0.047288 0.138015 0.196474
N1    N     N_R   0.582845 0.920643 0.296568 0.151825
O49   O     O_R   0.612753 0.936566 0.320050 -0.290325
O50   O     O_R   0.581057 0.880666 0.291000 -0.224245
N2    N     N_R   0.919994 0.417228 0.296580 0.153580
O51   O     O_R   0.935680 0.387301 0.320058 -0.285474
O52   O     O_R   0.880030 0.419071 0.291031 -0.221122
N3    N     N_R   0.417177 0.079388 0.296578 0.152622
O53   O     O_R   0.387261 0.063476 0.320054 -0.288587
O54   O     O_R   0.418988 0.119366 0.291025 -0.221955
N4    N     N_R   0.080023 0.582753 0.296586 0.153642
O55   O     O_R   0.064343 0.612685 0.320063 -0.286207
O56   O     O_R   0.119988 0.580901 0.291041 -0.220799
N5    N     N_R   0.582510 0.080275 0.703414 0.153602
O57   O     O_R   0.612489 0.064690 0.679934 -0.285299
O58   O     O_R   0.580531 0.120232 0.708962 -0.221027
N6    N     N_R   0.920234 0.582457 0.703420 0.152729
O59   O     O_R   0.936006 0.612448 0.679946 -0.288613
O60   O     O_R   0.880265 0.580455 0.708970 -0.221687
N7    N     N_R   0.417522 0.919693 0.703408 0.153672
O61   O     O_R   0.387532 0.935269 0.679938 -0.287334
O62   O     O_R   0.419517 0.879735 0.708947 -0.220886
N8    N     N_R   0.079764 0.417546 0.703414 0.152459
O63   O     O_R   0.063990 0.387555 0.679938 -0.289226
O64   O     O_R   0.119733 0.419544 0.708967 -0.222446
N9    N     N_R   0.082461 0.420243 0.796580 0.152544
O65   O     O_R   0.112451 0.436018 0.820055 -0.288978
O66   O     O_R   0.080464 0.380274 0.791026 -0.222298
N10   N     N_R   0.420227 0.917003 0.796575 0.153532
O67   O     O_R   0.435998 0.887124 0.820057 -0.285145
O68   O     O_R   0.380258 0.918730 0.791022 -0.221491
N11   N     N_R   0.917538 0.579761 0.796586 0.152607
O69   O     O_R   0.887548 0.563985 0.820061 -0.288884
O70   O     O_R   0.919534 0.619730 0.791035 -0.221919
N12   N     N_R   0.579802 0.082967 0.796581 0.153599
O71   O     O_R   0.564038 0.112855 0.820058 -0.286005
O72   O     O_R   0.619771 0.081227 0.791034 -0.220842
N13   N     N_R   0.082722 0.580056 0.203419 0.153612
O73   O     O_R   0.112659 0.564390 0.179939 -0.285598
O74   O     O_R   0.080853 0.620019 0.208969 -0.221029
N14   N     N_R   0.419860 0.082096 0.203412 0.152801
O75   O     O_R   0.435494 0.112159 0.179937 -0.288630
O76   O     O_R   0.379899 0.079909 0.208961 -0.221406
N15   N     N_R   0.917293 0.419928 0.203412 0.153640
O77   O     O_R   0.887351 0.435591 0.179939 -0.286086
O78   O     O_R   0.919169 0.379965 0.208954 -0.220808
N16   N     N_R   0.580154 0.917930 0.203403 0.152770
O79   O     O_R   0.564526 0.887858 0.179935 -0.288462
O80   O     O_R   0.620116 0.920132 0.208942 -0.222015
N17   N     N_R   0.292423 0.971597 0.922990 0.146637
O81   O     O_R   0.275037 0.976418 0.884434 -0.286972
O82   O     O_R   0.326682 0.950506 0.925405 -0.308323
N18   N     N_R   0.980458 0.707513 0.919643 0.149554
O83   O     O_R   0.955367 0.724896 0.891494 -0.281343
O84   O     O_R   0.998775 0.673211 0.908329 -0.320769
N19   N     N_R   0.707574 0.026967 0.922395 0.146731
O85   O     O_R   0.724959 0.021432 0.883948 -0.286976
O86   O     O_R   0.673316 0.048100 0.924364 -0.308494
N20   N     N_R   0.018544 0.292478 0.919382 0.149482
O87   O     O_R   0.043280 0.275091 0.890877 -0.281505
O88   O     O_R   0.000089 0.326779 0.908330 -0.320978
N21   N     N_R   0.292486 0.021316 0.079851 0.149718
O89   O     O_R   0.275103 0.047027 0.107355 -0.281151
O90   O     O_R   0.326786 0.003254 0.091628 -0.320279
N22   N     N_R   0.974299 0.292430 0.078106 0.146749
O91   O     O_R   0.980459 0.275050 0.116445 -0.287261
O92   O     O_R   0.953136 0.326688 0.076531 -0.308624
N23   N     N_R   0.707516 0.980158 0.080276 0.149601
O93   O     O_R   0.724901 0.954963 0.108316 -0.281340
O94   O     O_R   0.673215 0.998432 0.091669 -0.320732
N24   N     N_R   0.026675 0.707578 0.077724 0.146707
O95   O     O_R   0.020996 0.724965 0.116146 -0.287173
O96   O     O_R   0.047814 0.673319 0.075848 -0.308473
N25   N     N_R   0.792423 0.471897 0.422859 0.146665
O97   O     O_R   0.775036 0.476867 0.384325 -0.286903
O98   O     O_R   0.826684 0.450799 0.425179 -0.308312
N26   N     N_R   0.479246 0.207511 0.419989 0.149577
O99   O     O_R   0.453728 0.224891 0.392281 -0.281494
O100  O     O_R   0.497393 0.173212 0.408357 -0.320685
N27   N     N_R   0.207572 0.524752 0.421541 0.146772
O101  O     O_R   0.224952 0.518128 0.383291 -0.287459
O102  O     O_R   0.173316 0.545935 0.422824 -0.308772
N28   N     N_R   0.510689 0.792467 0.417816 0.148945
O103  O     O_R   0.532535 0.775071 0.386732 -0.282202
O104  O     O_R   0.491274 0.826771 0.408864 -0.321856
N29   N     N_R   0.792486 0.521007 0.579940 0.149640
O105  O     O_R   0.775104 0.546611 0.607557 -0.281264
O106  O     O_R   0.826785 0.502898 0.591638 -0.320521
N30   N     N_R   0.481984 0.792440 0.580572 0.146944
O107  O     O_R   0.491828 0.775076 0.618026 -0.288905
O108  O     O_R   0.460758 0.826684 0.581342 -0.309749
N31   N     N_R   0.207520 0.482429 0.580863 0.149414
O109  O     O_R   0.224907 0.458041 0.609707 -0.281528
O110  O     O_R   0.173217 0.501014 0.591658 -0.321137
N32   N     N_R   0.527857 0.207580 0.577244 0.146691
O111  O     O_R   0.522766 0.224970 0.615759 -0.286816
O112  O     O_R   0.548961 0.173319 0.575000 -0.308291

loop_
_geom_bond_atom_site_label_1
_geom_bond_atom_site_label_2
_geom_bond_distance
_ccdc_geom_bond_type
C108  N22   1.441935 S    
C142  C150  1.208078 T    
O25   C13   1.283760 A    
C111  C123  1.419710 A    
N11   O69   1.301095 A    
C120  N26   1.441912 S    
O38   Cu10  1.938345 S    
N15   O78   1.301051 A    
C123  C139  1.449419 S    
N25   O97   1.301570 A    
C120  C126  1.419660 A    
C20   C34   1.393701 A    
N8    O63   1.301094 A    
C121  C137  1.449427 S    
C115  C127  1.419712 A    
C12   C37   1.456628 S    
C46   C70   1.412635 A    
O18   Cu2   1.969265 S    
C139  C147  1.208078 T    
C77   N13   1.435891 S    
C137  C145  1.208074 T    
C25   C51   1.402012 A    
O34   Cu9   1.938347 S    
O24   Cu4   1.969267 S    
O39   C161  1.298400 A    
C73   N9    1.435880 S    
O19   Cu3   1.969272 S    
N22   O91   1.301585 A    
Cu1   Cu3   2.647318 S    
C25   H25   1.082421 S    
Cu2   Cu4   2.647314 S    
C17   C43   1.402018 A    
O3    C3    1.285712 A    
C140  C148  1.208080 T    
C19   C33   1.393735 A    
C89   H9    1.083804 S    
C124  C140  1.449422 S    
C52   C62   1.418295 A    
C32   C54   1.402011 A    
C54   C64   1.418293 A    
C144  C152  1.208091 T    
O33   C161  1.298457 A    
C23   C45   1.402030 A    
C42   C58   1.418298 A    
C89   C117  1.405893 A    
C96   H16   1.083800 S    
C49   C73   1.412631 A    
C95   C103  1.396143 A    
N24   O95   1.301581 A    
C118  C128  1.419766 A    
N28   O103  1.301622 A    
C55   C79   1.412649 A    
C22   C48   1.402006 A    
O35   Cu9   1.938343 S    
C71   N7    1.435883 S    
C119  N27   1.441949 S    
N15   O77   1.301094 A    
C109  N17   1.441892 S    
C3    C147  1.437393 S    
N16   O79   1.301097 A    
O13   C5    1.286397 A    
C72   N8    1.435879 S    
C154  C163  1.438315 S    
C1    C145  1.437386 S    
C52   C76   1.412652 A    
O7    Cu1   1.939456 S    
N24   O96   1.301275 A    
C131  C155  1.207870 T    
O26   Cu6   1.969265 S    
O7    C3    1.286402 A    
C56   C64   1.418294 A    
C129  C153  1.207870 T    
C105  C121  1.419657 A    
O27   C13   1.283761 A    
N14   O75   1.301093 A    
O31   C15   1.283752 A    
O32   C16   1.283787 A    
O38   C162  1.298462 A    
C7    C151  1.437399 S    
C15   C34   1.456622 S    
N26   O99   1.301579 A    
C29   C55   1.402034 A    
C31   C53   1.402032 A    
O36   Cu9   1.938350 S    
C78   N14   1.435877 S    
N9    O66   1.301049 A    
C99   C131  1.443661 S    
C132  C156  1.207871 T    
O9    C5    1.285714 A    
O11   C7    1.285707 A    
N30   O107  1.301614 A    
C114  N32   1.441898 S    
C50   C74   1.412654 A    
O46   Cu12  1.938345 S    
O4    C4    1.286403 A    
C22   H22   1.082418 S    
O5    C1    1.286397 A    
N21   O89   1.301573 A    
O5    Cu3   1.939460 S    
C58   C63   1.406118 A    
C94   C104  1.396132 A    
C109  C121  1.419679 A    
N31   O109  1.301594 A    
C27   C37   1.393700 A    
C125  C141  1.449424 S    
C53   C63   1.418297 A    
C31   C39   1.393695 A    
C98   C130  1.443663 S    
O23   C11   1.283767 A    
N11   O70   1.301050 A    
O44   C168  1.298402 A    
C102  C134  1.443669 S    
N1    O49   1.301096 A    
C90   H10   1.083799 S    
C31   H31   1.082426 S    
C83   H3    1.083819 S    
N18   O83   1.301587 A    
C6    C150  1.437388 S    
Cu9   Cu10  2.683976 S    
C17   C33   1.393737 A    
C116  C128  1.419751 A    
C50   C62   1.418291 A    
C117  N25   1.441904 S    
C21   C47   1.402035 A    
C24   H24   1.082419 S    
C85   H5    1.083795 S    
N2    O51   1.301095 A    
C128  C144  1.449412 S    
C113  N29   1.441923 S    
C65   C80   1.406264 A    
O28   C14   1.283724 A    
O26   C14   1.283743 A    
O45   C167  1.298402 A    
O8    Cu4   1.940861 S    
C67   C78   1.406275 A    
O30   C16   1.283790 A    
C96   C102  1.396052 A    
N7    O62   1.301050 A    
C10   C39   1.456607 S    
C94   C116  1.405904 A    
C114  C126  1.419683 A    
N13   O74   1.301053 A    
C53   C77   1.412651 A    
C51   C61   1.418286 A    
C14   C35   1.456549 S    
C55   C63   1.418300 A    
O33   Cu9   1.938356 S    
N17   O82   1.301275 A    
C24   C36   1.393705 A    
C41   C65   1.412647 A    
O35   C163  1.298457 A    
C157  C166  1.438313 S    
N23   O94   1.301278 A    
O45   Cu12  1.938361 S    
C26   C52   1.402037 A    
C110  N20   1.441953 S    
N10   O68   1.301050 A    
C30   C56   1.401998 A    
O16   Cu8   1.940861 S    
C45   C59   1.418300 A    
C28   C50   1.402032 A    
C118  N28   1.442017 S    
C92   C118  1.405947 A    
O6    Cu2   1.940864 S    
C91   C103  1.396083 A    
C133  C157  1.207870 T    
C96   C114  1.405895 A    
C107  C123  1.419692 A    
C70   N6    1.435878 S    
C29   C39   1.393695 A    
C110  C124  1.419695 A    
O18   C10   1.283754 A    
C29   H29   1.082425 S    
O21   Cu3   1.969260 S    
N27   O102  1.301279 A    
C68   C77   1.406293 A    
N3    O53   1.301096 A    
C20   H20   1.082425 S    
O41   C165  1.298434 A    
C88   C98   1.396067 A    
C81   C109  1.405890 A    
O12   C8    1.286422 A    
O1    C1    1.285714 A    
C68   N4    1.435887 S    
O47   Cu12  1.938342 S    
C32   C40   1.393674 A    
C54   C78   1.412629 A    
C23   C35   1.393676 A    
C60   C61   1.406103 A    
N5    O58   1.301051 A    
C93   C101  1.396124 A    
C42   C66   1.412651 A    
C106  C122  1.419705 A    
O29   Cu7   1.969260 S    
N6    O59   1.301095 A    
N22   O92   1.301279 A    
N32   O111  1.301568 A    
C19   H19   1.082412 S    
O37   C163  1.298402 A    
C23   H23   1.082429 S    
C66   C79   1.406296 A    
C141  C149  1.208073 T    
C22   C36   1.393699 A    
C9    C40   1.456519 S    
C83   C99   1.396067 A    
O10   C6    1.286401 A    
C11   C38   1.456682 S    
C122  C138  1.449425 S    
C18   C34   1.393697 A    
C81   C97   1.396046 A    
C13   C36   1.456628 S    
O15   Cu5   1.939456 S    
C45   C69   1.412646 A    
N12   O71   1.301095 A    
N28   O104  1.301272 A    
C47   C71   1.412641 A    
Cu11  Cu12  2.683976 S    
C138  C146  1.208076 T    
C93   C113  1.405959 A    
C153  C162  1.438313 S    
C69   C76   1.406295 A    
C135  C159  1.207869 T    
C26   H26   1.082424 S    
O32   Cu8   1.969267 S    
N16   O80   1.301049 A    
N7    O61   1.301094 A    
C95   C115  1.405958 A    
N29   O106  1.301276 A    
C46   C60   1.418287 A    
C108  C124  1.419711 A    
N25   O98   1.301276 A    
O22   Cu2   1.969268 S    
C117  C125  1.419687 A    
N19   O85   1.301581 A    
O21   C11   1.283772 A    
O22   C12   1.283759 A    
O23   Cu1   1.969276 S    
C24   C46   1.402011 A    
C28   H28   1.082422 S    
N14   O76   1.301051 A    
C100  C132  1.443659 S    
C28   C38   1.393717 A    
C26   C38   1.393717 A    
C82   C112  1.405957 A    
C30   C40   1.393656 A    
C103  C135  1.443653 S    
C18   H18   1.082426 S    
C25   C37   1.393705 A    
C4    C148  1.437396 S    
N26   O100  1.301272 A    
C87   C99   1.396137 A    
O3    Cu3   1.940858 S    
C81   H1    1.083801 S    
C86   H6    1.083819 S    
O8    C2    1.285711 A    
C112  N18   1.441941 S    
C115  N31   1.441965 S    
N9    O65   1.301094 A    
O28   Cu8   1.969265 S    
N27   O101  1.301587 A    
O30   Cu6   1.969268 S    
O43   C167  1.298457 A    
N30   O108  1.301290 A    
C2    C146  1.437395 S    
C82   H2    1.083815 S    
C48   C60   1.418288 A    
C130  C154  1.207871 T    
C75   N11   1.435880 S    
O9    Cu5   1.940861 S    
O17   C9    1.283737 A    
O11   Cu7   1.940858 S    
O16   C6    1.285711 A    
C66   N2    1.435895 S    
O48   Cu12  1.938348 S    
N8    O64   1.301048 A    
C16   C33   1.456740 S    
C84   H4    1.083820 S    
C85   C105  1.405960 A    
C19   C41   1.402010 A    
N31   O110  1.301278 A    
C27   H27   1.082421 S    
O41   Cu11  1.938356 S    
O6    C4    1.285709 A    
C90   C102  1.396115 A    
C111  N19   1.441933 S    
C158  C167  1.438315 S    
O40   C164  1.298460 A    
N23   O93   1.301586 A    
N3    O54   1.301052 A    
O40   Cu10  1.938348 S    
O42   Cu11  1.938347 S    
O31   Cu5   1.969276 S    
O44   Cu11  1.938350 S    
C106  N24   1.441923 S    
C95   H15   1.083829 S    
C91   C119  1.405893 A    
C44   C68   1.412653 A    
N18   O84   1.301278 A    
C71   C74   1.406293 A    
O17   Cu1   1.969256 S    
C57   C64   1.406103 A    
C48   C72   1.412631 A    
C30   H30   1.082426 S    
C59   C62   1.406118 A    
N2    O52   1.301052 A    
C43   C57   1.418281 A    
C80   N16   1.435876 S    
N4    O55   1.301097 A    
C159  C168  1.438316 S    
C79   N15   1.435892 S    
C70   C75   1.406270 A    
C69   N5    1.435897 S    
O13   Cu7   1.939460 S    
O42   C166  1.298397 A    
O2    C2    1.286401 A    
N13   O73   1.301096 A    
C126  C142  1.449426 S    
C89   C101  1.396052 A    
C156  C161  1.438318 S    
N17   O81   1.301569 A    
C21   C35   1.393671 A    
C92   C104  1.396167 A    
C97   C129  1.443668 S    
O4    Cu4   1.939463 S    
C160  C165  1.438325 S    
O43   Cu11  1.938343 S    
O39   Cu10  1.938342 S    
O14   C8    1.285699 A    
C94   H14   1.083864 S    
C27   C49   1.402008 A    
C155  C164  1.438316 S    
C5    C149  1.437392 S    
C20   C42   1.402033 A    
O36   C164  1.298398 A    
N21   O90   1.301274 A    
N20   O88   1.301278 A    
O2    Cu2   1.939459 S    
C49   C61   1.418285 A    
C83   C111  1.405889 A    
O15   C7    1.286407 A    
C105  N21   1.441920 S    
C82   C98   1.396134 A    
C86   C108  1.405896 A    
C88   C106  1.405894 A    
C72   C73   1.406266 A    
C85   C97   1.396119 A    
C47   C59   1.418304 A    
O37   Cu10  1.938361 S    
Cu5   Cu7   2.647318 S    
O25   Cu5   1.969256 S    
Cu6   Cu8   2.647314 S    
N19   O86   1.301276 A    
O27   Cu7   1.969272 S    
C92   H12   1.083871 S    
C93   H13   1.083800 S    
O34   C162  1.298397 A    
C17   H17   1.082415 S    
N1    O50   1.301051 A    
C87   H7    1.083817 S    
C90   C120  1.405955 A    
C127  C143  1.449417 S    
C87   C107  1.405964 A    
C76   N12   1.435891 S    
N20   O87   1.301588 A    
C18   C44   1.402031 A    
C88   H8    1.083818 S    
O19   C9    1.283727 A    
C116  N30   1.441988 S    
C113  C125  1.419663 A    
C143  C151  1.208077 T    
N5    O57   1.301095 A    
O24   C12   1.283761 A    
C107  N23   1.441948 S    
C91   H11   1.083831 S    
C134  C158  1.207868 T    
O12   Cu8   1.939463 S    
C84   C110  1.405957 A    
C21   H21   1.082429 S    
O14   Cu6   1.940864 S    
N6    O60   1.301052 A    
C32   H32   1.082424 S    
N32   O112  1.301275 A    
C84   C100  1.396137 A    
C67   N3    1.435878 S    
O46   C166  1.298462 A    
C74   N10   1.435892 S    
O29   C15   1.283757 A    
C51   C75   1.412636 A    
C119  C127  1.419721 A    
C56   C80   1.412614 A    
O47   C165  1.298409 A    
C44   C58   1.418301 A    
N10   O67   1.301095 A    
N12   O72   1.301050 A    
O20   Cu4   1.969265 S    
C41   C57   1.418275 A    
C112  C122  1.419686 A    
O20   C10   1.283746 A    
C43   C67   1.412645 A    
N4    O56   1.301051 A    
O10   Cu6   1.939459 S    
C101  C133  1.443665 S    
C104  C136  1.443635 S    
C65   N1    1.435877 S    
C8    C152  1.437412 S    
O48   C168  1.298453 A    
N29   O105  1.301579 A    
O1    Cu1   1.940861 S    
C136  C160  1.207868 T    
C86   C100  1.396075 A    
