data_mof_unit_67110.cif
_audit_creation_date              2013-03-05T15:58:39-0500
_audit_creation_method            fapswitch 2.2
_symmetry_space_group_name_H-M    P1
_symmetry_Int_Tables_number       1
_space_group_crystal_system       triclinic
_cell_length_a                    8.646981
_cell_length_b                    13.498697
_cell_length_c                    15.314773
_cell_angle_alpha                 97.400448
_cell_angle_beta                  98.561078
_cell_angle_gamma                 99.612686
_cell_volume                      1721.0664681

loop_
_atom_site_label
_atom_site_type_symbol
_atom_site_description
_atom_site_fract_x
_atom_site_fract_y
_atom_site_fract_z
_atom_type_partial_charge
P1    P     P_3+3 0.998770 0.403620 0.291990 0.625570
O1    O     O_2   0.827930 0.435360 0.277760 -0.298001
O2    O     O_3   0.100310 0.439010 0.391180 -0.324229
O3    O     O_3   0.625610 0.634200 0.333270 -0.250835
O4    O     O_2   0.680111 0.531429 0.186903 -0.285491
O5    O     O_3   0.933038 0.275501 0.264105 -0.567435
O6    O     O_3   0.657625 0.711649 0.175102 -0.502005
C1    C     C_3   0.647667 0.861658 0.118902 0.459085
H1    H     H_    0.775636 0.878516 0.143658 0.118294
P2    P     P_3+3 0.687370 0.751000 0.571300 0.552318
P3    P     P_3+3 0.116804 0.820217 0.378358 0.754608
O7    O     O_2   0.857120 0.766320 0.543890 -0.286314
O8    O     O_3   0.056570 0.691100 0.379020 -0.253727
O9    O     O_2   0.009173 0.871055 0.435171 -0.248890
O10   O     O_3   0.736890 0.778907 0.686942 -0.489068
O11   O     O_3   0.048983 0.837813 0.266087 -0.443063
C2    C     C_3   0.156300 0.811522 0.208952 0.408079
H2    H     H_    0.265715 0.870609 0.227294 0.099491
C3    C     C_3   0.092504 0.809015 0.105589 0.461246
C4    C     C_3   0.308755 0.779421 0.680627 0.654171
H3    H     H_    0.414373 0.748366 0.665530 -0.040223
C5    C     C_3   0.360475 0.891487 0.724096 0.353299
H4    H     H_    0.475088 0.896399 0.768726 0.088797
Ba1   Ba    Ba6+2 0.843760 0.550230 0.455610 1.842462
C6    C     C_3   0.007436 0.223342 0.323314 0.587182
H5    H     H_    0.131389 0.260176 0.350498 0.015085
C7    C     C_3   0.004088 0.120857 0.268508 0.166703
H6    H     H_    0.930239 0.113095 0.201192 0.223487
H7    H     H_    0.125619 0.119707 0.255761 0.132943
C8    C     C_3   0.744640 0.687668 0.720128 0.158987
H8    H     H_    0.835821 0.649603 0.692897 0.101034
H9    H     H_    0.627749 0.635569 0.704566 0.084997
C9    C     C_3   0.788372 0.712418 0.819889 0.195460
H10   H     H_    0.781635 0.641257 0.848922 0.076807
H11   H     H_    0.704247 0.757089 0.846113 0.184829
P4    P     P_3+3 0.190950 0.596470 0.708020 0.535897
O12   O     O_2   0.361790 0.564680 0.722290 -0.429046
O13   O     O_3   0.089410 0.561080 0.608830 -0.351700
O14   O     O_3   0.564100 0.365890 0.666740 -0.389014
O15   O     O_3   0.235821 0.727823 0.741414 -0.542021
P5    P     P_3+3 0.076968 0.174855 0.611080 0.602623
O16   O     O_3   0.601940 0.368260 0.453780 -0.353980
O17   O     O_3   0.133140 0.308990 0.620990 -0.333885
O18   O     O_2   0.175426 0.127480 0.546523 -0.274171
O19   O     O_3   0.161779 0.147540 0.713174 -0.452180
Ba2   Ba    Ba6+2 0.346080 0.449860 0.544400 1.753934
P6    P     P_3+3 0.572934 0.605276 0.215762 0.656928
C10   C     C_3   0.579822 0.794154 0.182814 0.486887
H12   H     H_    0.451695 0.769168 0.162011 0.013282
O20   O     O_3   0.587770 0.631830 0.546230 -0.404597
C11   C     C_3   0.450523 0.265115 0.275129 0.164855
H13   H     H_    0.332116 0.279819 0.284330 -0.011617
H14   H     H_    0.540298 0.336545 0.294581 0.138881
C12   C     C_3   0.445666 0.229895 0.175178 0.665067
P7    P     P_3+3 0.511173 0.235021 0.440675 0.622471
O21   O     O_2   0.332600 0.233710 0.456170 -0.349845
O22   O     O_3   0.491271 0.191109 0.325774 -0.433307
C13   C     C_3   0.070504 0.179653 0.775762 0.031280
H15   H     H_    0.055325 0.259906 0.774459 0.090495
H16   H     H_    0.952880 0.129910 0.760854 0.098893
C14   C     C_3   0.150348 0.169476 0.868564 0.382501
H17   H     H_    0.182790 0.093792 0.865502 0.160714
P8    P     P_3+3 0.624747 0.388204 0.782004 0.522446
C15   C     C_3   0.658692 0.203164 0.791744 0.116672
H18   H     H_    0.786872 0.238128 0.806421 0.020136
O23   O     O_2   0.518184 0.457855 0.819846 -0.351523
O24   O     O_3   0.564581 0.273154 0.818777 -0.429671
H19   H     H_    0.622003 0.175627 0.718860 0.107459
C16   C     C_3   0.632743 0.113170 0.843352 0.538599
H20   H     H_    0.503796 0.081174 0.832073 0.101661
C17   C     C_R   0.362949 0.538579 0.167107 0.151425
H21   H     H_    0.512923 0.589060 0.031311 0.182708
C18   C     C_R   0.111155 0.452071 0.201911 0.203732
C19   C     C_R   0.931548 0.481975 0.766084 -0.523626
C20   C     C_R   0.836342 0.443732 0.824553 0.149446
C21   C     C_R   0.898753 0.447153 0.915019 -0.122856
C22   C     C_R   0.061254 0.486107 0.950110 0.159765
C23   C     C_R   0.158063 0.528987 0.889058 0.019555
C24   C     C_R   0.128125 0.488097 0.044672 0.125443
C25   C     C_R   0.292917 0.530857 0.074829 -0.047539
C26   C     C_R   0.386103 0.562798 0.011798 0.028186
C27   C     C_R   0.319430 0.567035 0.923286 0.079555
C28   C     C_R   0.038722 0.449602 0.110556 -0.065688
C29   C     C_R   0.274771 0.492977 0.226703 0.156134
C30   C     C_R   0.090383 0.529751 0.795564 0.279300
H22   H     H_    0.913484 0.417195 0.092873 0.179891
H23   H     H_    0.878190 0.478099 0.696887 0.153698
H24   H     H_    0.817721 0.417024 0.956438 0.181023
H25   H     H_    0.397023 0.602222 0.882528 0.159974
C31   C     C_R   0.749844 0.174787 0.556968 -0.413448
C32   C     C_R   0.431779 0.810307 0.467162 -0.333706
C33   C     C_R   0.393924 0.976738 0.438087 0.446801
C34   C     C_R   0.333402 0.872724 0.430872 0.188339
C35   C     C_R   0.586643 0.849289 0.515006 0.229331
C36   C     C_R   0.648414 0.959020 0.523026 -0.006783
C37   C     C_R   0.547045 0.025034 0.486496 -0.054334
C38   C     C_R   0.601347 0.135963 0.502923 0.359692
C39   C     C_R   0.860281 0.112589 0.576203 0.171411
C40   C     C_R   0.808280 0.005265 0.562371 0.009943
H26   H     H_    0.893240 0.958828 0.582769 0.197366
H27   H     H_    0.788399 0.256422 0.573472 0.154821
H28   H     H_    0.384116 0.729822 0.460805 0.195677
N1    N     N_R   0.616041 0.847937 0.274626 0.234598
O25   O     O_R   0.542653 0.920550 0.297811 -0.390590
O26   O     O_R   0.720851 0.824219 0.334250 -0.279039
Cl1   Cl    Cl    0.385815 0.979244 0.648055 -0.675490
N2    N     N_R   0.246711 0.922759 0.777558 0.276674
O27   O     O_R   0.108231 0.935754 0.739298 -0.278463
O28   O     O_R   0.286685 0.941692 0.864000 -0.266704
N3    N     N_R   0.917245 0.216576 0.394725 0.224421
O29   O     O_R   0.773987 0.164239 0.373285 -0.344052
O30   O     O_R   0.947496 0.292311 0.460044 -0.408981
Cl2   Cl    Cl    0.924815 0.014411 0.316185 -0.419672
Cl3   Cl    Cl    0.983252 0.785953 0.845831 -0.329555
N4    N     N_R   0.596898 0.959267 0.119042 0.261618
O31   O     O_R   0.649055 0.028613 0.188748 -0.268856
O32   O     O_R   0.556237 0.989515 0.043234 -0.166792
N5    N     N_R   0.354995 0.126654 0.143697 0.270235
O33   O     O_R   0.303667 0.098952 0.058570 -0.203998
O34   O     O_R   0.360831 0.056154 0.193567 -0.281477
N6    N     N_R   0.373115 0.299756 0.124924 0.177232
O35   O     O_R   0.219017 0.288242 0.108436 -0.421284
O36   O     O_R   0.458921 0.365017 0.087598 -0.338677
Cl4   Cl    Cl    0.641917 0.232795 0.154206 -0.384516
Cl5   Cl    Cl    0.609980 0.791821 0.007581 -0.536772
N7    N     N_R   0.228199 0.820993 0.058535 0.210000
O37   O     O_R   0.264428 0.902760 0.024320 -0.168219
O38   O     O_R   0.280443 0.741793 0.027668 -0.424970
N8    N     N_R   0.293210 0.246528 0.898031 0.279427
O39   O     O_R   0.410987 0.224350 0.949218 -0.243724
O40   O     O_R   0.290108 0.341362 0.892715 -0.360916
N9    N     N_R   0.044282 0.178272 0.932909 0.239375
O41   O     O_R   0.011476 0.105110 0.978640 -0.188873
O42   O     O_R   0.004236 0.265133 0.955519 -0.389513
N10   N     N_R   0.718631 0.032804 0.816378 0.191723
O43   O     O_R   0.751541 0.970398 0.871377 -0.227395
O44   O     O_R   0.719421 0.004314 0.732289 -0.469946
N11   N     N_R   0.194365 0.713767 0.223637 0.155026
O45   O     O_R   0.323678 0.712350 0.278269 -0.516698
O46   O     O_R   0.074966 0.639969 0.217203 -0.389754
Cl6   Cl    Cl    0.694774 0.157516 0.959503 -0.332544
Cl7   Cl    Cl    0.374050 0.486718 0.334642 -0.591107
Cl8   Cl    Cl    0.277463 0.037058 0.372006 -0.540058
N12   N     N_R   0.983789 0.712850 0.064696 0.236017
O47   O     O_R   0.984131 0.672851 0.983500 -0.381758
O48   O     O_R   0.867786 0.675102 0.101444 -0.310803
N13   N     N_R   0.010216 0.892652 0.090518 0.240930
O49   O     O_R   0.061427 0.979460 0.140874 -0.361708
O50   O     O_R   0.931025 0.892756 0.011577 -0.201606
Cl9   Cl    Cl    0.172104 0.767664 0.581584 -0.558782

loop_
_geom_bond_atom_site_label_1
_geom_bond_atom_site_label_2
_geom_bond_distance
_ccdc_geom_bond_type
C8    H9    1.104863 S    
P7    O21   1.594355 D    
N7    O37   1.293578 A    
O7    Ba1   3.028985 S    
C7    H7    1.099289 S    
Ba1   O16   2.942152 S    
C36   C37   1.455553 A    
C26   C27   1.404077 A    
N10   O43   1.300601 A    
C22   C23   1.456241 A    
O4    P6    1.537818 D    
C9    Cl3   1.767267 S    
C3    N12   1.472662 S    
C27   H25   1.077052 S    
C15   H19   1.110413 S    
P4    O12   1.598102 D    
N13   O50   1.297992 A    
C17   C29   1.410132 A    
P2    O10   1.735014 S    
C8    H8    1.112462 S    
C4    O15   1.394492 S    
P3    O9    1.547486 D    
C36   C40   1.424987 A    
O5    C6    1.368897 S    
P2    C35   1.928541 S    
C16   Cl6   1.773312 S    
N4    O31   1.295187 A    
C33   C37   1.422209 A    
P1    O1    1.597784 D    
O16   Ba2   3.060780 S    
C33   Cl8   1.698239 S    
N5    O33   1.297362 A    
C1    N4    1.456534 S    
C2    C3    1.591001 S    
N3    O29   1.291627 A    
N13   O49   1.286915 A    
N9    O41   1.300024 A    
N4    O32   1.298748 A    
Ba1   O13   2.891915 S    
N2    O27   1.302181 A    
P4    Ba2   3.550336 S    
C2    N11   1.449011 S    
C11   O22   1.399823 S    
C19   H23   1.082009 S    
C21   H24   1.078112 S    
C31   C38   1.398425 A    
H21   C26   1.078350 S    
C14   N9    1.449705 S    
C14   N8    1.447582 S    
P3    C34   1.902195 S    
C13   C14   1.518324 S    
P8    O23   1.541706 D    
C16   N10   1.464264 S    
N2    O28   1.297859 A    
O2    Ba1   3.087271 S    
C16   H20   1.105543 S    
C17   C25   1.435595 A    
C2    H2    1.105141 S    
N5    O34   1.297422 A    
C22   C24   1.472358 A    
Ba1   O20   3.061737 S    
P8    O24   1.744252 S    
O19   C13   1.400742 S    
N6    O36   1.300410 A    
C19   C20   1.393786 A    
C11   H13   1.100533 S    
C15   O24   1.408032 S    
P4    O15   1.741699 S    
C21   C22   1.412568 A    
N12   O48   1.285987 A    
C1    H1    1.090299 S    
P2    Ba1   3.607364 S    
C13   H15   1.115100 S    
C5    Cl1   1.775426 S    
C10   N1    1.460207 S    
C3    N13   1.456265 S    
P1    O5    1.704578 S    
O8    Ba1   2.902850 S    
C11   H14   1.108259 S    
O6    P6    1.732272 S    
C20   C21   1.401964 A    
C1    C10   1.534506 S    
C31   H27   1.081596 S    
O16   P7    1.811001 S    
C32   C34   1.400585 A    
P3    O11   1.791150 S    
C23   C27   1.399666 A    
C40   H26   1.079879 S    
C29   Cl7   1.764774 S    
C37   C38   1.469329 A    
P7    C38   1.939092 S    
C9    H10   1.105828 S    
C35   C36   1.470981 A    
N1    O26   1.297492 A    
C15   C16   1.536197 S    
P6    C17   1.881783 S    
N6    O35   1.297683 A    
P2    O7    1.574144 D    
C6    N3    1.438216 S    
O14   Ba2   2.925468 S    
C7    Cl2   1.777061 S    
C23   C30   1.465981 A    
C10   H12   1.088651 S    
C12   N6    1.454651 S    
C4    C5    1.535440 S    
P7    O22   1.756277 S    
O1    Ba1   2.927788 S    
P5    O18   1.542987 D    
C32   H28   1.082106 S    
P2    O20   1.660307 S    
C7    H6    1.111492 S    
O10   C8    1.399396 S    
N8    O39   1.290692 A    
N10   O44   1.297025 A    
C12   Cl4   1.768541 S    
N7    O38   1.290421 A    
C18   C29   1.405641 A    
C8    C9    1.497719 S    
C5    H4    1.103844 S    
P5    O17   1.775087 S    
C31   C39   1.396894 A    
C25   C26   1.410590 A    
N11   O46   1.291877 A    
P4    C30   1.939443 S    
C6    C7    1.516379 S    
C3    N7    1.463069 S    
O14   P8    1.736799 S    
Ba2   O20   2.941510 S    
O2    Ba2   2.892544 S    
N12   O47   1.290928 A    
C11   C12   1.535453 S    
Ba1   Ba2   4.740654 S    
C15   H18   1.107046 S    
C12   N5    1.462456 S    
C6    H5    1.097807 S    
P1    C18   1.922129 S    
O6    C10   1.395326 S    
C32   C35   1.407196 A    
C24   C28   1.455627 A    
P3    O8    1.735534 S    
O11   C2    1.422823 S    
P8    C20   1.842627 S    
O3    Ba1   2.926156 S    
P4    O13   1.607042 S    
C33   C34   1.398166 A    
C9    H11   1.106859 S    
C4    Cl9   1.750406 S    
C19   C30   1.396659 A    
C14   H17   1.100868 S    
O17   Ba2   2.903506 S    
N3    O30   1.297540 A    
O13   Ba2   3.088147 S    
N11   O45   1.297467 A    
C24   C25   1.427467 A    
C1    Cl5   1.794276 S    
C28   H22   1.077678 S    
C4    H3    1.108615 S    
P1    Ba1   3.549740 S    
N9    O42   1.296645 A    
C39   C40   1.421592 A    
Ba2   O21   3.029279 S    
N1    O25   1.294103 A    
P5    O19   1.736631 S    
P5    C39   1.887562 S    
P1    O2    1.607041 S    
O12   Ba2   2.928226 S    
C13   H16   1.095796 S    
C18   C28   1.439079 A    
C5    N2    1.451108 S    
N8    O40   1.297604 A    
O3    P6    1.764665 S    
