data_mof_unit_20231.cif
_audit_creation_date              2012-12-11T17:25:02-0500
_audit_creation_method            fapswitch 2.2
_symmetry_space_group_name_H-M    P1
_symmetry_Int_Tables_number       1
_space_group_crystal_system       triclinic
_cell_length_a                    6.954339
_cell_length_b                    20.554199
_cell_length_c                    24.475818
_cell_angle_alpha                 90.126868
_cell_angle_beta                  90.470806
_cell_angle_gamma                 89.498141
_cell_volume                      3498.33431698

loop_
_atom_site_label
_atom_site_type_symbol
_atom_type_description
_atom_site_fract_x
_atom_site_fract_y
_atom_site_fract_z
_atom_type_partial_charge
O1    O     O_R   0.507280 0.423750 0.460310 -0.534361
O2    O     O_R   0.171030 0.555650 0.437630 -0.533019
O3    O     O_R   0.004080 0.576250 0.539690 -0.535463
C1    C     C_R   0.339086 0.575643 0.421789 0.712610
O4    O     O_R   0.177330 0.422980 0.453960 -0.539368
O5    O     O_R   0.010420 0.442640 0.556140 -0.531206
C2    C     C_R   0.346086 0.399043 0.443334 0.728428
O6    O     O_R   0.500930 0.557360 0.443860 -0.531898
O7    O     O_3   0.340310 0.506600 0.533500 -0.368816
V1    V     V_3+5 0.064140 0.498780 0.493780 1.478480
O8    O     O_R   0.680890 0.444350 0.562370 -0.534068
C3    C     C_R   0.850585 0.424430 0.578144 0.716025
O9    O     O_R   0.674590 0.577020 0.546040 -0.539020
C4    C     C_R   0.842693 0.600897 0.556781 0.697427
V2    V     V_3+5 0.564550 0.501220 0.506220 1.478382
O10   O     O_3   0.838250 0.493400 0.466500 -0.367603
C5    C     C_R   0.974305 0.837335 0.912163 -0.229065
C6    C     C_R   0.846378 0.661472 0.589201 -0.062762
C7    C     C_R   0.016892 0.720051 0.908457 0.359734
C8    C     C_R   0.011030 0.778147 0.938656 0.342234
C9    C     C_R   0.938670 0.838175 0.855669 -0.207510
C10   C     C_R   0.932068 0.779925 0.824236 0.073462
C11   C     C_R   0.981388 0.720800 0.851301 -0.033051
C12   C     C_R   0.884984 0.778492 0.766668 -0.037477
C13   C     C_R   0.911235 0.719210 0.736129 -0.010908
C14   C     C_R   0.968833 0.662856 0.764695 -0.154528
C15   C     C_R   0.998113 0.663392 0.820758 -0.090376
C16   C     C_R   0.805324 0.833014 0.738726 0.605685
C17   C     C_R   0.771563 0.831255 0.682749 -0.223657
C18   C     C_R   0.805156 0.775065 0.652326 0.014321
C19   C     C_R   0.873283 0.717639 0.678261 0.083911
C20   C     C_R   0.762243 0.775466 0.596186 -0.088925
C21   C     C_R   0.780671 0.719051 0.565130 -0.136794
C22   C     C_R   0.895290 0.660818 0.645116 -0.177030
H1    H     H_    0.038228 0.617719 0.839711 0.188420
H2    H     H_    0.944101 0.614899 0.661441 0.092675
H3    H     H_    0.740405 0.720015 0.522270 0.142345
H4    H     H_    0.711421 0.874216 0.663176 0.183591
H5    H     H_    0.927370 0.885537 0.837298 0.211846
H6    H     H_    0.988828 0.616426 0.745063 0.123357
H7    H     H_    0.709071 0.819310 0.576460 0.149662
C23   C     C_R   0.746424 0.286641 0.742990 -0.230813
H8    H     H_    0.614989 0.314803 0.738187 0.212498
C24   C     C_R   0.897989 0.294779 0.706165 -0.152345
C25   C     C_R   0.067902 0.257680 0.713408 0.324375
C26   C     C_R   0.084145 0.213187 0.756973 0.582282
C27   C     C_R   0.931705 0.205137 0.793661 -0.243173
C28   C     C_R   0.762752 0.242227 0.786343 0.655750
C29   C     C_1   0.877636 0.341035 0.661302 0.164027
C30   C     C_1   0.948520 0.159044 0.838706 0.244172
C31   C     C_1   0.961229 0.120796 0.876431 -0.071653
C32   C     C_1   0.863351 0.379281 0.623613 -0.143376
C33   C     C_R   0.589405 0.786180 0.246255 0.365951
C34   C     C_R   0.442032 0.795089 0.206907 -0.038327
C35   C     C_R   0.272466 0.759034 0.211640 -0.115096
H9    H     H_    0.157747 0.765052 0.181814 0.198735
C36   C     C_R   0.248444 0.715011 0.254797 -0.133289
H10   H     H_    0.115644 0.688067 0.257411 0.185460
C37   C     C_R   0.393952 0.705689 0.294133 -0.031152
C38   C     C_R   0.565745 0.741442 0.289643 0.354239
C39   C     C_1   0.461950 0.841006 0.161680 0.136775
C40   C     C_1   0.366425 0.659319 0.338681 0.108783
C41   C     C_1   0.349361 0.620982 0.376235 -0.133915
C42   C     C_1   0.475650 0.879148 0.123866 -0.075311
C43   C     C_R   0.471075 0.162023 0.088569 -0.179047
C44   C     C_R   0.350734 0.338111 0.411449 -0.145245
C45   C     C_R   0.514677 0.278359 0.094386 -0.175935
C46   C     C_R   0.510203 0.221515 0.063353 0.380340
C47   C     C_R   0.433717 0.160386 0.144951 -0.195169
C48   C     C_R   0.428374 0.218281 0.177109 0.152462
C49   C     C_R   0.477406 0.277151 0.150656 0.055468
C50   C     C_R   0.383159 0.219959 0.234557 -0.149604
C51   C     C_R   0.408693 0.279263 0.265035 0.017688
C52   C     C_R   0.463987 0.335565 0.236411 -0.103948
C53   C     C_R   0.493095 0.334637 0.180466 -0.158171
C54   C     C_R   0.306749 0.165703 0.262369 0.504062
C55   C     C_R   0.275535 0.167195 0.318371 0.649796
C56   C     C_R   0.308965 0.223544 0.349162 -0.268082
C57   C     C_R   0.373262 0.280928 0.322869 -0.057680
C58   C     C_R   0.271357 0.224047 0.405782 0.768789
C59   C     C_R   0.290185 0.280949 0.436115 -0.238048
C60   C     C_R   0.395095 0.338048 0.355573 -0.147533
H11   H     H_    0.532325 0.379540 0.160399 0.138287
H12   H     H_    0.440339 0.383818 0.338954 0.102670
H13   H     H_    0.254103 0.280694 0.479112 0.164667
H14   H     H_    0.549617 0.323752 0.074445 0.171852
H15   H     H_    0.420459 0.112782 0.162534 0.209120
H16   H     H_    0.483132 0.382085 0.255805 0.114533
O11   O     O_R   0.323320 0.942780 0.056240 -0.530531
O12   O     O_R   0.647300 0.077050 0.046060 -0.532821
O13   O     O_R   0.813840 0.057330 0.943840 -0.525585
C61   C     C_R   0.478477 0.101039 0.056690 0.775009
O14   O     O_R   0.653250 0.944380 0.062400 -0.532698
O15   O     O_R   0.819830 0.923720 0.960300 -0.534305
C62   C     C_R   0.485222 0.924394 0.078240 0.725151
O16   O     O_R   0.317330 0.076390 0.039790 -0.534765
O17   O     O_3   0.483830 0.993470 0.966560 -0.369930
V3    V     V_3+5 0.760140 0.001210 0.006210 1.586679
O18   O     O_R   0.149290 0.922840 0.953850 -0.534962
C63   C     C_R   0.980924 0.899002 0.943220 0.789392
O19   O     O_R   0.143340 0.055500 0.937510 -0.533729
C64   C     C_R   0.973680 0.075564 0.921847 0.717102
V4    V     V_3+5 0.259690 0.998600 0.993650 1.583181
O20   O     O_3   0.986130 0.006520 0.033440 -0.370391
F1    F     F_    0.613472 0.235536 0.821221 -0.583065
Cl1   Cl    Cl    0.262478 0.266044 0.668338 -0.549046
F2    F     F_    0.248523 0.177760 0.763481 -0.576446
Cl2   Cl    Cl    0.752059 0.730190 0.338314 -0.576568
Cl3   Cl    Cl    0.803651 0.831208 0.241381 -0.528215
F3    F     F_    0.203958 0.112897 0.342063 -0.523665
Cl4   Cl    Cl    0.559391 0.226145 0.992956 -0.569918
F4    F     F_    0.244565 0.111779 0.235943 -0.633790
F5    F     F_    0.210934 0.169919 0.432071 -0.571222
Cl5   Cl    Cl    0.070238 0.646590 0.943392 -0.514422
Cl6   Cl    Cl    0.054758 0.777115 0.010002 -0.561220
F6    F     F_    0.741508 0.887086 0.764860 -0.680776

loop_
_geom_bond_atom_site_label_1
_geom_bond_atom_site_label_2
_ccdc_geom_bond_type
C24   C29   S    
C13   C19   A    
C43   C61   S    
O18   V4    S    
C35   H9    S    
O19   C64   A    
C51   C52   A    
C4    C6    S    
O2    C1    A    
C7    C8    A    
C50   C54   A    
C53   H11   S    
C57   C60   A    
O17   V3    S    
C33   C34   A    
C25   Cl1   S    
C31   C64   S    
C1    C41   S    
C14   C15   A    
C40   C41   T    
C16   C17   A    
O5    C3    A    
C18   C19   A    
C56   C58   A    
C36   C37   A    
O15   V3    S    
V2    O10   S    
C61   O16   A    
C5    C8    A    
C16   F6    S    
C26   C27   A    
O8    V2    S    
O18   C63   A    
V3    O20   S    
C37   C40   S    
C17   H4    S    
C20   H7    S    
C48   C49   A    
O1    V2    S    
C11   C15   A    
C6    C21   A    
O7    V1    S    
C22   H2    S    
C38   Cl2   S    
C1    O6    A    
C29   C32   T    
C37   C38   A    
O14   C62   A    
O9    C4    A    
O11   V4    S    
C47   C48   A    
C23   C24   A    
C3    C32   S    
C33   C38   A    
C27   C30   S    
C49   C53   A    
C52   C53   A    
C45   C46   A    
C27   C28   A    
C12   C13   A    
O4    C2    A    
C56   C57   A    
C58   C59   A    
C7    Cl5   S    
C15   H1    S    
C13   C14   A    
C55   C56   A    
C21   H3    S    
C46   Cl4   S    
O11   C62   A    
C39   C42   T    
C7    C11   A    
C17   C18   A    
C44   C60   A    
O12   C61   A    
C28   F1    S    
C9    H5    S    
O15   C63   A    
C54   F4    S    
C43   C46   A    
C26   F2    S    
C30   C31   T    
C51   C57   A    
C19   C22   A    
C23   C28   A    
C54   C55   A    
C6    C22   A    
O17   V4    S    
O3    C4    A    
O6    V2    S    
C60   H12   S    
C35   C36   A    
C10   C12   A    
C23   H8    S    
O13   C64   A    
O2    V1    S    
C24   C25   A    
C33   Cl3   S    
C34   C35   A    
C45   H14   S    
O1    C2    A    
C12   C16   A    
C42   C62   S    
C50   C51   A    
C47   H15   S    
O5    V1    S    
C8    Cl6   S    
O8    C3    A    
C34   C39   S    
C20   C21   A    
O9    V2    S    
O7    V2    S    
O4    V1    S    
O3    V1    S    
V1    O10   S    
C44   C59   A    
C18   C20   A    
C14   H6    S    
C36   H10   S    
C43   C47   A    
C45   C49   A    
O13   V3    S    
C55   F3    S    
C5    C63   S    
C5    C9    A    
C25   C26   A    
C58   F5    S    
O19   V4    S    
O16   V4    S    
V4    O20   S    
C10   C11   A    
C48   C50   A    
C52   H16   S    
C9    C10   A    
O14   V3    S    
O12   V3    S    
C59   H13   S    
C2    C44   S    
