data_mof_unit_49608.cif
_audit_creation_date              2012-12-10T20:27:16-0500
_audit_creation_method            fapswitch 2.2
_symmetry_space_group_name_H-M    P1
_symmetry_Int_Tables_number       1
_space_group_crystal_system       triclinic
_cell_length_a                    10.771258
_cell_length_b                    10.65784
_cell_length_c                    9.885681
_cell_angle_alpha                 88.857952
_cell_angle_beta                  104.742875
_cell_angle_gamma                 90.671164
_cell_volume                      1097.25359366

loop_
_atom_site_label
_atom_site_type_symbol
_atom_type_description
_atom_site_fract_x
_atom_site_fract_y
_atom_site_fract_z
_atom_type_partial_charge
C1    C     C_R   0.498231 0.260129 0.500352 0.928896
C2    C     C_R   0.603961 0.540836 0.099654 -0.077971
C3    C     C_R   0.604182 0.540324 0.955989 -0.082709
C4    C     C_R   0.258331 0.507694 0.440512 0.866163
C5    C     C_R   0.390724 0.471390 0.899439 0.144402
C6    C     C_3   0.318318 0.350783 0.876331 -0.405496
C7    C     C_3   0.321327 0.347495 0.030377 -0.460332
C8    C     C_R   0.501435 0.739459 0.498876 0.875430
C9    C     C_R   0.741292 0.503793 0.559182 0.935488
C10   C     C_2   0.121264 0.534907 0.405274 0.321366
C11   C     C_2   0.068045 0.548218 0.513339 -0.247748
C12   C     C_R   0.496841 0.127813 0.497991 -0.166588
C13   C     C_2   0.878927 0.516835 0.594467 -0.351101
C14   C     C_2   0.932168 0.561524 0.495752 -0.065192
C15   C     C_R   0.395998 0.060166 0.529411 0.116721
C16   C     C_R   0.584769 0.067595 0.438518 -0.166102
C17   C     C_R   0.584495 0.937799 0.434778 -0.192120
C18   C     C_R   0.497124 0.870890 0.491938 -0.073891
C19   C     C_R   0.398305 0.931969 0.529090 0.086449
C20   C     C_3   0.346943 0.916993 0.654825 -0.574303
C21   C     C_3   0.341805 0.059638 0.654475 0.226308
C22   C     C_R   0.391311 0.469741 0.042043 0.263813
H1    H     H_    0.872824 0.596242 0.396949 0.224918
H2    H     H_    0.418841 0.877496 0.746726 0.198661
H3    H     H_    0.220113 0.363315 0.807450 0.251698
H4    H     H_    0.381282 0.270474 0.089917 0.216284
H5    H     H_    0.124554 0.537391 0.620963 0.162762
H6    H     H_    0.936060 0.484393 0.696024 0.168704
H7    H     H_    0.070825 0.561472 0.022874 0.370275
H8    H     H_    0.130260 0.021616 0.784175 0.357470
H9    H     H_    0.407779 0.101159 0.747772 0.083658
H10   H     H_    0.688621 0.572432 0.176003 0.189644
H11   H     H_    0.689130 0.570886 0.924923 0.178418
H12   H     H_    0.375502 0.275558 0.846835 0.220218
H13   H     H_    0.224578 0.354868 0.049504 0.257247
H14   H     H_    0.656622 0.120371 0.401491 0.184990
H15   H     H_    0.656396 0.890104 0.395859 0.169613
H16   H     H_    0.252230 0.868345 0.630624 0.236956
N1    N     N_R   0.499160 0.499140 0.142600 -0.122803
N2    N     N_R   0.499160 0.499180 0.856960 -0.116394
O1    O     O_R   0.500020 0.316790 0.614700 -0.608773
O2    O     O_2   0.965459 0.680310 0.210195 -0.323741
O3    O     O_3   0.129445 0.554979 0.117836 -0.558939
O4    O     O_2   0.181518 0.252568 0.562476 -0.301951
O5    O     O_2   0.095753 0.043047 0.496948 -0.254032
O6    O     O_3   0.122934 0.111049 0.754117 -0.528461
O7    O     O_R   0.500000 0.316760 0.385350 -0.612315
O8    O     O_R   0.317820 0.500020 0.571850 -0.631284
O9    O     O_R   0.317800 0.499980 0.342510 -0.545314
O10   O     O_R   0.500000 0.683240 0.614650 -0.623321
O11   O     O_R   0.499980 0.683210 0.385300 -0.615139
O12   O     O_R   0.682200 0.500020 0.657490 -0.613565
O13   O     O_R   0.682180 0.499980 0.428150 -0.619036
O14   O     O_2   0.935324 0.452511 0.189920 -0.306626
S1    S     S_3+6 0.033160 0.556208 0.227438 0.008769
S2    S     S_3+6 0.180944 0.118474 0.611549 0.025871
Zn1   Zn    Zn3+2 0.500010 0.500020 0.653140 0.969900
Zn2   Zn    Zn3+2 0.499990 0.499980 0.346860 1.004151

loop_
_geom_bond_atom_site_label_1
_geom_bond_atom_site_label_2
_ccdc_geom_bond_type
C14   H1    S    
C21   S2    S    
O13   Zn2   S    
C13   H6    S    
C6    C7    S    
C8    O10   A    
O2    S1    D    
O9    Zn2   S    
C7    C22   S    
C20   H16   S    
O4    S2    D    
C19   C20   S    
C12   C15   A    
C11   H5    S    
C4    O9    A    
C2    C3    A    
O1    Zn1   S    
O8    Zn1   S    
O11   Zn2   S    
C17   H15   S    
C13   C14   D    
C16   H14   S    
O7    Zn2   S    
C15   C19   A    
C10   S1    S    
C21   H9    S    
C8    O11   A    
C9    O12   A    
C7    H4    S    
C12   C16   A    
C22   N1    A    
H7    O3    S    
C1    O1    A    
C3    N2    A    
C17   C18   A    
C5    C6    S    
C11   C14   S    
C8    C18   S    
C6    H3    S    
C9    O13   A    
C10   C11   D    
C3    H11   S    
C4    C10   S    
O12   Zn1   S    
C20   H2    S    
C15   C21   S    
C20   C21   S    
C2    H10   S    
C18   C19   A    
C4    O8    A    
C5    N2    A    
O3    S1    S    
C9    C13   S    
O14   S1    D    
C1    O7    A    
N2    Zn1   S    
O10   Zn1   S    
C7    H13   S    
C2    N1    A    
H8    O6    S    
C1    C12   S    
C5    C22   A    
C6    H12   S    
O5    S2    D    
N1    Zn2   S    
C16   C17   A    
O6    S2    S    
