data_mof_unit_30669.cif
_audit_creation_date              2012-12-11T20:55:19-0500
_audit_creation_method            fapswitch 2.2
_symmetry_space_group_name_H-M    P1
_symmetry_Int_Tables_number       1
_space_group_crystal_system       triclinic
_cell_length_a                    8.280527
_cell_length_b                    19.106182
_cell_length_c                    22.765992
_cell_angle_alpha                 99.728622
_cell_angle_beta                  89.988684
_cell_angle_gamma                 91.864471
_cell_volume                      3548.06315599

loop_
_atom_site_label
_atom_site_type_symbol
_atom_type_description
_atom_site_fract_x
_atom_site_fract_y
_atom_site_fract_z
_atom_type_partial_charge
Ba1   Ba    Ba6+2 0.157290 0.533910 0.474710 1.702101
Ba2   Ba    Ba6+2 0.652900 0.466090 0.525240 1.678881
C1    C     C_3   0.350428 0.749066 0.267599 -0.270396
C2    C     C_3   0.416453 0.724356 0.322716 0.297157
C3    C     C_3   0.541721 0.689300 0.658517 0.636803
C4    C     C_3   0.617309 0.718296 0.719385 0.172817
C5    C     C_3   0.889058 0.283213 0.650074 0.360897
C6    C     C_3   0.881994 0.211115 0.670111 -0.353697
C7    C     C_3   0.390260 0.289294 0.678834 0.308097
C8    C     C_3   0.456073 0.272737 0.737079 -0.350503
C9    C     C_R   0.955107 0.197663 0.470133 -0.150475
C10   C     C_R   0.989231 0.271938 0.479508 0.052704
C11   C     C_R   0.138887 0.187568 0.550219 -0.157059
C12   C     C_3   0.907343 0.720889 0.342541 0.390787
C13   C     C_R   0.205483 0.254406 0.544858 -0.002780
C14   C     C_R   0.675332 0.811053 0.447958 -0.176416
C15   C     C_R   0.607353 0.744444 0.453679 -0.002265
C16   C     C_R   0.857753 0.801699 0.528603 -0.097025
C17   C     C_R   0.821229 0.727734 0.520361 0.054477
C18   C     C_R   0.020609 0.153580 0.509063 0.001625
C19   C     C_R   0.120012 0.298728 0.515077 -0.244561
C20   C     C_R   0.793475 0.845245 0.489093 0.013369
C21   C     C_R   0.689084 0.701062 0.485597 -0.175409
C22   C     C_R   0.229389 0.034000 0.538743 -0.083430
C23   C     C_3   0.931947 0.791465 0.320671 -0.344091
C24   C     C_R   0.322559 0.981823 0.556044 -0.074966
C25   C     C_R   0.276605 0.911504 0.538442 -0.040169
C26   C     C_R   0.131556 0.894652 0.508065 -0.086548
C27   C     C_R   0.014547 0.946065 0.506322 0.012893
C28   C     C_R   0.068425 0.019573 0.517637 0.042658
C29   C     C_R   0.851124 0.924075 0.490801 -0.012137
C30   C     C_R   0.745998 0.979153 0.480344 0.045337
C31   C     C_R   0.799980 0.052620 0.491665 0.013506
C32   C     C_R   0.963359 0.074625 0.507085 -0.014806
C33   C     C_R   0.584676 0.964863 0.459552 -0.075511
C34   C     C_3   0.820975 0.375247 0.342103 0.293762
C35   C     C_R   0.491393 0.017166 0.442463 -0.081787
C36   C     C_R   0.537588 0.087450 0.460210 -0.064357
C37   C     C_R   0.682952 0.104049 0.490332 -0.076605
C38   C     C_R   0.644073 0.524223 0.334122 -0.346677
C39   C     C_R   0.346221 0.562558 0.948588 -0.085876
C40   C     C_R   0.301137 0.557949 0.888235 0.612061
C41   C     C_R   0.255626 0.431820 0.879237 0.588519
C42   C     C_R   0.305220 0.434298 0.938891 -0.007098
C43   C     C_R   0.350308 0.500293 0.973854 -0.050145
C44   C     C_R   0.387698 0.628097 0.983993 -0.064619
C45   C     C_3   0.815659 0.356328 0.274464 -0.344961
C46   C     C_R   0.432927 0.632802 0.043698 0.409874
C47   C     C_R   0.440252 0.570349 0.069858 -0.094265
C48   C     C_R   0.399618 0.503921 0.034188 -0.099955
C49   C     C_R   0.311797 0.372269 0.964201 -0.072283
C50   C     C_R   0.363735 0.375404 0.022877 -0.060635
C51   C     C_R   0.408116 0.440804 0.058456 -0.007924
C52   C     C_R   0.461804 0.444219 0.117635 0.595851
C53   C     C_R   0.486270 0.571531 0.130104 0.702257
C54   C     C_2   0.061796 0.474998 0.772545 -0.058078
C55   C     C_3   0.018677 0.481002 0.708830 -0.048305
C56   C     C_3   0.998831 0.630860 0.660062 0.305086
C57   C     C_1   0.301536 0.506944 0.692742 0.009865
C58   C     C_2   0.342975 0.505272 0.748660 -0.116070
C59   C     C_2   0.216065 0.489460 0.792046 0.221648
C60   C     C_R   0.705393 0.543881 0.233290 0.367317
C61   C     C_R   0.749909 0.550206 0.294348 -0.115442
C62   C     C_R   0.500694 0.487626 0.314139 0.043183
C63   C     C_R   0.453977 0.482857 0.254515 -0.152742
C64   C     C_R   0.553379 0.512081 0.214009 0.218119
C65   C     C_2   0.167430 0.474601 0.669972 -0.286873
C66   C     C_3   0.059161 0.662042 0.722659 -0.316567
C67   C     C_3   0.320205 0.317205 0.393913 0.314067
C68   C     C_3   0.317535 0.236718 0.376660 -0.371896
H1    H     H_    0.433673 0.666000 0.312569 0.026619
H2    H     H_    0.731956 0.309850 0.260644 0.141758
H3    H     H_    0.772908 0.401592 0.254771 0.067217
H4    H     H_    0.938367 0.343218 0.257134 0.131479
H5    H     H_    0.100573 0.605859 0.633799 0.035565
H6    H     H_    0.901741 0.590230 0.662813 0.042540
H7    H     H_    0.146404 0.706959 0.720786 0.165663
H8    H     H_    0.119663 0.621546 0.743427 0.073599
H9    H     H_    0.957450 0.682280 0.751491 0.166269
H10   H     H_    0.196549 0.334503 0.405032 -0.001802
H11   H     H_    0.400571 0.332476 0.433312 0.081168
H12   H     H_    0.241419 0.716727 0.250570 0.162471
H13   H     H_    0.234224 0.219593 0.338334 0.129412
H14   H     H_    0.275739 0.211642 0.414685 0.056600
H15   H     H_    0.440922 0.218573 0.364224 0.130161
H16   H     H_    0.534307 0.752788 0.332999 -0.038794
H17   H     H_    0.443479 0.743631 0.232234 0.169395
H18   H     H_    0.629862 0.658669 0.628840 0.010452
H19   H     H_    0.730457 0.748936 0.713329 0.097335
H20   H     H_    0.533838 0.755443 0.746368 0.087568
H21   H     H_    0.319677 0.805925 0.278307 0.099976
H22   H     H_    0.905608 0.784570 0.272164 0.145501
H23   H     H_    0.797938 0.282268 0.614071 0.094108
H24   H     H_    0.011331 0.293038 0.633242 -0.060938
H25   H     H_    0.893679 0.168058 0.631219 0.071037
H26   H     H_    0.981387 0.208012 0.702222 0.121042
H27   H     H_    0.764513 0.202926 0.691815 0.142739
H28   H     H_    0.266467 0.264993 0.672203 -0.023314
H29   H     H_    0.385380 0.348021 0.682450 0.040287
H30   H     H_    0.371437 0.290871 0.773746 0.141767
H31   H     H_    0.575118 0.300396 0.747527 0.156620
H32   H     H_    0.944551 0.728078 0.390171 0.038472
H33   H     H_    0.469673 0.214565 0.733769 0.114328
H34   H     H_    0.871653 0.175900 0.434736 0.077545
H35   H     H_    0.178888 0.164350 0.587472 0.064677
H36   H     H_    0.634501 0.834749 0.411220 0.056051
H37   H     H_    0.941757 0.823604 0.563770 0.086956
H38   H     H_    0.161884 0.353229 0.516560 0.058553
H39   H     H_    0.644180 0.647320 0.485976 0.067961
H40   H     H_    0.294542 0.082866 0.538696 0.075407
H41   H     H_    0.441196 0.995442 0.575498 0.091182
H42   H     H_    0.359263 0.870730 0.544655 0.155500
H43   H     H_    0.777320 0.704906 0.337960 -0.098820
H44   H     H_    0.109388 0.841028 0.486180 0.117702
H45   H     H_    0.519321 0.916086 0.459844 0.072240
H46   H     H_    0.372489 0.003669 0.423210 0.080296
H47   H     H_    0.455042 0.128435 0.454489 0.098327
H48   H     H_    0.705303 0.157465 0.512513 0.126218
H49   H     H_    0.368452 0.326209 0.040411 0.126805
H50   H     H_    0.278346 0.320833 0.938463 0.123028
H51   H     H_    0.384786 0.676563 0.965267 0.165510
H52   H     H_    0.850437 0.831492 0.344426 0.063226
H53   H     H_    0.466488 0.517534 0.763777 0.109824
H54   H     H_    0.966962 0.465853 0.803578 0.092675
H55   H     H_    0.340593 0.456010 0.239396 0.127147
H56   H     H_    0.679023 0.528057 0.380378 0.089099
H57   H     H_    0.162572 0.447710 0.623957 0.062501
H58   H     H_    0.058225 0.811734 0.329132 0.133508
H59   H     H_    0.697791 0.387357 0.358567 0.012004
H60   H     H_    0.903170 0.422489 0.354758 0.062611
N1    N     N_R   0.257339 0.493034 0.854347 -0.427764
N2    N     N_R   0.499937 0.509050 0.152752 -0.420501
O1    O     O_2   0.108070 0.674980 0.540650 -0.410476
O2    O     O_3   0.375729 0.347317 0.345511 -0.626930
O3    O     O_3   0.002397 0.670091 0.308273 -0.583966
O4    O     O_2   0.702240 0.324970 0.459330 -0.460995
O5    O     O_3   0.948380 0.413820 0.464520 -0.495241
O6    O     O_3   0.443920 0.371740 0.566130 -0.465709
O7    O     O_3   0.876781 0.316970 0.364966 -0.630889
O8    O     O_3   0.358830 0.538360 0.571050 -0.451591
O9    O     O_3   0.852160 0.408490 0.597560 -0.492376
O10   O     O_2   0.686272 0.445034 0.697349 -0.471803
O11   O     O_3   0.857685 0.335821 0.698971 -0.596575
O12   O     O_3   0.861930 0.586170 0.535430 -0.501086
O13   O     O_3   0.451480 0.461630 0.428900 -0.496113
O14   O     O_2   0.599240 0.538720 0.642170 -0.464567
O15   O     O_3   0.398265 0.651041 0.666888 -0.646575
O16   O     O_2   0.526531 0.247536 0.516357 -0.506957
O17   O     O_3   0.491630 0.260543 0.632065 -0.596090
O18   O     O_2   0.299716 0.611779 0.865866 -0.593042
O19   O     O_2   0.211873 0.375181 0.849307 -0.606290
O20   O     O_2   0.476096 0.389369 0.137828 -0.590314
O21   O     O_2   0.513362 0.628089 0.162864 -0.533244
O22   O     O_3   0.366390 0.628250 0.433820 -0.454026
O23   O     O_2   0.290748 0.751647 0.486281 -0.454731
O24   O     O_3   0.935887 0.685870 0.634791 -0.636263
O25   O     O_3   0.308630 0.741277 0.370303 -0.589565
O26   O     O_2   0.211060 0.461230 0.357810 -0.457323
O27   O     O_3   0.958150 0.591500 0.402390 -0.486789
O28   O     O_2   0.084544 0.539189 0.296806 -0.475628
P1    P     P_3+3 0.933470 0.664380 0.557030 1.015279
P2    P     P_3+3 0.383600 0.440030 0.365120 0.998300
P3    P     P_3+3 0.947903 0.586630 0.325025 0.964106
P4    P     P_3+3 0.876840 0.335610 0.442930 0.980177
P5    P     P_3+3 0.853702 0.418455 0.675573 0.981853
P6    P     P_3+3 0.396274 0.718316 0.434019 0.983314
P7    P     P_3+3 0.416063 0.558842 0.645763 0.981786
P8    P     P_3+3 0.414399 0.281738 0.566164 0.923382
Cl1   Cl    Cl    0.490738 0.762070 0.623205 -0.757051
O29   O     O_3   0.653518 0.662455 0.749512 -0.750706
H61   H     H_    0.553621 0.650637 0.770405 0.324302
Cl2   Cl    Cl    0.481526 0.719243 0.082027 -0.597013
O30   O     O_3   0.805585 0.566049 0.190959 -0.692261
H62   H     H_    0.906981 0.587469 0.209672 0.323605

loop_
_geom_bond_atom_site_label_1
_geom_bond_atom_site_label_2
_ccdc_geom_bond_type
O26   P2    D    
O14   P7    D    
C67   O2    S    
C3    O15   S    
O12   P1    S    
Ba2   O12   S    
C39   C40   A    
Ba1   O13   S    
C6    H26   S    
C12   H43   S    
C6    H27   S    
C5    O11   S    
C56   H6    S    
C5    C6    S    
C35   H46   S    
O30   H62   S    
C42   C43   A    
Ba2   O13   S    
C61   P3    S    
C6    H25   S    
C7    O17   S    
C24   C25   A    
C31   C37   A    
C38   C61   A    
C54   H54   S    
C1    H21   S    
C26   C27   A    
C33   C35   A    
C23   H58   S    
C22   C24   A    
Ba1   Ba2   S    
C34   H60   S    
C15   P6    S    
C4    O29   S    
C3    C4    S    
Ba1   O5    S    
C12   H32   S    
C2    H16   S    
O29   H61   S    
O23   P6    D    
C54   C55   S    
C34   C45   S    
O6    P8    S    
C16   C17   A    
C17   P1    S    
C47   C48   A    
C16   H37   S    
O11   P5    S    
C57   C65   D    
C46   Cl2   S    
C3    H18   S    
C2    O25   S    
C14   C15   A    
C39   C44   A    
C44   H51   S    
C33   H45   S    
C9    H34   S    
C27   C28   A    
C68   H14   S    
C23   H52   S    
C14   H36   S    
C18   C32   S    
O8    P7    S    
Ba1   P1    S    
C57   C58   D    
C7    H29   S    
C36   H47   S    
Ba1   O22   S    
O17   P8    S    
C55   C65   S    
Ba1   O1    S    
C56   H5    S    
C31   C32   A    
C64   N2    S    
C66   H8    S    
C5    H23   S    
C44   C46   A    
C9    C18   A    
C48   C51   A    
C20   C29   S    
C60   C64   A    
C1    H17   S    
C49   C50   A    
Ba2   O6    S    
O28   P3    D    
Ba1   O27   S    
C22   H40   S    
C45   H3    S    
C62   P2    S    
Ba2   P4    S    
C28   C32   A    
C52   O20   D    
C51   C52   A    
C60   O30   S    
C10   C19   A    
Ba2   O4    S    
O2    P2    S    
C58   C59   S    
C63   H55   S    
C35   C36   A    
C58   H53   S    
C17   C21   A    
C41   C42   A    
C30   C33   A    
C7    H28   S    
C60   C61   A    
C65   H57   S    
C10   P4    S    
C29   C30   A    
C38   H56   S    
C1    H12   S    
C49   H50   S    
C15   C21   A    
C39   C43   A    
C8    H30   S    
C68   H13   S    
C8    H33   S    
C40   N1    Am   
Ba1   O8    S    
O15   P7    S    
C42   C49   A    
C11   H35   S    
C46   C47   A    
C25   H42   S    
C63   C64   A    
C11   C13   A    
O16   P8    D    
O27   P3    S    
C13   P8    S    
C1    C2    S    
C37   H48   S    
C41   O19   D    
C50   C51   A    
C7    C8    S    
C56   C66   S    
C66   H7    S    
C53   O21   D    
C5    H24   S    
Ba1   O26   S    
C23   H22   S    
C14   C20   A    
C11   C18   A    
O4    P4    D    
C16   C20   A    
Ba2   O5    S    
O3    P3    S    
C8    H31   S    
C45   H4    S    
C67   H10   S    
O1    P1    D    
O25   P6    S    
O24   P1    S    
O5    P4    S    
C9    C10   A    
Ba2   O14   S    
C4    H19   S    
C52   N2    Am   
O7    P4    S    
O9    P5    S    
C38   C62   A    
Ba2   O8    S    
C62   C63   A    
C41   N1    Am   
C27   C29   A    
Ba1   O12   S    
C47   C53   A    
C34   H59   S    
C30   C31   A    
O10   P5    D    
C36   C37   A    
C43   C48   A    
C66   H9    S    
C26   H44   S    
C57   P7    S    
C12   C23   S    
C67   C68   S    
C40   O18   D    
C34   O7    S    
C22   C28   A    
C45   H2    S    
C19   H38   S    
C67   H11   S    
Ba1   P2    S    
C59   N1    S    
C56   O24   S    
C50   H49   S    
C13   C19   A    
C4    H20   S    
C53   N2    Am   
O13   P2    S    
C25   C26   A    
Ba2   O9    S    
C3    Cl1   S    
C54   C59   D    
O22   P6    S    
C55   P5    S    
C68   H15   S    
C24   H41   S    
C2    H1    S    
C12   O3    S    
C21   H39   S    
