data_mof_unit_63864.cif
_audit_creation_date              2012-12-10T18:08:37-0500
_audit_creation_method            fapswitch 2.2
_symmetry_space_group_name_H-M    P1
_symmetry_Int_Tables_number       1
_space_group_crystal_system       triclinic
_cell_length_a                    18.375752
_cell_length_b                    18.37575
_cell_length_c                    51.355789
_cell_angle_alpha                 90.000015
_cell_angle_beta                  90.000016
_cell_angle_gamma                 90.0
_cell_volume                      17341.2181056

loop_
_atom_site_label
_atom_site_type_symbol
_atom_type_description
_atom_site_fract_x
_atom_site_fract_y
_atom_site_fract_z
_atom_type_partial_charge
C1    C     C_R   0.000000 0.500000 0.820230 0.796080
C2    C     C_R   0.934047 0.499989 0.362962 -0.211182
C3    C     C_R   0.196379 0.696379 0.750000 0.003896
C4    C     C_R   0.303621 0.196379 0.250000 0.003895
C5    C     C_R   0.696379 0.803621 0.750000 0.003895
C6    C     C_R   0.196379 0.696379 0.250000 0.003896
C7    C     C_R   0.803621 0.303621 0.750000 0.003896
C8    C     C_R   0.473237 0.059241 0.945113 0.504863
C9    C     C_R   0.526763 0.940759 0.054887 0.504863
C10   C     C_R   0.940754 0.473249 0.945113 0.504865
C11   C     C_R   0.059245 0.526751 0.054887 0.504864
C12   C     C_R   0.526763 0.940759 0.945113 0.504863
C13   C     C_R   0.499993 0.934047 0.637038 -0.211179
C14   C     C_R   0.473237 0.059241 0.054887 0.504863
C15   C     C_R   0.059245 0.526751 0.945113 0.504864
C16   C     C_R   0.940754 0.473249 0.054887 0.504865
C17   C     C_R   0.973213 0.559230 0.445113 0.504863
C18   C     C_R   0.026787 0.440770 0.554887 0.504863
C19   C     C_R   0.440760 0.973235 0.445113 0.504864
C20   C     C_R   0.559240 0.026764 0.554887 0.504865
C21   C     C_R   0.026787 0.440770 0.445113 0.504864
C22   C     C_R   0.973213 0.559230 0.554887 0.504864
C23   C     C_R   0.559240 0.026764 0.445113 0.504865
C24   C     C_R   0.500005 0.065953 0.362962 -0.211179
C25   C     C_R   0.440760 0.973236 0.554887 0.504864
C26   C     C_R   0.527453 0.939617 0.972488 -0.018392
C27   C     C_R   0.472547 0.060382 0.027512 -0.018392
C28   C     C_R   0.060387 0.527441 0.972488 -0.018394
C29   C     C_R   0.939613 0.472559 0.027511 -0.018393
C30   C     C_R   0.472547 0.060382 0.972488 -0.018391
C31   C     C_R   0.527453 0.939617 0.027511 -0.018391
C32   C     C_R   0.939613 0.472558 0.972488 -0.018394
C33   C     C_R   0.060387 0.527442 0.027512 -0.018393
C34   C     C_R   0.027478 0.439629 0.472488 -0.018390
C35   C     C_R   0.065953 0.500010 0.637038 -0.211182
C36   C     C_R   0.972522 0.560371 0.527511 -0.018390
C37   C     C_R   0.560381 0.027455 0.472488 -0.018391
C38   C     C_R   0.439619 0.972545 0.527511 -0.018392
C39   C     C_R   0.972522 0.560371 0.472488 -0.018391
C40   C     C_R   0.027478 0.439629 0.527511 -0.018391
C41   C     C_R   0.439619 0.972545 0.472488 -0.018392
C42   C     C_R   0.560381 0.027455 0.527511 -0.018391
C43   C     C_R   0.500000 1.000000 0.986228 -0.018449
C44   C     C_R   0.500000 1.000000 0.013772 -0.018450
C45   C     C_R   1.000000 0.500000 0.986228 -0.018446
C46   C     C_R   0.065953 0.500011 0.362962 -0.211182
C47   C     C_R   1.000000 0.500000 0.013772 -0.018446
C48   C     C_R   1.000000 0.500000 0.486228 -0.018448
C49   C     C_R   0.000000 0.500000 0.513772 -0.018448
C50   C     C_R   0.500000 1.000000 0.486228 -0.018448
C51   C     C_R   0.500000 1.000000 0.513772 -0.018448
C52   C     C_R   0.554668 0.879631 0.986401 -0.155327
C53   C     C_R   0.445332 0.120368 0.013598 -0.155327
C54   C     C_R   0.120378 0.554645 0.986401 -0.155328
C55   C     C_R   0.879622 0.445355 0.013598 -0.155329
C56   C     C_R   0.445332 0.120368 0.986401 -0.155326
C57   C     C_R   0.500007 0.065953 0.637038 -0.211180
C58   C     C_R   0.554668 0.879632 0.013598 -0.155326
C59   C     C_R   0.879622 0.445355 0.986401 -0.155329
C60   C     C_R   0.120378 0.554645 0.013598 -0.155329
C61   C     C_R   0.054718 0.379655 0.486401 -0.155329
C62   C     C_R   0.945282 0.620345 0.513598 -0.155329
C63   C     C_R   0.620366 0.054672 0.486401 -0.155328
C64   C     C_R   0.379634 0.945328 0.513598 -0.155328
C65   C     C_R   0.945282 0.620345 0.486401 -0.155329
C66   C     C_R   0.054718 0.379655 0.513598 -0.155329
C67   C     C_R   0.379634 0.945328 0.486401 -0.155328
C68   C     C_R   0.499995 0.934047 0.362962 -0.211179
C69   C     C_R   0.620366 0.054672 0.513598 -0.155328
C70   C     C_R   0.934114 0.499990 0.609827 -0.104245
C71   C     C_R   0.934114 0.499990 0.390173 -0.104245
C72   C     C_R   0.499993 0.934114 0.609827 -0.104248
C73   C     C_R   0.500006 0.065886 0.390173 -0.104248
C74   C     C_R   0.065886 0.500010 0.609827 -0.104245
C75   C     C_R   0.065886 0.500010 0.390173 -0.104245
C76   C     C_R   0.500007 0.065886 0.609827 -0.104248
C77   C     C_R   0.499994 0.934113 0.390173 -0.104248
C78   C     C_R   0.434114 0.000008 0.109827 -0.104248
C79   C     C_R   0.434047 0.000008 0.137038 -0.211179
C80   C     C_R   0.434114 0.000008 0.890173 -0.104248
C81   C     C_R   0.000018 0.565886 0.109827 -0.104248
C82   C     C_R   0.000017 0.565886 0.890173 -0.104249
C83   C     C_R   0.565886 0.999992 0.109827 -0.104248
C84   C     C_R   0.565886 0.999992 0.890173 -0.104248
C85   C     C_R   0.999982 0.434114 0.109827 -0.104248
C86   C     C_R   0.999983 0.434114 0.890173 -0.104249
C87   C     C_R   0.434047 0.000008 0.862962 -0.211179
C88   C     C_R   0.000017 0.565953 0.137038 -0.211179
C89   C     C_R   0.000000 0.500000 0.179770 0.796080
C90   C     C_R   0.000016 0.565953 0.862962 -0.211178
C91   C     C_R   0.565953 0.999992 0.137038 -0.211179
C92   C     C_R   0.565953 0.999992 0.862962 -0.211179
C93   C     C_R   0.999983 0.434047 0.137038 -0.211179
C94   C     C_R   0.999984 0.434047 0.862962 -0.211178
C95   C     C_R   1.000000 0.500000 0.650948 -0.015148
C96   C     C_R   0.000000 0.500000 0.349052 -0.015148
C97   C     C_R   0.500000 1.000000 0.650948 -0.015148
C98   C     C_R   0.500000 0.000000 0.349052 -0.015149
C99   C     C_R   0.500000 1.000000 0.150948 -0.015148
C100  C     C_R   0.500000 1.000000 0.820230 0.796080
C101  C     C_R   0.500000 1.000000 0.849051 -0.015148
C102  C     C_R   0.000000 0.500000 0.150948 -0.015148
C103  C     C_R   0.000000 0.500000 0.849052 -0.015149
C104  C     C_R   1.000000 0.500000 0.596060 0.309903
C105  C     C_R   0.000000 0.500000 0.403940 0.309903
C106  C     C_R   0.500000 1.000000 0.596060 0.309910
C107  C     C_R   0.500000 0.000000 0.403940 0.309912
C108  C     C_R   0.500000 1.000000 0.096060 0.309910
C109  C     C_R   0.500000 1.000000 0.903940 0.309910
C110  C     C_R   1.000000 0.500000 0.096060 0.309914
C111  C     C_R   0.500000 0.000000 0.179770 0.796081
C112  C     C_R   1.000000 0.500000 0.903940 0.309916
C113  C     C_R   0.859636 0.640364 0.750000 0.801224
C114  C     C_R   0.140364 0.359636 0.250000 0.801224
C115  C     C_R   0.359636 0.859636 0.750000 0.801223
C116  C     C_R   0.640364 0.140364 0.250000 0.801223
C117  C     C_R   0.140364 0.359636 0.750000 0.801224
C118  C     C_R   0.859636 0.640364 0.250000 0.801224
C119  C     C_R   0.640364 0.140364 0.750000 0.801223
C120  C     C_R   0.359636 0.859636 0.250000 0.801223
C121  C     C_R   0.859636 0.359636 0.250000 0.801223
C122  C     C_R   0.500000 1.000000 0.320230 0.796080
C123  C     C_R   0.140364 0.640364 0.750000 0.801223
C124  C     C_R   0.359636 0.140364 0.250000 0.801224
C125  C     C_R   0.640364 0.859636 0.750000 0.801224
C126  C     C_R   0.140364 0.640364 0.250000 0.801223
C127  C     C_R   0.859636 0.359636 0.750000 0.801223
C128  C     C_R   0.640364 0.859636 0.250000 0.801223
C129  C     C_R   0.359636 0.140364 0.750000 0.801223
C130  C     C_R   0.743219 0.310142 0.733496 -0.184822
C131  C     C_R   0.256781 0.689858 0.266504 -0.184823
C132  C     C_R   0.689858 0.743219 0.733496 -0.184820
C133  C     C_R   0.500000 0.000000 0.679770 0.796081
C134  C     C_R   0.310142 0.256781 0.266504 -0.184820
C135  C     C_R   0.256780 0.689858 0.733496 -0.184822
C136  C     C_R   0.743220 0.310142 0.266504 -0.184822
C137  C     C_R   0.310142 0.256781 0.733496 -0.184820
C138  C     C_R   0.689858 0.743219 0.266504 -0.184820
C139  C     C_R   0.743220 0.689858 0.266504 -0.184363
C140  C     C_R   0.256780 0.310142 0.733496 -0.184363
C141  C     C_R   0.689858 0.256780 0.266504 -0.184364
C142  C     C_R   0.310142 0.743219 0.733496 -0.184363
C143  C     C_R   0.256780 0.310142 0.266504 -0.184363
C144  C     C_R   0.000000 0.500000 0.320230 0.796081
C145  C     C_R   0.743220 0.689858 0.733496 -0.184363
C146  C     C_R   0.310142 0.743220 0.266504 -0.184363
C147  C     C_R   0.689858 0.256780 0.733496 -0.184363
C148  C     C_R   0.243219 0.810142 0.233496 -0.184821
C149  C     C_R   0.756780 0.189858 0.766504 -0.184821
C150  C     C_R   0.189858 0.243219 0.233496 -0.184820
C151  C     C_R   0.810142 0.756780 0.766504 -0.184820
C152  C     C_R   0.756780 0.189858 0.233496 -0.184822
C153  C     C_R   0.243219 0.810142 0.766504 -0.184822
C154  C     C_R   0.810142 0.756780 0.233496 -0.184820
C155  C     C_R   0.000000 0.500000 0.679770 0.796081
C156  C     C_R   0.189858 0.243219 0.766504 -0.184820
C157  C     C_R   0.243220 0.189858 0.766504 -0.184364
C158  C     C_R   0.756780 0.810142 0.233496 -0.184364
C159  C     C_R   0.189858 0.756780 0.766504 -0.184364
C160  C     C_R   0.810142 0.243220 0.233496 -0.184364
C161  C     C_R   0.756780 0.810142 0.766504 -0.184364
C162  C     C_R   0.243219 0.189858 0.233496 -0.184364
C163  C     C_R   0.810142 0.243220 0.766504 -0.184364
C164  C     C_R   0.189858 0.756780 0.233496 -0.184364
C165  C     C_R   0.696379 0.196379 0.750000 0.003896
C166  C     C_R   0.934047 0.499989 0.637038 -0.211182
C167  C     C_R   0.303621 0.803621 0.250000 0.003896
C168  C     C_R   0.803621 0.696379 0.750000 0.003895
C169  C     C_R   0.196379 0.303621 0.250000 0.003895
C170  C     C_R   0.303621 0.803621 0.750000 0.003896
C171  C     C_R   0.696379 0.196379 0.250000 0.003896
C172  C     C_R   0.196379 0.303621 0.750000 0.003895
C173  C     C_R   0.803621 0.696379 0.250000 0.003895
C174  C     C_R   0.696379 0.803621 0.250000 0.003895
C175  C     C_R   0.303621 0.196379 0.750000 0.003895
C176  C     C_R   0.803621 0.303621 0.250000 0.003896
H1    H     H_    0.737150 0.356381 0.720596 0.161550
H2    H     H_    0.262849 0.356381 0.720596 0.161701
H3    H     H_    0.643619 0.262849 0.279404 0.161700
H4    H     H_    0.356381 0.737151 0.720596 0.161700
H5    H     H_    0.262850 0.356381 0.279404 0.161701
H6    H     H_    0.737150 0.643619 0.720596 0.161701
H7    H     H_    0.356381 0.737151 0.279404 0.161700
H8    H     H_    0.643619 0.262849 0.720596 0.161700
H9    H     H_    0.237150 0.856381 0.220596 0.161550
H10   H     H_    0.762850 0.143619 0.779404 0.161550
H11   H     H_    0.143619 0.237150 0.220596 0.161551
H12   H     H_    0.262850 0.643619 0.279404 0.161550
H13   H     H_    0.856381 0.762850 0.779404 0.161550
H14   H     H_    0.762850 0.143619 0.220596 0.161550
H15   H     H_    0.237150 0.856381 0.779404 0.161550
H16   H     H_    0.856381 0.762850 0.220596 0.161551
H17   H     H_    0.143619 0.237150 0.779404 0.161551
H18   H     H_    0.237151 0.143619 0.779404 0.161701
H19   H     H_    0.762849 0.856381 0.220596 0.161701
H20   H     H_    0.143619 0.762849 0.779404 0.161700
H21   H     H_    0.856381 0.237150 0.220596 0.161700
H22   H     H_    0.762850 0.856381 0.779404 0.161701
H23   H     H_    0.643619 0.737150 0.720596 0.161551
H24   H     H_    0.237150 0.143619 0.220596 0.161701
H25   H     H_    0.856381 0.237151 0.779404 0.161700
H26   H     H_    0.143619 0.762849 0.220596 0.161700
H27   H     H_    0.576070 0.832475 0.976331 0.194033
H28   H     H_    0.423930 0.167525 0.023668 0.194033
H29   H     H_    0.167538 0.576037 0.976332 0.194034
H30   H     H_    0.832462 0.423963 0.023668 0.194034
H31   H     H_    0.423930 0.167525 0.976332 0.194033
H32   H     H_    0.576070 0.832475 0.023668 0.194033
H33   H     H_    0.832462 0.423963 0.976331 0.194034
H34   H     H_    0.356381 0.262850 0.279404 0.161551
H35   H     H_    0.167538 0.576037 0.023668 0.194034
H36   H     H_    0.076139 0.332507 0.476331 0.194033
H37   H     H_    0.923861 0.667492 0.523668 0.194033
H38   H     H_    0.667522 0.076075 0.476331 0.194033
H39   H     H_    0.332478 0.923925 0.523668 0.194033
H40   H     H_    0.923861 0.667493 0.476331 0.194033
H41   H     H_    0.076139 0.332507 0.523668 0.194033
H42   H     H_    0.332478 0.923925 0.476331 0.194033
H43   H     H_    0.667522 0.076075 0.523668 0.194033
H44   H     H_    0.882355 0.499927 0.647161 0.166674
H45   H     H_    0.262850 0.643619 0.720596 0.161550
H46   H     H_    0.882355 0.499927 0.352839 0.166674
H47   H     H_    0.500042 0.882355 0.647161 0.166673
H48   H     H_    0.499955 0.117646 0.352839 0.166673
H49   H     H_    0.117645 0.500073 0.647161 0.166674
H50   H     H_    0.117645 0.500073 0.352839 0.166674
H51   H     H_    0.499958 0.117645 0.647161 0.166674
H52   H     H_    0.500045 0.882354 0.352839 0.166673
H53   H     H_    0.382354 0.999960 0.147161 0.166673
H54   H     H_    0.382354 0.999960 0.852839 0.166673
H55   H     H_    0.999977 0.617645 0.147161 0.166673
H56   H     H_    0.737150 0.356381 0.279404 0.161550
H57   H     H_    0.999975 0.617645 0.852839 0.166673
H58   H     H_    0.617645 0.000040 0.147161 0.166673
H59   H     H_    0.617645 0.000040 0.852839 0.166673
H60   H     H_    0.000023 0.382355 0.147161 0.166673
H61   H     H_    0.000025 0.382355 0.852839 0.166673
H62   H     H_    0.882884 0.499724 0.599408 0.147274
H63   H     H_    0.882884 0.499724 0.400591 0.147274
H64   H     H_    0.500244 0.882884 0.599408 0.147269
H65   H     H_    0.499753 0.117116 0.400592 0.147268
H66   H     H_    0.117116 0.500276 0.599408 0.147274
H67   H     H_    0.356381 0.262850 0.720596 0.161551
H68   H     H_    0.117116 0.500276 0.400591 0.147274
H69   H     H_    0.499756 0.117115 0.599408 0.147269
H70   H     H_    0.500247 0.882884 0.400592 0.147268
H71   H     H_    0.382884 0.999757 0.099408 0.147267
H72   H     H_    0.382884 0.999757 0.900592 0.147268
H73   H     H_    0.999775 0.617115 0.099408 0.147266
H74   H     H_    0.999773 0.617115 0.900592 0.147265
H75   H     H_    0.617116 0.000242 0.099408 0.147267
H76   H     H_    0.617116 0.000242 0.900592 0.147268
H77   H     H_    0.000225 0.382884 0.099408 0.147266
H78   H     H_    0.643619 0.737150 0.279404 0.161551
H79   H     H_    0.000227 0.382885 0.900592 0.147265
H80   H     H_    0.737151 0.643619 0.279404 0.161701
N1    N     N_R   0.500000 1.000000 0.931988 -0.355579
N2    N     N_R   0.500000 1.000000 0.068012 -0.355579
N3    N     N_R   1.000000 0.500000 0.931988 -0.355578
N4    N     N_R   1.000000 0.500000 0.068012 -0.355578
N5    N     N_R   0.000000 0.500000 0.431988 -0.355575
N6    N     N_R   1.000000 0.500000 0.568012 -0.355575
N7    N     N_R   0.500000 1.000000 0.431988 -0.355578
N8    N     N_R   0.500000 0.000000 0.568012 -0.355577
O1    O     O_3   0.000000 0.500000 0.750000 -0.468948
O2    O     O_R   0.000000 0.439150 0.192270 -0.644676
O3    O     O_R   0.439150 1.000000 0.807730 -0.644675
O4    O     O_R   0.560850 0.000000 0.192270 -0.644677
O5    O     O_R   0.500000 0.939150 0.307730 -0.644675
O6    O     O_R   0.500000 0.060850 0.692270 -0.644677
O7    O     O_R   0.060850 0.500000 0.307730 -0.644676
O8    O     O_R   0.939150 0.500000 0.692270 -0.644676
O9    O     O_R   0.500000 0.060850 0.307730 -0.644676
O10   O     O_R   0.500000 0.939150 0.692270 -0.644676
O11   O     O_R   0.939150 0.500000 0.307730 -0.644676
O12   O     O_3   1.000000 0.500000 0.250000 -0.468948
O13   O     O_R   0.060850 0.500000 0.692270 -0.644677
O14   O     O_R   0.914360 0.646040 0.764890 -0.648550
O15   O     O_R   0.085640 0.353960 0.235110 -0.648550
O16   O     O_R   0.353960 0.914360 0.764890 -0.648551
O17   O     O_R   0.646040 0.085640 0.235110 -0.648551
O18   O     O_R   0.085640 0.353960 0.764890 -0.648550
O19   O     O_R   0.914360 0.646040 0.235110 -0.648550
O20   O     O_R   0.646040 0.085640 0.764890 -0.648551
O21   O     O_R   0.353960 0.914360 0.235110 -0.648551
O22   O     O_R   0.914360 0.353960 0.235110 -0.648269
O23   O     O_3   0.500000 0.000000 0.750000 -0.468948
O24   O     O_R   0.085640 0.646040 0.764890 -0.648269
O25   O     O_R   0.353960 0.085640 0.235110 -0.648268
O26   O     O_R   0.646040 0.914360 0.764890 -0.648268
O27   O     O_R   0.085640 0.646040 0.235110 -0.648269
O28   O     O_R   0.914360 0.353960 0.764890 -0.648269
O29   O     O_R   0.646040 0.914360 0.235110 -0.648268
O30   O     O_R   0.353960 0.085640 0.764890 -0.648268
O31   O     O_R   0.414360 0.146040 0.264890 -0.648551
O32   O     O_R   0.585640 0.853960 0.735110 -0.648551
O33   O     O_R   0.853960 0.414360 0.264890 -0.648551
O34   O     O_3   0.500000 0.000000 0.250000 -0.468948
O35   O     O_R   0.146040 0.585640 0.735110 -0.648551
O36   O     O_R   0.585640 0.853960 0.264890 -0.648551
O37   O     O_R   0.414360 0.146040 0.735110 -0.648551
O38   O     O_R   0.146040 0.585640 0.264890 -0.648551
O39   O     O_R   0.853960 0.414360 0.735110 -0.648551
O40   O     O_R   0.414360 0.853960 0.735110 -0.648268
O41   O     O_R   0.585640 0.146040 0.264890 -0.648268
O42   O     O_R   0.853960 0.585640 0.735110 -0.648267
O43   O     O_R   0.146040 0.414360 0.264890 -0.648267
O44   O     O_R   0.585640 0.146040 0.735110 -0.648268
O45   O     O_R   0.000000 0.439150 0.807730 -0.644675
O46   O     O_R   0.414360 0.853960 0.264890 -0.648268
O47   O     O_R   0.146040 0.414360 0.735110 -0.648267
O48   O     O_R   0.853960 0.585640 0.264890 -0.648267
O49   O     O_2   0.447957 0.117135 0.931720 -0.555220
O50   O     O_2   0.552043 0.882865 0.068280 -0.555220
O51   O     O_2   0.882856 0.447979 0.931720 -0.555220
O52   O     O_2   0.117144 0.552020 0.068280 -0.555220
O53   O     O_2   0.552043 0.882865 0.931720 -0.555220
O54   O     O_2   0.447957 0.117135 0.068280 -0.555219
O55   O     O_2   0.117144 0.552021 0.931720 -0.555220
O56   O     O_R   0.000000 0.560850 0.192270 -0.644676
O57   O     O_2   0.882856 0.447980 0.068280 -0.555221
O58   O     O_2   0.947910 0.617113 0.431720 -0.555225
O59   O     O_2   0.052090 0.382887 0.568280 -0.555225
O60   O     O_2   0.382867 0.947953 0.431720 -0.555222
O61   O     O_2   0.617133 0.052046 0.568280 -0.555223
O62   O     O_2   0.052091 0.382886 0.431720 -0.555226
O63   O     O_2   0.947909 0.617113 0.568280 -0.555226
O64   O     O_2   0.617133 0.052046 0.431720 -0.555222
O65   O     O_2   0.382867 0.947954 0.568280 -0.555222
O66   O     O_R   0.560850 1.000000 0.807730 -0.644676
O67   O     O_R   0.439150 0.000000 0.192270 -0.644676
O68   O     O_R   0.000000 0.560850 0.807730 -0.644676
Zn1   Zn    Zn3+2 0.913060 0.500000 0.727930 0.972667
Zn2   Zn    Zn3+2 0.586940 0.000000 0.772070 0.972668
Zn3   Zn    Zn3+2 1.000000 0.413060 0.227930 0.972667
Zn4   Zn    Zn3+2 1.000000 0.586940 0.772070 0.972668
Zn5   Zn    Zn3+2 0.586940 0.000000 0.227930 0.972667
Zn6   Zn    Zn3+2 0.413060 0.000000 0.772070 0.972668
Zn7   Zn    Zn3+2 0.000000 0.586940 0.227930 0.972667
Zn8   Zn    Zn3+2 1.000000 0.413060 0.772070 0.972668
Zn9   Zn    Zn3+2 0.086940 0.500000 0.272070 0.972668
Zn10  Zn    Zn3+2 0.500000 0.913060 0.727930 0.972667
Zn11  Zn    Zn3+2 0.500000 0.086940 0.272070 0.972668
Zn12  Zn    Zn3+2 0.086940 0.500000 0.727930 0.972667
Zn13  Zn    Zn3+2 0.913060 0.500000 0.272070 0.972667
Zn14  Zn    Zn3+2 0.500000 0.086940 0.727930 0.972667
Zn15  Zn    Zn3+2 0.500000 0.913060 0.272070 0.972668
Zn16  Zn    Zn3+2 0.413060 0.000000 0.227930 0.972667

loop_
_geom_bond_atom_site_label_1
_geom_bond_atom_site_label_2
_ccdc_geom_bond_type
C134  H34   S    
C55   C59   A    
C32   C45   A    
O44   Zn14  S    
C41   C67   A    
C116  O41   A    
C91   H58   S    
O10   Zn10  S    
C146  H7    S    
C24   C98   A    
O35   Zn12  S    
C57   C76   A    
C79   C99   A    
C18   N6    A    
C112  N3    S    
C162  H24   S    
C131  C146  A    
C78   C108  A    
C89   O2    A    
C17   C39   A    
C18   C40   A    
C152  H14   S    
C134  C143  A    
C158  C174  A    
C135  C142  A    
C118  C173  S    
C151  C161  A    
C138  C174  A    
C140  H2    S    
C124  O31   A    
C142  C170  A    
C10   O51   S    
C149  H10   S    
O23   Zn10  S    
C69   H43   S    
C9    N2    A    
C39   C65   A    
C116  O17   A    
C159  H20   S    
C104  N6    S    
C36   C62   A    
C37   C63   A    
C3    C123  S    
C128  O36   A    
C38   C64   A    
C45   C47   A    
C137  C140  A    
C85   C110  A    
C31   C44   A    
C28   C54   A    
C29   C55   A    
C23   C37   A    
C7    C163  A    
C34   C61   A    
C116  C171  S    
C5    C161  A    
C43   C44   A    
C110  N4    S    
C136  C141  A    
C130  H1    S    
C96   C144  S    
C20   C42   A    
C23   N7    A    
C54   H29   S    
C57   C97   A    
C106  N8    S    
O36   Zn15  S    
C52   C58   A    
C72   C106  A    
C75   C105  A    
C33   C47   A    
C30   C43   A    
C34   C48   A    
O39   Zn1   S    
C2    C71   A    
C95   C166  A    
C83   C91   A    
C68   C77   A    
C55   H30   S    
C163  H25   S    
C35   H49   S    
C67   H42   S    
C123  O35   A    
C88   C102  A    
O2    Zn3   S    
C27   C53   A    
C154  C158  A    
C160  H21   S    
C13   C72   A    
C22   C36   A    
C52   H27   S    
O19   Zn7   S    
C139  H80   S    
C16   C29   A    
O14   Zn4   S    
C20   N8    A    
C37   C50   A    
C117  C172  S    
C56   H31   S    
C22   N6    A    
C2    C96   A    
C121  O22   A    
C42   C69   A    
C13   C97   A    
C24   C73   A    
C68   C98   A    
C81   C88   A    
C123  O24   A    
O1    Zn8   S    
C74   H66   S    
C46   C96   A    
C81   C110  A    
O12   Zn7   S    
C148  C167  A    
C10   N3    A    
C129  C175  S    
C32   C59   A    
O15   Zn3   S    
C18   O59   S    
C113  O14   A    
O1    Zn4   S    
C145  C168  A    
C115  O16   A    
C146  C167  A    
C136  C176  A    
O41   Zn11  S    
O31   Zn11  S    
C113  C168  S    
C155  O8    A    
C161  H22   S    
C29   C47   A    
C132  C145  A    
C89   O56   A    
C114  O43   A    
C66   H41   S    
C16   N4    A    
C40   C49   A    
C141  C171  A    
C4    C124  S    
O34   Zn15  S    
C111  O67   A    
C117  O18   A    
O16   Zn6   S    
C79   H53   S    
C7    C130  A    
C147  C165  A    
C122  O5    A    
C87   C101  A    
C85   C93   A    
C27   C44   A    
C5    C132  A    
C142  H4    S    
C63   C69   A    
C153  C170  A    
C115  O40   A    
O20   Zn2   S    
C1    C103  S    
O34   Zn16  S    
O7    Zn9   S    
O5    Zn15  S    
C3    C159  A    
C12   O53   S    
O29   Zn5   S    
C115  C170  S    
C46   C75   A    
C93   H60   S    
C135  H45   S    
C148  C164  A    
C11   C33   A    
C149  C165  A    
C25   N8    A    
C38   C51   A    
C156  C172  A    
C90   H57   S    
C12   C26   A    
C61   H36   S    
C137  H67   S    
O11   Zn13  S    
C25   C38   A    
O24   Zn4   S    
C94   H61   S    
C58   H32   S    
O23   Zn14  S    
C99   C111  S    
O12   Zn9   S    
C113  O42   A    
O67   Zn16  S    
C114  O15   A    
C12   N1    A    
C74   C104  A    
C153  H15   S    
C53   C56   A    
C98   C122  S    
C154  H16   S    
C76   C106  A    
C130  C147  A    
C120  O46   A    
C82   H74   S    
C30   C56   A    
C127  O28   A    
O8    Zn1   S    
C128  C174  S    
C84   C109  A    
C118  O19   A    
C155  O13   A    
O26   Zn2   S    
C78   C79   A    
C133  O6    A    
O28   Zn8   S    
C100  C101  S    
C63   H38   S    
C57   H51   S    
C5    C125  S    
C84   C92   A    
C7    C127  S    
C59   H33   S    
C147  H8    S    
C114  C169  S    
O33   Zn13  S    
C117  O47   A    
C35   C74   A    
C118  O48   A    
C8    O49   S    
C64   H39   S    
C76   H69   S    
O43   Zn9   S    
C19   O60   S    
C129  O37   A    
C4    C134  A    
O1    Zn12  S    
C70   C104  A    
C20   O61   S    
C73   C107  A    
C11   O52   S    
C22   O63   S    
C2    H46   S    
C83   C108  A    
C77   H70   S    
C75   H68   S    
C80   C109  A    
C121  O33   A    
C80   H72   S    
C97   C133  S    
C14   C27   A    
C62   C65   A    
C21   O62   S    
O13   Zn12  S    
C40   C66   A    
O17   Zn5   S    
C13   H47   S    
C128  O29   A    
C150  C162  A    
C157  H18   S    
C6    C126  S    
C124  O25   A    
C14   N2    A    
O25   Zn16  S    
C15   O55   S    
C21   C34   A    
C148  H9    S    
C71   H63   S    
C126  O38   A    
C50   C51   A    
O12   Zn3   S    
O1    Zn1   S    
O37   Zn14  S    
C92   C101  A    
O22   Zn3   S    
O48   Zn13  S    
C6    C164  A    
C94   C103  A    
C33   C60   A    
O45   Zn8   S    
C62   H37   S    
O40   Zn10  S    
C122  O9    A    
O42   Zn1   S    
C166  H44   S    
C41   C50   A    
C125  O32   A    
C1    O45   A    
O27   Zn7   S    
O9    Zn11  S    
C6    C131  A    
C93   C102  A    
C137  C175  A    
C119  O20   A    
C16   O57   S    
C35   C95   A    
C87   H54   S    
O12   Zn13  S    
C92   H59   S    
C82   C90   A    
C8    C30   A    
C11   N4    A    
C15   C28   A    
C100  O66   A    
C129  O30   A    
O4    Zn5   S    
C3    C135  A    
C17   N5    A    
C60   H35   S    
C90   C103  A    
C138  C139  A    
C19   N7    A    
C121  C176  S    
C88   H55   S    
C73   H65   S    
C138  H78   S    
C36   C49   A    
C19   C41   A    
C120  C167  S    
C82   C112  A    
C39   C48   A    
C152  C160  A    
C89   C102  S    
C84   H76   S    
C108  N2    S    
C54   C60   A    
C136  H56   S    
O23   Zn6   S    
C144  O11   A    
C143  H5    S    
C31   C58   A    
C156  C157  A    
C111  O4    A    
C80   C87   A    
C70   C166  A    
C127  O39   A    
C150  C169  A    
O32   Zn10  S    
C151  C168  A    
O47   Zn12  S    
C8    N1    A    
C86   C94   A    
C1    O68   A    
C23   O64   S    
O6    Zn14  S    
C72   H64   S    
C149  C163  A    
C95   C155  S    
C125  O26   A    
C42   C51   A    
O38   Zn9   S    
C131  H12   S    
C140  C172  A    
O30   Zn6   S    
C160  C176  A    
O34   Zn5   S    
C61   C66   A    
C26   C43   A    
C25   O65   S    
C24   H48   S    
O3    Zn6   S    
C120  O21   A    
C28   C45   A    
C53   H28   S    
C119  O44   A    
C64   C67   A    
C77   C107  A    
C144  O7    A    
C143  C169  A    
C65   H40   S    
C150  H11   S    
C152  C171  A    
C68   H52   S    
C86   H79   S    
C145  H6    S    
C132  H23   S    
C153  C159  A    
C86   C112  A    
O56   Zn7   S    
C26   C52   A    
C78   H71   S    
C46   H50   S    
C17   O58   S    
C164  H26   S    
C157  C175  A    
C21   N5    A    
C139  C173  A    
C14   O54   S    
C15   N3    A    
O23   Zn2   S    
C9    O50   S    
C119  C165  S    
C48   C49   A    
O18   Zn8   S    
C133  O10   A    
C154  C173  A    
C83   H75   S    
O68   Zn4   S    
C81   H73   S    
C100  O3    A    
C70   H62   S    
C85   H77   S    
C158  H19   S    
C91   C99   A    
C71   C105  A    
C156  H17   S    
O46   Zn15  S    
C141  H3    S    
C4    C162  A    
C109  N1    S    
C9    C31   A    
C126  O27   A    
C10   C32   A    
C151  H13   S    
C105  N5    S    
O66   Zn2   S    
C107  N7    S    
O34   Zn11  S    
O21   Zn16  S    
