data_mof_unit_59094.cif
_audit_creation_date              2012-12-10T18:42:54-0500
_audit_creation_method            fapswitch 2.2
_symmetry_space_group_name_H-M    P1
_symmetry_Int_Tables_number       1
_space_group_crystal_system       triclinic
_cell_length_a                    18.096737
_cell_length_b                    18.153364
_cell_length_c                    18.082908
_cell_angle_alpha                 120.121701
_cell_angle_beta                  89.988136
_cell_angle_gamma                 60.036728
_cell_volume                      4194.74791419

loop_
_atom_site_label
_atom_site_type_symbol
_atom_type_description
_atom_site_fract_x
_atom_site_fract_y
_atom_site_fract_z
_atom_type_partial_charge
C1    C     C_R   0.891162 0.216976 0.608084 0.807007
C2    C     C_3   0.550752 0.897365 0.949313 0.013722
C3    C     C_3   0.448908 0.034902 0.076750 0.147713
C4    C     C_3   0.551092 0.965098 0.923250 0.147713
C5    C     C_3   0.982507 0.429609 0.445812 -0.213778
C6    C     C_3   0.017493 0.570391 0.554188 -0.213779
C7    C     C_3   0.078541 0.403424 0.446374 -0.209123
C8    C     C_3   0.921459 0.596576 0.553626 -0.209127
C9    C     C_3   0.051819 0.500274 0.449373 0.016193
C10   C     C_3   0.948181 0.499726 0.550626 0.016191
C11   C     C_3   0.957791 0.525816 0.449348 0.141592
C12   C     C_R   0.108837 0.783024 0.391916 0.807011
C13   C     C_3   0.042209 0.474184 0.550652 0.141592
C14   C     C_3   0.982778 0.031449 0.444935 0.098094
C15   C     C_3   0.017222 0.968551 0.555064 0.098092
C16   C     C_R   0.608349 0.783099 0.891625 0.794694
C17   C     C_R   0.391651 0.216901 0.108375 0.794694
C18   C     C_3   0.956521 0.963292 0.447796 -0.246842
C19   C     C_3   0.043478 0.036707 0.552204 -0.246849
C20   C     C_3   0.051698 0.897062 0.450251 -0.056061
C21   C     C_3   0.948301 0.102938 0.549749 -0.056062
C22   C     C_3   0.076597 0.965009 0.447683 0.107511
C23   C     C_3   0.516290 0.407340 0.449052 0.148380
C24   C     C_3   0.923402 0.034991 0.552317 0.107517
C25   C     C_3   0.925005 0.520267 0.041490 0.146625
C26   C     C_3   0.074995 0.479733 0.958510 0.146626
C27   C     C_3   0.955158 0.594247 0.080718 -0.225238
C28   C     C_3   0.044842 0.405753 0.919282 -0.225240
C29   C     C_3   0.051607 0.499380 0.050807 -0.004580
C30   C     C_3   0.948393 0.500620 0.949192 -0.004581
C31   C     C_3   0.021426 0.425560 0.012828 -0.183363
C32   C     C_3   0.978574 0.574439 0.987172 -0.183360
C33   C     C_3   0.552291 0.404655 0.921454 -0.180873
C34   C     C_3   0.483710 0.592660 0.550948 0.148379
C35   C     C_3   0.447709 0.595345 0.078546 -0.180874
C36   C     C_3   0.447547 0.474386 0.956749 -0.183447
C37   C     C_3   0.552452 0.525614 0.043251 -0.183447
C38   C     C_3   0.449436 0.499532 0.051042 0.062181
C39   C     C_3   0.550564 0.500468 0.948958 0.062180
C40   C     C_R   0.608218 0.500128 0.891604 0.770778
C41   C     C_R   0.391782 0.499872 0.108396 0.770780
C42   C     C_3   0.553350 0.429742 0.016633 -0.134205
C43   C     C_3   0.446650 0.570258 0.983367 -0.134205
C44   C     C_R   0.891569 0.499788 0.608265 0.804575
C45   C     C_3   0.446087 0.966041 0.983388 -0.161725
C46   C     C_R   0.108431 0.500212 0.391735 0.804578
C47   C     C_R   0.891336 0.500252 0.891764 0.776096
C48   C     C_R   0.108664 0.499748 0.108236 0.776096
C49   C     C_R   0.608585 0.499779 0.608289 0.798202
C50   C     C_R   0.391415 0.500221 0.391711 0.798203
C51   C     C_3   0.587979 0.428653 0.445839 -0.167620
C52   C     C_3   0.412021 0.571347 0.554161 -0.167620
C53   C     C_3   0.518316 0.525135 0.446652 -0.261435
C54   C     C_3   0.481684 0.474865 0.553348 -0.261434
C55   C     C_3   0.448013 0.501257 0.449291 0.015450
C56   C     C_3   0.553913 0.033959 0.016612 -0.161725
C57   C     C_3   0.551987 0.498743 0.550708 0.015450
C58   C     C_3   0.961633 0.068959 0.383472 -0.388887
C59   C     C_3   0.995512 0.978638 0.283596 -0.351204
C60   C     C_3   0.971363 0.018332 0.224173 -0.884947
C61   C     C_3   0.038370 0.931039 0.616526 -0.388887
C62   C     C_3   0.004473 0.021360 0.716405 -0.351205
C63   C     C_3   0.028659 0.981660 0.775822 -0.884943
C64   C     C_3   0.838136 0.543100 0.087342 -0.429081
C65   C     C_3   0.836612 0.558277 0.178828 -0.331469
C66   C     C_3   0.750248 0.579935 0.223985 -0.898371
C67   C     C_3   0.447027 0.034541 0.956116 -0.261244
C68   C     C_3   0.161866 0.456897 0.912657 -0.429091
C69   C     C_3   0.163387 0.441727 0.821174 -0.331462
C70   C     C_3   0.249764 0.420037 0.776003 -0.898362
C71   C     C_3   0.552973 0.965459 0.043884 -0.261244
C72   C     C_3   0.449248 0.102635 0.050687 0.013722
H1    H     H_    0.531285 0.547750 0.404003 0.140607
H2    H     H_    0.596531 0.546577 0.077596 0.131727
H3    H     H_    0.596232 0.326546 0.856008 0.130745
H4    H     H_    0.403767 0.673454 0.143992 0.130746
H5    H     H_    0.596297 0.372057 0.031146 0.144639
H6    H     H_    0.403703 0.627943 0.968854 0.144639
H7    H     H_    0.660195 0.368820 0.402116 0.151334
H8    H     H_    0.339804 0.631180 0.597884 0.151335
H9    H     H_    0.404722 0.063677 0.920075 0.140213
H10   H     H_    0.595277 0.936323 0.079925 0.140213
H11   H     H_    0.402442 0.937586 0.971083 0.155537
H12   H     H_    0.468715 0.452250 0.595997 0.140607
H13   H     H_    0.597558 0.062413 0.028917 0.155537
H14   H     H_    0.143959 0.325341 0.403404 0.143186
H15   H     H_    0.856041 0.674659 0.596596 0.143186
H16   H     H_    0.966292 0.373760 0.402028 0.151824
H17   H     H_    0.033708 0.626240 0.597971 0.151823
H18   H     H_    0.896764 0.072994 0.245301 0.261883
H19   H     H_    0.003054 0.058951 0.229387 0.261458
H20   H     H_    0.996717 0.951478 0.152296 0.251902
H21   H     H_    0.070072 0.922525 0.259463 0.225435
H22   H     H_    0.964333 0.936813 0.275769 0.226520
H23   H     H_    0.921024 0.932316 0.406125 0.139957
H24   H     H_    0.887070 0.124930 0.405754 0.220146
H25   H     H_    0.993398 0.110247 0.391465 0.205151
H26   H     H_    0.997013 0.940994 0.770593 0.261461
H27   H     H_    0.103263 0.927039 0.754702 0.261879
H28   H     H_    0.003283 0.048516 0.847703 0.251901
H29   H     H_    0.035614 0.063225 0.724242 0.226536
H30   H     H_    0.929908 0.077440 0.740536 0.225419
H31   H     H_    0.006620 0.889733 0.608522 0.205152
H32   H     H_    0.112934 0.875082 0.594251 0.220148
H33   H     H_    0.155786 0.986133 0.392415 0.179224
H34   H     H_    0.078975 0.067683 0.593875 0.139960
H35   H     H_    0.175478 0.867959 0.324790 0.187472
H36   H     H_    0.844214 0.013870 0.607591 0.179223
H37   H     H_    0.824517 0.132048 0.675209 0.187471
H38   H     H_    0.689874 0.652147 0.236552 0.258733
H39   H     H_    0.745513 0.513474 0.180211 0.260554
H40   H     H_    0.751010 0.590487 0.289951 0.247743
H41   H     H_    0.895889 0.486947 0.168732 0.221601
H42   H     H_    0.840549 0.624932 0.224666 0.220838
H43   H     H_    0.779275 0.614704 0.097512 0.187842
H44   H     H_    0.833721 0.476782 0.041793 0.216579
H45   H     H_    0.919304 0.670989 0.147721 0.133158
H46   H     H_    0.254524 0.486478 0.819773 0.260552
H47   H     H_    0.310128 0.347810 0.763426 0.258729
H48   H     H_    0.248998 0.409495 0.710041 0.247742
H49   H     H_    0.159428 0.375088 0.775340 0.220841
H50   H     H_    0.104120 0.513069 0.831278 0.221593
H51   H     H_    0.166286 0.523209 0.958206 0.216575
H52   H     H_    0.220724 0.385288 0.902482 0.187849
H53   H     H_    0.581291 0.257109 0.407067 0.175919
H54   H     H_    0.473494 0.313304 0.409484 0.164216
H55   H     H_    0.418710 0.742889 0.592931 0.175918
H56   H     H_    0.080696 0.329011 0.852278 0.133160
H57   H     H_    0.526507 0.686695 0.590516 0.164215
H58   H     H_    0.406848 0.012283 0.162685 0.174650
H59   H     H_    0.408889 0.117749 0.214153 0.166281
H60   H     H_    0.593152 0.987716 0.837315 0.174651
H61   H     H_    0.591111 0.882251 0.785847 0.166281
H62   H     H_    0.849672 0.566954 0.406273 0.174332
H63   H     H_    0.949873 0.490914 0.325151 0.191202
H64   H     H_    0.150324 0.433057 0.593734 0.174332
H65   H     H_    0.050123 0.509082 0.674848 0.191203
H66   H     H_    0.039287 0.365002 0.024389 0.148525
H67   H     H_    0.960714 0.634998 0.975611 0.148523
H68   H     H_    0.403469 0.453422 0.922404 0.131726
N1    N     N_3   0.162950 0.924869 0.391509 -0.473732
N2    N     N_3   0.837049 0.075132 0.608491 -0.473735
N3    N     N_3   0.533324 0.304979 0.391044 -0.453855
N4    N     N_3   0.466676 0.695020 0.608956 -0.453854
N5    N     N_3   0.390792 0.076015 0.162460 -0.454733
N6    N     N_3   0.609208 0.923985 0.837540 -0.454734
N7    N     N_3   0.912227 0.555118 0.392700 -0.473275
N8    N     N_3   0.087774 0.444882 0.607300 -0.473275
O1    O     O_3   0.750010 0.499980 0.749990 -0.476920
O2    O     O_R   0.305750 0.265450 0.132730 -0.629756
O3    O     O_R   0.867280 0.265410 0.571220 -0.658101
O4    O     O_R   0.132720 0.734590 0.428780 -0.658101
O5    O     O_R   0.571230 0.734580 0.867270 -0.651494
O6    O     O_R   0.428770 0.265420 0.132730 -0.651494
O7    O     O_R   0.694200 0.438470 0.867270 -0.646234
O8    O     O_R   0.305800 0.561530 0.132730 -0.646235
O9    O     O_R   0.867340 0.561470 0.694210 -0.642042
O10   O     O_R   0.132660 0.438530 0.305790 -0.642041
O11   O     O_R   0.867310 0.438430 0.867270 -0.648572
O12   O     O_3   0.249990 0.500020 0.250010 -0.476921
O13   O     O_R   0.132690 0.561570 0.132730 -0.648572
O14   O     O_R   0.694200 0.438520 0.571220 -0.658210
O15   O     O_R   0.305800 0.561480 0.428780 -0.658209
O16   O     O_R   0.867340 0.561440 0.867270 -0.648360
O17   O     O_R   0.132660 0.438560 0.132730 -0.648360
O18   O     O_R   0.571190 0.561530 0.694210 -0.627115
O19   O     O_R   0.428810 0.438470 0.305790 -0.627115
O20   O     O_R   0.571190 0.561490 0.867270 -0.649040
O21   O     O_R   0.428810 0.438510 0.132730 -0.649041
O22   O     O_R   0.867310 0.438490 0.571220 -0.651712
O23   O     O_R   0.132690 0.561510 0.428780 -0.651714
O24   O     O_R   0.867280 0.265380 0.694210 -0.647967
O25   O     O_R   0.132720 0.734620 0.305790 -0.647968
O26   O     O_R   0.694250 0.734550 0.867270 -0.629756
Zn1   Zn    Zn3+2 0.618190 0.587870 0.793920 0.963762
Zn2   Zn    Zn3+2 0.381810 0.412130 0.206080 0.963762
Zn3   Zn    Zn3+2 0.793940 0.412090 0.793920 0.947916
Zn4   Zn    Zn3+2 0.206060 0.587910 0.206080 0.947916
Zn5   Zn    Zn3+2 0.793970 0.587840 0.793920 0.963826
Zn6   Zn    Zn3+2 0.206030 0.412160 0.206080 0.963827
Zn7   Zn    Zn3+2 0.793940 0.412130 0.618200 0.949161
Zn8   Zn    Zn3+2 0.206060 0.587870 0.381800 0.949160

loop_
_geom_bond_atom_site_label_1
_geom_bond_atom_site_label_2
_ccdc_geom_bond_type
O24   Zn3   S    
C25   C31   S    
O20   Zn1   S    
C18   H23   S    
C37   H2    S    
C1    C21   S    
C64   H44   S    
C26   C29   S    
C27   C29   S    
C65   H42   S    
C12   O4    A    
O23   Zn8   S    
C2    C4    S    
C17   O2    A    
C42   H5    S    
C68   H52   S    
C6    C9    S    
H36   N2    S    
O14   Zn7   S    
H57   N4    S    
C47   O11   A    
C43   H6    S    
C26   C32   S    
H62   N7    S    
C34   N4    S    
O18   Zn1   S    
C63   H28   S    
C18   C24   S    
C33   C42   S    
O25   Zn4   S    
C14   C21   S    
C19   C21   S    
C70   H46   S    
C5    C11   S    
C63   H26   S    
H33   N1    S    
C58   H24   S    
C7    H14   S    
C5    C10   S    
C46   O10   A    
H54   N3    S    
O1    Zn5   S    
C33   C36   S    
C49   C57   S    
C46   O23   A    
C22   N1    S    
C67   C72   S    
O9    Zn5   S    
C37   C42   S    
O10   Zn6   S    
O12   Zn6   S    
C63   H27   S    
C34   C52   S    
H65   N8    S    
C15   C19   S    
C5    H16   S    
O8    Zn4   S    
C33   H3    S    
C48   O17   A    
C24   N2    S    
C68   C69   S    
C56   C72   S    
C45   C67   S    
C34   C57   S    
C40   O7    A    
H59   N5    S    
H37   N2    S    
C51   C57   S    
C59   H22   S    
C66   H39   S    
H35   N1    S    
C35   C43   S    
C61   C62   S    
C52   C55   S    
C71   H10   S    
C7    C13   S    
C27   H45   S    
C50   O15   A    
C9    C46   S    
C64   H43   S    
C4    C56   S    
H58   N5    S    
O1    Zn7   S    
C44   O9    A    
O12   Zn2   S    
C23   N3    S    
C45   H11   S    
C58   H25   S    
O11   Zn3   S    
C17   O6    A    
C68   H51   S    
O12   Zn8   S    
C3    N5    S    
C52   C54   S    
O3    Zn7   S    
C44   O22   A    
C60   H20   S    
C2    C45   S    
C66   H40   S    
C15   C20   S    
C14   C58   S    
C35   H4    S    
C29   C48   S    
C10   C44   S    
C30   C47   S    
C61   H32   S    
C38   C41   S    
C70   H48   S    
C39   C40   S    
C5    C7    S    
C39   C43   S    
C48   O13   A    
C17   C72   S    
C41   O21   A    
C3    C45   S    
C51   C53   S    
C25   C64   S    
C3    C71   S    
C19   H34   S    
C62   C63   S    
C9    C11   S    
C23   C51   S    
C69   H49   S    
C70   H47   S    
C56   C71   S    
C4    N6    S    
C12   C20   S    
O1    Zn3   S    
C15   C61   S    
C33   C39   S    
C66   H38   S    
C31   H66   S    
C36   H68   S    
O12   Zn4   S    
C49   O14   A    
H64   N8    S    
O16   Zn5   S    
C32   H67   S    
C47   O16   A    
C8    C10   S    
C15   C24   S    
C20   C22   S    
C67   H9    S    
H63   N7    S    
O22   Zn7   S    
C14   C22   S    
C53   C55   S    
O4    Zn8   S    
C2    C71   S    
C50   O19   A    
C2    C16   S    
C35   C37   S    
C23   C54   S    
O2    Zn6   S    
C60   H19   S    
C16   O26   A    
C25   C30   S    
C7    C9    S    
O15   Zn8   S    
C61   H31   S    
C27   C32   S    
C65   H41   S    
C14   C18   S    
C28   C31   S    
C53   H1    S    
C10   C13   S    
C4    C67   S    
C6    C8    S    
C23   C55   S    
C60   H18   S    
C25   C27   S    
C6    H17   S    
O5    Zn1   S    
C1    O24   A    
C26   C28   S    
C50   C55   S    
O6    Zn2   S    
C8    H15   S    
C26   C68   S    
C64   C65   S    
C41   O8    A    
C28   C30   S    
C3    C72   S    
C58   C59   S    
H60   N6    S    
C49   O18   A    
C29   C31   S    
C6    C13   S    
C30   C32   S    
C11   N7    S    
C56   H13   S    
C62   H29   S    
C69   H50   S    
H53   N3    S    
C8    C11   S    
C54   H12   S    
C36   C38   S    
O21   Zn2   S    
C1    O3    A    
C18   C20   S    
H55   N4    S    
C65   C66   S    
C69   C70   S    
C51   H7    S    
C40   O20   A    
C38   C42   S    
C28   H56   S    
C59   C60   S    
C34   C53   S    
C37   C39   S    
C19   C22   S    
C21   C24   S    
C16   O5    A    
O17   Zn6   S    
C35   C38   S    
O19   Zn2   S    
C36   C43   S    
H61   N6    S    
C59   H21   S    
C13   N8    S    
O1    Zn1   S    
O13   Zn4   S    
C52   H8    S    
O26   Zn5   S    
O7    Zn3   S    
C12   O25   A    
C62   H30   S    
C54   C57   S    
