data_mof_unit_51598.cif
_audit_creation_date              2012-12-10T18:28:24-0500
_audit_creation_method            fapswitch 2.2
_symmetry_space_group_name_H-M    P1
_symmetry_Int_Tables_number       1
_space_group_crystal_system       triclinic
_cell_length_a                    23.567771
_cell_length_b                    20.294078
_cell_length_c                    15.017234
_cell_angle_alpha                 90.158198
_cell_angle_beta                  99.861671
_cell_angle_gamma                 89.97299
_cell_volume                      7076.3802765

loop_
_atom_site_label
_atom_site_type_symbol
_atom_type_description
_atom_site_fract_x
_atom_site_fract_y
_atom_site_fract_z
_atom_type_partial_charge
C1    C     C_R   0.575903 0.086514 0.554953 0.886584
C2    C     C_R   0.423925 0.913730 0.444789 0.888140
C3    C     C_R   0.425309 0.088271 0.445968 0.881667
C4    C     C_R   0.575728 0.912887 0.555040 0.884256
C5    C     C_R   0.075896 0.586526 0.554947 0.886323
C6    C     C_R   0.923931 0.413723 0.444793 0.888228
C7    C     C_R   0.925352 0.588308 0.445995 0.881283
C8    C     C_R   0.075750 0.412910 0.555056 0.884101
C9    C     C_R   0.254275 0.226459 0.674901 -0.055579
C10   C     C_R   0.789771 0.820352 0.376394 -0.011387
C11   C     C_R   0.746186 0.227177 0.330545 -0.058762
C12   C     C_R   0.250120 0.777283 0.664929 -0.016934
C13   C     C_R   0.753453 0.725411 0.674235 -0.055755
C14   C     C_R   0.289398 0.320083 0.375653 -0.011323
C15   C     C_R   0.246082 0.727316 0.330472 -0.058754
C16   C     C_R   0.750315 0.277024 0.665055 -0.016974
C17   C     C_R   0.627178 0.006465 0.202509 -0.328484
C18   C     C_R   0.372568 0.004896 0.797404 -0.335789
C19   C     C_R   0.127177 0.506584 0.202514 -0.328649
C20   C     C_R   0.872572 0.505024 0.797416 -0.336164
C21   C     C_R   0.607099 0.002124 0.283306 0.404225
C22   C     C_R   0.392820 0.000828 0.716632 0.400824
C23   C     C_R   0.107098 0.502158 0.283306 0.404018
C24   C     C_R   0.892821 0.500824 0.716647 0.400902
C25   C     C_R   0.509890 0.003582 0.208069 -0.119452
C26   C     C_R   0.489886 0.002294 0.792307 -0.137931
C27   C     C_R   0.009890 0.503656 0.208066 -0.118086
C28   C     C_R   0.989887 0.502404 0.792311 -0.137789
C29   C     C_R   0.527900 0.008261 0.123807 0.016085
C30   C     C_R   0.471655 0.007541 0.876458 0.016980
C31   C     C_R   0.027902 0.508467 0.123814 0.016217
C32   C     C_R   0.971657 0.507760 0.876459 0.016968
C33   C     C_R   0.587935 0.009280 0.122557 0.108211
C34   C     C_R   0.411632 0.008304 0.877515 0.102353
C35   C     C_R   0.087936 0.509480 0.122564 0.108058
C36   C     C_R   0.911636 0.508547 0.877520 0.102829
C37   C     C_R   0.488747 0.010882 0.041529 0.070565
C38   C     C_R   0.510646 0.010889 0.958821 0.070588
C39   C     C_R   0.988750 0.511188 0.041536 0.071039
C40   C     C_R   0.010648 0.511167 0.958825 0.070388
C41   C     C_R   0.570702 0.014255 0.961080 -0.179386
C42   C     C_R   0.428596 0.013128 0.039231 -0.159082
C43   C     C_R   0.070701 0.514551 0.961085 -0.179264
C44   C     C_R   0.928604 0.513559 0.039240 -0.158516
C45   C     C_R   0.608592 0.013526 0.041742 -0.136386
C46   C     C_R   0.390823 0.012148 0.958342 -0.137673
C47   C     C_R   0.108592 0.513796 0.041751 -0.136258
C48   C     C_R   0.890830 0.512534 0.958346 -0.138352
C49   C     C_R   0.621652 0.865872 0.593372 -0.158315
C50   C     C_R   0.385918 0.143465 0.414815 -0.126250
C51   C     C_R   0.377848 0.867277 0.407668 -0.151882
C52   C     C_R   0.621402 0.133924 0.590867 -0.111591
C53   C     C_R   0.121789 0.366049 0.593476 -0.158525
C54   C     C_R   0.886040 0.643557 0.414872 -0.126443
C55   C     C_R   0.877881 0.367232 0.407692 -0.151914
C56   C     C_R   0.121353 0.633996 0.590830 -0.111490
C57   C     C_R   0.679585 0.803001 0.716549 -0.059001
C58   C     C_R   0.346892 0.232774 0.313235 -0.051691
C59   C     C_R   0.308315 0.817380 0.285857 -0.047067
C60   C     C_R   0.692155 0.183670 0.710727 -0.057471
C61   C     C_R   0.180100 0.303767 0.716898 -0.059063
C62   C     C_R   0.847544 0.733383 0.313855 -0.051395
C63   C     C_R   0.808351 0.317302 0.285911 -0.047074
C64   C     C_R   0.192041 0.683880 0.710661 -0.057462
C65   C     C_R   0.633304 0.846778 0.685988 -0.052631
C66   C     C_R   0.384529 0.178158 0.332546 -0.078379
C67   C     C_R   0.354492 0.861776 0.314377 -0.048743
C68   C     C_R   0.646059 0.139193 0.683559 -0.077417
C69   C     C_R   0.133599 0.347217 0.686188 -0.052560
C70   C     C_R   0.885141 0.678731 0.333097 -0.078792
C71   C     C_R   0.854504 0.361734 0.314411 -0.048736
C72   C     C_R   0.146001 0.639325 0.683519 -0.077446
C73   C     C_R   0.658351 0.844960 0.536059 -0.199154
C74   C     C_R   0.348371 0.161563 0.472025 -0.216940
C75   C     C_R   0.352527 0.833269 0.470251 -0.197587
C76   C     C_R   0.645144 0.168963 0.527303 -0.219053
C77   C     C_R   0.158465 0.345102 0.536141 -0.198789
C78   C     C_R   0.848100 0.661246 0.471632 -0.216797
C79   C     C_R   0.852620 0.333167 0.470289 -0.197559
C80   C     C_R   0.145053 0.669061 0.527245 -0.219133
C81   C     C_R   0.706383 0.806001 0.566356 0.093281
C82   C     C_R   0.317900 0.220498 0.461835 0.054449
C83   C     C_R   0.302571 0.796706 0.444553 0.099370
C84   C     C_R   0.694580 0.206681 0.551671 0.071379
C85   C     C_R   0.206665 0.306414 0.566515 0.093404
C86   C     C_R   0.817743 0.720263 0.461745 0.054488
C87   C     C_R   0.802684 0.296563 0.444623 0.099369
C88   C     C_R   0.194448 0.706851 0.551588 0.071384
C89   C     C_R   0.712986 0.777471 0.653691 0.030857
C90   C     C_R   0.318187 0.258391 0.382322 0.101497
C91   C     C_R   0.285369 0.780291 0.351975 0.031147
C92   C     C_R   0.712724 0.222609 0.644155 0.104531
C93   C     C_R   0.213535 0.278223 0.654089 0.030735
C94   C     C_R   0.818464 0.758602 0.382741 0.101387
C95   C     C_R   0.785453 0.280170 0.352040 0.031160
C96   C     C_R   0.212574 0.722826 0.644063 0.104524
C97   C     C_R   0.746347 0.792791 0.508394 0.083097
C98   C     C_R   0.285599 0.241026 0.528511 0.090043
C99   C     C_R   0.270367 0.775145 0.510185 0.089744
C100  C     C_R   0.725840 0.229276 0.485328 0.086510
C101  C     C_R   0.246523 0.293099 0.508401 0.083180
C102  C     C_R   0.785216 0.740497 0.528265 0.089985
C103  C     C_R   0.770516 0.274956 0.510281 0.089775
C104  C     C_R   0.225701 0.729452 0.485236 0.086513
C105  C     C_R   0.290682 0.210647 0.614071 -0.253031
C106  C     C_R   0.751429 0.834173 0.434997 -0.301283
C107  C     C_R   0.716719 0.203260 0.396682 -0.268008
C108  C     C_R   0.278938 0.801863 0.598469 -0.298266
C109  C     C_R   0.789933 0.709671 0.613483 -0.253172
C110  C     C_R   0.251269 0.334140 0.434515 -0.301370
C111  C     C_R   0.216594 0.703422 0.396597 -0.267897
C112  C     C_R   0.779122 0.301624 0.598594 -0.298200
H1    H     H_    0.590166 0.018105 0.901775 0.202765
H2    H     H_    0.408896 0.016193 0.098580 0.206789
H3    H     H_    0.090156 0.518436 0.901775 0.202729
H4    H     H_    0.908920 0.516773 0.098601 0.206060
H5    H     H_    0.343221 0.128033 0.525162 0.203824
H6    H     H_    0.648422 0.858222 0.465482 0.191573
H7    H     H_    0.624234 0.166403 0.457515 0.162304
H8    H     H_    0.372550 0.835770 0.540495 0.170954
H9    H     H_    0.842616 0.627368 0.524214 0.203869
H10   H     H_    0.148374 0.358121 0.465492 0.191352
H11   H     H_    0.124143 0.666458 0.457460 0.162190
H12   H     H_    0.872676 0.335660 0.540517 0.170914
H13   H     H_    0.323124 0.173966 0.636246 0.147480
H14   H     H_    0.729679 0.881172 0.427827 0.186746
H15   H     H_    0.689181 0.161025 0.378751 0.170869
H16   H     H_    0.305730 0.844770 0.615805 0.173059
H17   H     H_    0.822161 0.672722 0.635474 0.148094
H18   H     H_    0.229394 0.381055 0.427055 0.186739
H19   H     H_    0.189054 0.661192 0.378656 0.170776
H20   H     H_    0.805931 0.344514 0.615960 0.173031
H21   H     H_    0.654471 0.015610 0.040734 0.181292
H22   H     H_    0.344905 0.013554 0.959165 0.185036
H23   H     H_    0.154471 0.515890 0.040745 0.181282
H24   H     H_    0.844913 0.514006 0.959165 0.184652
H25   H     H_    0.534176 0.999369 0.784304 0.166659
H26   H     H_    0.465605 0.003053 0.216593 0.160079
H27   H     H_    0.034180 0.499482 0.784325 0.166661
H28   H     H_    0.965599 0.503073 0.216565 0.159886
H29   H     H_    0.673170 0.008110 0.202388 0.181960
H30   H     H_    0.326545 0.005446 0.797413 0.192028
H31   H     H_    0.173170 0.508242 0.202396 0.181957
H32   H     H_    0.826550 0.505586 0.797428 0.191720
N1    N     N_R   0.549130 0.000000 0.284090 -0.129416
N2    N     N_R   0.450870 1.000000 0.715910 -0.129136
N3    N     N_R   0.049130 0.500000 0.284090 -0.129537
N4    N     N_R   0.950870 0.500000 0.715910 -0.129008
O1    O     O_R   0.541320 0.066090 0.608930 -0.634535
O2    O     O_R   0.458680 0.933910 0.391070 -0.638049
O3    O     O_R   0.458680 0.066090 0.391070 -0.629814
O4    O     O_R   0.541320 0.933910 0.608930 -0.640999
O5    O     O_R   0.041320 0.566090 0.608930 -0.634531
O6    O     O_R   0.958680 0.433910 0.391070 -0.638078
O7    O     O_R   0.958680 0.566090 0.391070 -0.629520
O8    O     O_R   0.041320 0.433910 0.608930 -0.641004
O9    O     O_R   0.572880 0.066110 0.470280 -0.576671
O10   O     O_R   0.427120 0.933890 0.529720 -0.569689
O11   O     O_R   0.427120 0.066110 0.529720 -0.579622
O12   O     O_R   0.572880 0.933890 0.470280 -0.566593
O13   O     O_R   0.072880 0.566110 0.470280 -0.576796
O14   O     O_R   0.927120 0.433890 0.529720 -0.569560
O15   O     O_R   0.927120 0.566110 0.529720 -0.579531
O16   O     O_R   0.072880 0.433890 0.470280 -0.566572
Zn1   Zn    Zn3+2 0.478910 1.000000 0.592580 0.979668
Zn2   Zn    Zn3+2 0.521090 1.000000 0.407420 0.984174
Zn3   Zn    Zn3+2 0.978910 0.500000 0.592580 0.979714
Zn4   Zn    Zn3+2 0.021090 0.500000 0.407420 0.984252
C113  C     C_2   0.255951 0.180354 0.751825 0.394438
H33   H     H_    0.296998 0.161785 0.786688 0.070124
O17   O     O_2   0.211563 0.158873 0.772344 -0.500836
C114  C     C_2   0.802681 0.875404 0.318174 0.493669
H34   H     H_    0.769388 0.911003 0.293069 0.093824
O18   O     O_2   0.851324 0.884048 0.302676 -0.565865
C115  C     C_2   0.740110 0.188304 0.245565 0.389874
H35   H     H_    0.699355 0.164685 0.219033 0.065822
O19   O     O_2   0.781361 0.178500 0.207958 -0.508458
C116  C     C_2   0.254791 0.816442 0.749545 0.507037
H36   H     H_    0.293727 0.844332 0.773711 0.079628
O20   O     O_2   0.214175 0.821287 0.789877 -0.560737
C117  C     C_2   0.754750 0.678996 0.750730 0.394865
H37   H     H_    0.795649 0.659967 0.785496 0.070156
O21   O     O_2   0.710191 0.657794 0.770978 -0.501110
C118  C     C_2   0.301979 0.374848 0.316715 0.493845
H38   H     H_    0.268595 0.410359 0.291677 0.093481
O22   O     O_2   0.350471 0.383368 0.300505 -0.565976
C119  C     C_2   0.240010 0.688431 0.245503 0.389851
H39   H     H_    0.199245 0.664845 0.218941 0.065900
O23   O     O_2   0.281273 0.678580 0.207940 -0.508472
C120  C     C_2   0.755037 0.316139 0.749715 0.507016
H40   H     H_    0.794003 0.343971 0.773896 0.079707
O24   O     O_2   0.714433 0.321017 0.790067 -0.560763
C121  C     C_2   0.420426 0.156758 0.265639 0.384455
H41   H     H_    0.467013 0.156512 0.283802 0.084423
O25   O     O_2   0.398081 0.138354 0.190306 -0.565782
C122  C     C_2   0.599043 0.873636 0.751929 0.536897
H42   H     H_    0.553185 0.863830 0.743773 0.070024
O26   O     O_2   0.622017 0.907180 0.815595 -0.537551
C123  C     C_2   0.626584 0.095791 0.751306 0.357585
H43   H     H_    0.583361 0.100727 0.766088 0.071915
O27   O     O_2   0.659066 0.054449 0.790923 -0.535167
C124  C     C_2   0.375495 0.904903 0.247646 0.510329
H44   H     H_    0.418560 0.898265 0.232775 0.069811
O28   O     O_2   0.344523 0.947948 0.208974 -0.549566
C125  C     C_2   0.921610 0.657879 0.266711 0.384849
H45   H     H_    0.968147 0.657457 0.285778 0.084488
O29   O     O_2   0.899803 0.640066 0.190834 -0.566438
C126  C     C_2   0.099246 0.373993 0.752063 0.536575
H46   H     H_    0.053417 0.364011 0.743907 0.070050
O30   O     O_2   0.122106 0.407663 0.815672 -0.537689
C127  C     C_2   0.126578 0.595907 0.751292 0.357698
H47   H     H_    0.083347 0.600776 0.766062 0.071922
O31   O     O_2   0.159116 0.554634 0.790955 -0.535061
C128  C     C_2   0.875473 0.404887 0.247674 0.510355
H48   H     H_    0.918527 0.398260 0.232753 0.069868
O32   O     O_2   0.844488 0.447948 0.209066 -0.550224
C129  C     C_2   0.697150 0.790446 0.815130 0.592743
H49   H     H_    0.742496 0.790414 0.844843 0.034608
O33   O     O_2   0.661627 0.777895 0.863062 -0.493080
C130  C     C_2   0.334450 0.258040 0.218968 0.566460
H50   H     H_    0.368798 0.263261 0.179754 0.088259
O34   O     O_2   0.285169 0.270858 0.183249 -0.543497
C131  C     C_2   0.279279 0.816405 0.189536 0.577516
H51   H     H_    0.232879 0.810620 0.173313 0.031495
O35   O     O_2   0.306741 0.820150 0.127763 -0.510340
C132  C     C_2   0.722462 0.182209 0.806273 0.575476
H52   H     H_    0.698294 0.175419 0.860922 0.074494
O36   O     O_2   0.774906 0.185692 0.824352 -0.536379
C133  C     C_2   0.197812 0.291575 0.815540 0.593181
H53   H     H_    0.243169 0.291989 0.845187 0.034272
O37   O     O_2   0.162412 0.278822 0.863605 -0.492621
C134  C     C_2   0.835585 0.759159 0.219834 0.566020
H54   H     H_    0.870193 0.764691 0.181201 0.089053
O38   O     O_2   0.786422 0.772091 0.183655 -0.544002
C135  C     C_2   0.779283 0.316334 0.189606 0.577418
H55   H     H_    0.732887 0.310504 0.173423 0.031404
O39   O     O_2   0.806717 0.320133 0.127804 -0.510332
C136  C     C_2   0.222337 0.682494 0.806217 0.575438
H56   H     H_    0.198169 0.675694 0.860863 0.074514
O40   O     O_2   0.274777 0.686052 0.824310 -0.536391
Br1   Br    Br    0.335663 0.996623 0.609684 -0.527718
Br2   Br    Br    0.664104 0.002420 0.390491 -0.553625
Br3   Br    Br    0.835657 0.496465 0.609724 -0.528697
Br4   Br    Br    0.164101 0.502429 0.390492 -0.553271

loop_
_geom_bond_atom_site_label_1
_geom_bond_atom_site_label_2
_ccdc_geom_bond_type
C2    O2    A    
C12   C116  S    
C88   C96   A    
C120  H40   S    
C29   C33   A    
C135  O39   D    
C113  H33   S    
C20   H32   S    
C5    C56   S    
C19   C23   A    
C131  H51   S    
C6    C55   S    
C26   H25   S    
C53   C69   A    
C76   C84   A    
C130  O34   D    
C116  H36   S    
C108  H16   S    
C115  O19   D    
C117  H37   S    
C70   C125  S    
C99   C108  A    
C63   C135  S    
C30   C38   A    
C55   C71   A    
C37   C38   A    
C98   C105  A    
C57   C89   A    
C68   C123  S    
C131  O35   D    
C32   C36   A    
C51   C75   A    
C50   C74   A    
C118  O22   D    
C128  O32   D    
C72   C127  S    
C10   C94   A    
C10   C114  S    
O2    Zn2   S    
C63   C95   A    
C33   C45   A    
C118  H38   S    
C62   C70   A    
C24   Br3   S    
C17   H29   S    
C42   C46   A    
C37   C42   A    
C26   N2    A    
C78   H9    S    
C14   C90   A    
C13   C109  A    
C77   H10   S    
C86   C94   A    
C60   C132  S    
C59   C67   A    
C49   C65   A    
C85   C93   A    
C42   H2    S    
C40   C43   A    
C22   N2    A    
C114  O18   D    
C126  H46   S    
C56   C72   A    
C87   C95   A    
C61   C133  S    
C135  H55   S    
C1    O1    A    
C34   C46   A    
O12   Zn2   S    
C59   C131  S    
C3    O3    A    
C43   C47   A    
C64   C136  S    
C97   C102  A    
C52   C68   A    
C65   C122  S    
C43   H3    S    
C78   C86   A    
C117  O21   D    
C99   C104  A    
C35   C47   A    
C123  H43   S    
C125  O29   D    
C83   C99   A    
C79   C87   A    
O5    Zn3   S    
C3    O11   A    
C82   C98   A    
O6    Zn4   S    
C28   H27   S    
C58   C130  S    
C74   C82   A    
C73   C81   A    
C130  H50   S    
C88   C104  A    
C3    C50   S    
C58   C66   A    
O4    Zn1   S    
N1    Zn2   S    
C60   C92   A    
C25   C29   A    
C4    O4    A    
C27   N3    A    
C136  O40   D    
C28   N4    A    
C76   H7    S    
C100  C107  A    
C124  H44   S    
C30   C34   A    
C27   C31   A    
C84   C100  A    
C20   C24   A    
C28   C32   A    
O1    Zn1   S    
C64   C96   A    
C38   C41   A    
C122  O26   D    
C24   N4    A    
C41   H1    S    
C39   C40   A    
C12   C108  A    
C128  H48   S    
C59   C91   A    
O8    Zn3   S    
C121  O25   D    
C101  C110  A    
C125  H45   S    
C7    O15   A    
C100  C103  A    
C17   C21   A    
O11   Zn1   S    
C103  C112  A    
C5    O13   A    
C9    C113  S    
O9    Zn2   S    
O15   Zn3   S    
C127  H47   S    
C133  H53   S    
C15   C111  A    
C46   H22   S    
C55   C79   A    
C116  O20   D    
C115  H35   S    
C54   C70   A    
O16   Zn4   S    
O7    Zn4   S    
C2    O10   A    
C134  O38   D    
C18   H30   S    
C47   H23   S    
C17   C33   A    
C51   C67   A    
C112  H20   S    
C18   C34   A    
C60   C68   A    
C6    O6    A    
C124  O28   D    
C58   C90   A    
C87   C103  A    
C97   C106  A    
C111  H19   S    
C127  O31   D    
N2    Zn1   S    
C63   C71   A    
C16   C92   A    
C62   C134  S    
C32   C40   A    
C62   C94   A    
C8    O16   A    
C53   C77   A    
C133  O37   D    
C49   C73   A    
C10   C106  A    
O3    Zn2   S    
C9    C93   A    
C66   C121  S    
C85   C101  A    
C114  H34   S    
C16   C112  A    
C113  O17   D    
C11   C95   A    
C14   C110  A    
C74   H5    S    
C136  H56   S    
C16   C120  S    
C69   C126  S    
C120  O24   D    
C73   H6    S    
C13   C89   A    
C18   C22   A    
C11   C115  S    
C48   H24   S    
C6    O14   A    
C75   H8    S    
C132  H52   S    
C57   C65   A    
C122  H42   S    
C52   C76   A    
C82   C90   A    
C8    C53   S    
C104  C111  A    
C14   C118  S    
C50   C66   A    
C26   C30   A    
C39   C44   A    
C45   H21   S    
C129  O33   D    
C71   C128  S    
C83   C91   A    
C79   H12   S    
C106  H14   S    
C110  H18   S    
C13   C117  S    
C27   H28   S    
C56   C80   A    
C98   C101  A    
C105  H13   S    
C4    C49   S    
C61   C69   A    
C1    O9    A    
C25   H26   S    
C129  H49   S    
C107  H15   S    
C119  H39   S    
C80   C88   A    
C67   C124  S    
C19   C35   A    
C23   N3    A    
C11   C107  A    
C75   C83   A    
C4    O12   A    
C57   C129  S    
C77   C85   A    
C5    O5    A    
C31   C35   A    
C134  H54   S    
C81   C97   A    
C31   C39   A    
C36   C48   A    
C61   C93   A    
C64   C72   A    
C81   C89   A    
C8    O8    A    
C1    C52   S    
C19   H31   S    
C119  O23   D    
O13   Zn4   S    
C2    C51   S    
C15   C91   A    
O14   Zn3   S    
C20   C36   A    
C7    O7    A    
C44   H4    S    
C126  O30   D    
C121  H41   S    
C29   C37   A    
C123  O27   D    
N4    Zn3   S    
C41   C45   A    
C12   C96   A    
C102  C109  A    
C25   N1    A    
C84   C92   A    
C7    C54   S    
C23   Br4   S    
C109  H17   S    
C9    C105  A    
N3    Zn4   S    
C22   Br1   S    
C15   C119  S    
C132  O36   D    
C44   C48   A    
O10   Zn1   S    
C21   N1    A    
C21   Br2   S    
C54   C78   A    
C80   H11   S    
C86   C102  A    
