data_mof_unit_5779.cif
_audit_creation_date              2013-03-05T15:40:47-0500
_audit_creation_method            fapswitch 2.2
_symmetry_space_group_name_H-M    P1
_symmetry_Int_Tables_number       1
_space_group_crystal_system       triclinic
_cell_length_a                    16.775917
_cell_length_b                    16.775897
_cell_length_c                    16.689088
_cell_angle_alpha                 68.453308
_cell_angle_beta                  68.452696
_cell_angle_gamma                 68.693854
_cell_volume                      3919.05066464

loop_
_atom_site_label
_atom_site_type_symbol
_atom_site_description
_atom_site_fract_x
_atom_site_fract_y
_atom_site_fract_z
_atom_type_partial_charge
O1    O     O_R   0.124540 0.978640 0.385460 -0.500761
O2    O     O_R   0.875460 0.021360 0.614540 -0.513150
O3    O     O_R   0.978640 0.385460 0.124540 -0.510801
O4    O     O_R   0.021360 0.614540 0.875460 -0.510368
O5    O     O_R   0.385460 0.124540 0.978640 -0.517298
O6    O     O_R   0.614540 0.875460 0.021360 -0.499437
O7    O     O_R   0.614540 0.021360 0.875460 -0.510765
O8    O     O_R   0.385460 0.978640 0.124540 -0.510407
O9    O     O_R   0.875460 0.614540 0.021360 -0.517282
O10   O     O_R   0.124540 0.385460 0.978640 -0.499441
O11   O     O_R   0.021360 0.875460 0.614540 -0.500770
O12   O     O_R   0.978640 0.124540 0.385460 -0.513158
Cu1   Cu    Cu3+1 0.995180 0.995180 0.424630 1.161235
Cu2   Cu    Cu3+1 0.004820 0.004820 0.575370 1.161245
Cu3   Cu    Cu3+1 0.995180 0.424630 0.995180 1.112351
Cu4   Cu    Cu3+1 0.004820 0.575370 0.004820 1.112066
Cu5   Cu    Cu3+1 0.424630 0.995180 0.995180 1.112005
Cu6   Cu    Cu3+1 0.575370 0.004820 0.004820 1.112394
C1    C     C_R   0.015995 0.830630 0.569268 0.818296
C2    C     C_R   0.971915 0.171446 0.435499 0.736174
C3    C     C_R   0.828368 0.564750 0.027398 0.888837
C4    C     C_R   0.171737 0.435374 0.972189 0.773564
C5    C     C_R   0.564638 0.028180 0.828150 0.886213
C6    C     C_R   0.435770 0.971149 0.172051 0.756887
C7    C     C_R   0.435249 0.171632 0.972604 0.888842
C8    C     C_R   0.564625 0.828262 0.027813 0.773547
C9    C     C_R   0.971829 0.435359 0.171849 0.886224
C10   C     C_R   0.028849 0.564230 0.827949 0.756907
C11   C     C_R   0.169372 0.984001 0.430733 0.818356
C12   C     C_R   0.828553 0.028093 0.564499 0.736141
O13   O     O_R   0.013780 0.867370 0.487190 -0.580795
O14   O     O_R   0.986220 0.132630 0.512810 -0.594240
O15   O     O_R   0.867370 0.487190 0.013780 -0.612727
O16   O     O_R   0.132630 0.512810 0.986220 -0.608387
O17   O     O_R   0.487190 0.013780 0.867370 -0.612971
O18   O     O_R   0.512810 0.986220 0.132630 -0.603616
O19   O     O_R   0.512810 0.132630 0.986220 -0.612715
O20   O     O_R   0.487190 0.867370 0.013780 -0.608392
O21   O     O_R   0.986220 0.512810 0.132630 -0.612965
O22   O     O_R   0.013780 0.487190 0.867370 -0.603634
O23   O     O_R   0.132630 0.986220 0.512810 -0.580827
O24   O     O_R   0.867370 0.013780 0.487190 -0.594231
H1    H     H_    0.329622 0.106786 0.673484 0.147669
H2    H     H_    0.657718 0.944917 0.325904 0.195672
H3    H     H_    0.868222 0.734181 0.424039 0.183559
H4    H     H_    0.938996 0.308750 0.666358 0.175480
H5    H     H_    0.687695 0.337741 0.053939 0.145687
H6    H     H_    0.314283 0.661686 0.945529 0.185013
H7    H     H_    0.265816 0.131784 0.575959 0.183562
H8    H     H_    0.691253 0.061015 0.333636 0.175482
H9    H     H_    0.662251 0.312303 0.946089 0.145684
H10   H     H_    0.338299 0.685698 0.054545 0.185018
H11   H     H_    0.893211 0.670376 0.326516 0.147670
H12   H     H_    0.055099 0.342285 0.674084 0.195674
C13   C     C_R   0.449482 0.098905 0.696045 -0.022464
C14   C     C_R   0.542768 0.936945 0.303884 -0.007746
C15   C     C_R   0.918913 0.740343 0.520900 0.002038
C16   C     C_R   0.918995 0.295162 0.552318 0.036500
C17   C     C_R   0.702448 0.451227 0.071545 -0.013336
C18   C     C_R   0.298258 0.548309 0.928452 -0.021053
C19   C     C_R   0.259657 0.081094 0.479095 0.002033
C20   C     C_R   0.704840 0.081010 0.447680 0.036540
C21   C     C_R   0.548768 0.297552 0.928479 -0.013367
C22   C     C_R   0.451685 0.701733 0.071596 -0.021054
C23   C     C_R   0.901093 0.550515 0.303956 -0.022447
C24   C     C_R   0.063067 0.457235 0.696106 -0.007764
C25   C     C_R   0.536091 0.055343 0.532920 0.044404
C26   C     C_R   0.444864 0.023455 0.440199 0.045094
C27   C     C_R   0.976558 0.555136 0.559792 0.045091
C28   C     C_R   0.944663 0.463909 0.467077 0.044406
C29   C     C_R   0.543191 0.542345 0.024352 0.044241
C30   C     C_R   0.457644 0.456798 0.975694 0.044242
C31   C     C_R   0.580785 0.037477 0.449027 0.003285
C32   C     C_R   0.396558 0.058905 0.514731 0.011387
C33   C     C_R   0.989641 0.462270 0.591190 0.004158
C34   C     C_R   0.933138 0.556578 0.433560 0.060810
C35   C     C_R   0.456284 0.584576 0.014659 0.007969
C36   C     C_R   0.544570 0.414348 0.985538 0.058760
C37   C     C_R   0.537731 0.010373 0.408801 0.004160
C38   C     C_R   0.443422 0.066868 0.566436 0.060811
C39   C     C_R   0.415409 0.543701 0.985400 0.007970
C40   C     C_R   0.585643 0.455420 0.014503 0.058753
C41   C     C_R   0.962533 0.419216 0.550967 0.003285
C42   C     C_R   0.941105 0.603442 0.485262 0.011388
C43   C     C_R   0.401004 0.091143 0.647492 -0.266878
C44   C     C_R   0.585838 0.965255 0.342286 -0.180620
C45   C     C_R   0.909165 0.696207 0.469518 -0.165597
C46   C     C_R   0.944027 0.336245 0.595494 -0.125455
C47   C     C_R   0.663018 0.409011 0.043660 -0.289913
C48   C     C_R   0.338367 0.590441 0.955837 -0.177772
C49   C     C_R   0.303792 0.090844 0.530475 -0.165594
C50   C     C_R   0.663757 0.055982 0.404501 -0.125473
C51   C     C_R   0.590981 0.336978 0.956370 -0.289911
C52   C     C_R   0.409546 0.661617 0.044227 -0.177759
C53   C     C_R   0.908857 0.598994 0.352508 -0.266884
C54   C     C_R   0.034760 0.414165 0.657702 -0.180606
C55   C     C_R   0.543913 0.070002 0.670836 0.025369
C56   C     C_R   0.448615 0.966158 0.322047 -0.054471
C57   C     C_R   0.975534 0.694030 0.578525 -0.071588
C58   C     C_R   0.936546 0.324927 0.457562 -0.064003
C59   C     C_R   0.675126 0.545497 0.053345 0.020239
C60   C     C_R   0.325270 0.454157 0.946878 -0.066057
C61   C     C_R   0.305971 0.024474 0.421468 -0.071623
C62   C     C_R   0.675074 0.063459 0.542435 -0.063969
C63   C     C_R   0.454498 0.324871 0.946679 0.020236
C64   C     C_R   0.545838 0.674724 0.053152 -0.066050
C65   C     C_R   0.930000 0.456085 0.329163 0.025384
C66   C     C_R   0.033852 0.551388 0.677945 -0.054483
C67   C     C_R   0.599088 0.047385 0.728537 -0.179319
C68   C     C_R   0.400602 0.959148 0.270889 -0.248734
C69   C     C_R   0.011358 0.736806 0.612155 -0.216830
C70   C     C_R   0.954462 0.269864 0.401586 -0.220348
C71   C     C_R   0.729389 0.598873 0.044508 -0.169314
C72   C     C_R   0.270833 0.401100 0.955248 -0.236138
C73   C     C_R   0.263198 0.988637 0.387846 -0.216782
C74   C     C_R   0.730133 0.045558 0.598409 -0.220406
C75   C     C_R   0.401126 0.270611 0.955502 -0.169313
C76   C     C_R   0.598899 0.729165 0.044763 -0.236149
C77   C     C_R   0.952634 0.400906 0.271460 -0.179348
C78   C     C_R   0.040849 0.599402 0.729111 -0.248713
C79   C     C_R   0.692096 0.031616 0.691539 0.250972
C80   C     C_R   0.311778 0.956497 0.311626 0.300142
C81   C     C_R   0.043480 0.688233 0.688386 0.299990
C82   C     C_R   0.968439 0.307896 0.308453 0.251028
C83   C     C_R   0.690457 0.690378 0.039164 0.264689
C84   C     C_R   0.309622 0.309543 0.960839 0.264717
C85   C     C_R   0.585222 0.062021 0.582615 0.043628
C86   C     C_R   0.399885 0.003840 0.395110 0.082557
C87   C     C_R   0.996172 0.600117 0.604881 0.082561
C88   C     C_R   0.937983 0.414778 0.417383 0.043634
C89   C     C_R   0.588433 0.587895 0.042917 0.052007
C90   C     C_R   0.412097 0.411561 0.957117 0.052007
C91   C     C_2   0.398742 0.153418 0.760131 0.457118
H13   H     H_    0.328930 0.156869 0.792505 0.128154
O25   O     O_2   0.432989 0.198654 0.773457 -0.515777
C92   C     C_2   0.596015 0.866258 0.257018 0.474839
H14   H     H_    0.563201 0.830268 0.242290 0.049048
O26   O     O_2   0.677137 0.846278 0.235682 -0.519482
C93   C     C_2   0.855330 0.827754 0.527571 0.438511
H15   H     H_    0.842887 0.851650 0.584342 0.053319
O27   O     O_2   0.814259 0.872561 0.471641 -0.544417
C94   C     C_2   0.859132 0.236169 0.607516 0.473312
H16   H     H_    0.823329 0.219209 0.576199 0.033582
O28   O     O_2   0.848128 0.206980 0.688358 -0.516532
C95   C     C_2   0.756707 0.393251 0.135051 0.458629
H17   H     H_    0.787360 0.323671 0.136621 0.099881
O29   O     O_2   0.764520 0.421545 0.188790 -0.507181
C96   C     C_2   0.242962 0.604232 0.865404 0.509087
H18   H     H_    0.229062 0.574167 0.826133 0.053758
O30   O     O_2   0.212794 0.684190 0.856284 -0.477519
C97   C     C_2   0.172243 0.144671 0.472429 0.438504
H19   H     H_    0.148348 0.157116 0.415658 0.053403
O31   O     O_2   0.127432 0.185735 0.528366 -0.544417
C98   C     C_2   0.763837 0.140872 0.392484 0.473255
H20   H     H_    0.780792 0.176676 0.423803 0.033571
O32   O     O_2   0.793035 0.151871 0.311643 -0.516609
C99   C     C_2   0.606747 0.243301 0.864963 0.458659
H21   H     H_    0.676329 0.212655 0.863386 0.099924
O33   O     O_2   0.578452 0.235490 0.811223 -0.507161
C100  C     C_2   0.395774 0.757035 0.134642 0.509111
H22   H     H_    0.425852 0.770963 0.173882 0.053719
O34   O     O_2   0.315808 0.787173 0.143802 -0.477518
C101  C     C_2   0.846577 0.601251 0.239873 0.457081
H23   H     H_    0.843123 0.671062 0.207498 0.128150
O35   O     O_2   0.801341 0.567001 0.226551 -0.515781
C102  C     C_2   0.133754 0.403991 0.742972 0.474856
H24   H     H_    0.169730 0.436806 0.757718 0.049050
O36   O     O_2   0.153754 0.322868 0.764285 -0.519489
N1    N     N_R   0.749382 0.992384 0.749948 0.153358
O37   O     O_R   0.773253 0.042648 0.775800 -0.272733
O38   O     O_R   0.784502 0.906943 0.769807 -0.320734
N2    N     N_R   0.273379 0.915384 0.278532 0.141756
O39   O     O_R   0.224534 0.963554 0.223452 -0.246747
O40   O     O_R   0.276866 0.831380 0.313589 -0.345054
N3    N     N_R   0.084456 0.726688 0.721576 0.141853
O41   O     O_R   0.036156 0.775563 0.776611 -0.246729
O42   O     O_R   0.168485 0.723171 0.686690 -0.344963
N4    N     N_R   0.007783 0.250607 0.250040 0.153334
O43   O     O_R   0.957612 0.226677 0.224129 -0.272658
O44   O     O_R   0.093225 0.215491 0.230299 -0.321003
N5    N     N_R   0.745709 0.745704 0.023362 0.152677
O45   O     O_R   0.786224 0.781893 0.941916 -0.271886
O46   O     O_R   0.754246 0.761170 0.090227 -0.313675
N6    N     N_R   0.254300 0.254296 0.976618 0.152668
O47   O     O_R   0.218092 0.213780 0.058057 -0.271865
O48   O     O_R   0.238842 0.245776 0.909740 -0.313704

loop_
_geom_bond_atom_site_label_1
_geom_bond_atom_site_label_2
_geom_bond_distance
_ccdc_geom_bond_type
C79   N1    1.436736 S    
C13   C43   1.404795 A    
C99   H21   1.085753 S    
C56   C68   1.428020 A    
H11   C53   1.079228 S    
C59   C71   1.431417 A    
N1    O37   1.302708 A    
C66   C78   1.428031 A    
C84   N6    1.433867 S    
C101  H23   1.084326 S    
C42   C45   1.405371 A    
C14   C56   1.421908 A    
C55   C85   1.412030 A    
C1    O13   1.287725 A    
C34   C42   1.428229 A    
C95   H17   1.085750 S    
N3    O42   1.300590 A    
C12   C74   1.488660 S    
N5    O45   1.301256 A    
O10   C4    1.301021 A    
C4    O16   1.289974 A    
C101  O35   1.220696 D    
O11   C1    1.288821 A    
C6    O18   1.287554 A    
C40   C47   1.406811 A    
H3    C45   1.078654 S    
O9    Cu4   1.968346 S    
C60   C90   1.413592 A    
C70   C82   1.410861 A    
O10   Cu3   1.968346 S    
C34   C53   1.410359 A    
C72   C84   1.415728 A    
O11   Cu2   1.966578 S    
C18   C60   1.421314 A    
C3    O15   1.289198 A    
C10   O22   1.287552 A    
C36   C51   1.406813 A    
C26   C32   1.417851 A    
Cu3   Cu4   2.657441 S    
C15   C57   1.420086 A    
C35   C52   1.405871 A    
C28   C88   1.420277 A    
N6    O47   1.301261 A    
C15   C93   1.482064 S    
C17   C47   1.401533 A    
C16   C94   1.486506 S    
C30   C36   1.412815 A    
C7    O19   1.289197 A    
C2    C70   1.488649 S    
C9    O21   1.289232 A    
C81   N3    1.435258 S    
C20   C50   1.402812 A    
C97   H19   1.083889 S    
H10   C52   1.081882 S    
C25   C31   1.409282 A    
C76   C83   1.415729 A    
C21   C63   1.423387 A    
C75   C84   1.415850 A    
C26   C86   1.422427 A    
C58   C88   1.412236 A    
C98   O32   1.221316 D    
C30   C39   1.411440 A    
C78   C81   1.402295 A    
C29   C40   1.412816 A    
Cu4   O16   1.977431 S    
C26   C37   1.409339 A    
C56   C86   1.418857 A    
C41   C46   1.403879 A    
C11   C73   1.488762 S    
C99   O33   1.221107 D    
C73   C80   1.412790 A    
C62   C74   1.429038 A    
Cu1   Cu2   2.645333 S    
C64   C76   1.432277 A    
C102  O36   1.221245 D    
C63   C75   1.431424 A    
C13   C55   1.422590 A    
H7    C49   1.078663 S    
C65   C88   1.412021 A    
H2    C44   1.082876 S    
C65   C77   1.434992 A    
Cu1   O24   1.973193 S    
C95   O29   1.221096 D    
N2    O40   1.300504 A    
C33   C54   1.404141 A    
C30   C90   1.422707 A    
C63   C90   1.412313 A    
C20   C62   1.421835 A    
C23   C101  1.479461 S    
N5    O46   1.300045 A    
C23   C65   1.422590 A    
C64   C89   1.413595 A    
O6    Cu6   1.968348 S    
C74   C79   1.410858 A    
C57   C87   1.414901 A    
C23   C53   1.404802 A    
C83   N5    1.433862 S    
C17   C59   1.423388 A    
N4    O43   1.302687 A    
C16   C58   1.421831 A    
C96   H18   1.085747 S    
C3    C71   1.499140 S    
C10   C78   1.495690 S    
C24   C66   1.421905 A    
C24   C102  1.488014 S    
C8    O20   1.289987 A    
C13   C91   1.479461 S    
C69   C81   1.412784 A    
C66   C87   1.418867 A    
C15   C45   1.402736 A    
C16   C46   1.402816 A    
H1    C43   1.079231 S    
C32   C49   1.405377 A    
O4    Cu4   1.954511 S    
C61   C73   1.431150 A    
C38   C43   1.410355 A    
C60   C72   1.432287 A    
C25   C85   1.420283 A    
C55   C67   1.434987 A    
C36   C40   1.420382 A    
C14   C44   1.404081 A    
N3    O41   1.302362 A    
C35   C39   1.418613 A    
O7    Cu6   1.954507 S    
C57   C69   1.431134 A    
O12   C2    1.295485 A    
O1    C11   1.288836 A    
Cu5   Cu6   2.657447 S    
C31   C37   1.413565 A    
C6    C68   1.495685 S    
O5    Cu5   1.968348 S    
C22   C64   1.421308 A    
C28   C41   1.409283 A    
C19   C97   1.482053 S    
C98   H20   1.085758 S    
H9    C51   1.082647 S    
Cu2   O23   1.973194 S    
O5    C7    1.300460 A    
C39   C48   1.405856 A    
C96   O30   1.221412 D    
C92   O26   1.221240 D    
C14   C92   1.488011 S    
H5    C47   1.082651 S    
C1    C69   1.488740 S    
C28   C34   1.410440 A    
C91   H13   1.084337 S    
C94   O28   1.221312 D    
O1    Cu1   1.966571 S    
C21   C99   1.485243 S    
C19   C61   1.420080 A    
O9    C3    1.300452 A    
C17   C95   1.485241 S    
C29   C35   1.411432 A    
O3    Cu3   1.954509 S    
N2    O39   1.302273 A    
C24   C54   1.404087 A    
C2    O14   1.281842 A    
H8    C50   1.082987 S    
C61   C86   1.414907 A    
H6    C48   1.081882 S    
C11   O23   1.287721 A    
C82   N4    1.436727 S    
Cu1   O13   1.973203 S    
C12   O24   1.281850 A    
C25   C38   1.410446 A    
C8    C76   1.501251 S    
C31   C50   1.403880 A    
Cu2   O14   1.973202 S    
C92   H14   1.085318 S    
C7    C75   1.499146 S    
N4    O44   1.300847 A    
C93   H15   1.083891 S    
C58   C70   1.429041 A    
O6    C8    1.301013 A    
C9    C77   1.495882 S    
C18   C96   1.485682 S    
C21   C51   1.401532 A    
C80   N2    1.435180 S    
C22   C100  1.485697 S    
N6    O48   1.300046 A    
H4    C46   1.082987 S    
O2    C12   1.295483 A    
C100  H22   1.085745 S    
O3    C9    1.298794 A    
C22   C52   1.403559 A    
C27   C42   1.417859 A    
C68   C80   1.402283 A    
O8    Cu5   1.954505 S    
C93   O27   1.221359 D    
C33   C41   1.413563 A    
C102  H24   1.085315 S    
C62   C85   1.412244 A    
O7    C5    1.298800 A    
O8    C6    1.303135 A    
C59   C89   1.412308 A    
C27   C33   1.409336 A    
C77   C82   1.413548 A    
Cu5   O20   1.977435 S    
C97   O31   1.221353 D    
O2    Cu2   1.966570 S    
C5    O17   1.289237 A    
Cu3   O22   1.963014 S    
Cu4   O21   1.963013 S    
C29   C89   1.422698 A    
C20   C98   1.486512 S    
C4    C72   1.501244 S    
C71   C83   1.415854 A    
O12   Cu1   1.966578 S    
C27   C87   1.422428 A    
O4    C10   1.303130 A    
C91   O25   1.220707 D    
C94   H16   1.085756 S    
Cu6   O19   1.977436 S    
C18   C48   1.403550 A    
C32   C38   1.428232 A    
C67   C79   1.413542 A    
Cu5   O17   1.963007 S    
Cu6   O18   1.963005 S    
H12   C54   1.082874 S    
Cu3   O15   1.977432 S    
C37   C44   1.404137 A    
C19   C49   1.402742 A    
C5    C67   1.495900 S    
C100  O34   1.221412 D    
N1    O38   1.300881 A    
