data_mof_unit_8088.cif
_audit_creation_date              2012-10-26T20:13:56-0400
_audit_creation_method            fapswitch 2.2
_symmetry_space_group_name_H-M    P1
_symmetry_Int_Tables_number       1
_space_group_crystal_system       triclinic
_cell_length_a                    8.739036
_cell_length_b                    10.858573
_cell_length_c                    9.568331
_cell_angle_alpha                 88.702236
_cell_angle_beta                  97.472545
_cell_angle_gamma                 89.208123
_cell_volume                      899.901227601

loop_
_atom_site_label
_atom_site_type_symbol
_atom_type_description
_atom_site_fract_x
_atom_site_fract_y
_atom_site_fract_z
_atom_type_partial_charge
C1    C     C_R   0.503019 0.262433 0.501525 0.550833
C2    C     C_R   0.558256 0.596990 0.930964 0.091628
C3    C     C_3   0.718057 0.644826 0.943161 -0.287437
C4    C     C_R   0.204084 0.499847 0.464105 0.541218
C5    C     C_3   0.716103 0.646108 0.101737 -0.263448
C6    C     C_R   0.497326 0.737608 0.497941 0.567498
C7    C     C_R   0.795861 0.501083 0.535752 0.540487
C8    C     C_2   0.038611 0.497219 0.444279 -0.159636
C9    C     C_2   0.961200 0.505038 0.554958 -0.170434
C10   C     C_R   0.526957 0.058786 0.627410 -0.051767
C11   C     C_R   0.514238 0.129165 0.502522 -0.059341
C12   C     C_R   0.498860 0.940773 0.368312 0.234444
C13   C     C_R   0.511630 0.068843 0.374029 -0.156387
C14   C     C_3   0.180299 0.332333 0.853392 0.007226
C15   C     C_3   0.135508 0.233156 0.957902 -0.286056
C16   C     C_3   0.046010 0.288809 0.069140 -0.485287
C17   C     C_3   0.327532 0.916290 0.168052 0.003470
C18   C     C_3   0.220955 0.806425 0.174447 -0.240447
C19   C     C_3   0.054739 0.840908 0.116552 -0.512667
C20   C     C_3   0.200790 0.801087 0.757705 -0.018958
C21   C     C_3   0.027548 0.793815 0.714156 -0.372960
C22   C     C_3   0.666862 0.078565 0.902022 -0.000987
C23   C     C_R   0.502472 0.871036 0.495008 0.045412
C24   C     C_3   0.726073 0.088101 0.057484 -0.386940
C25   C     C_R   0.515723 0.932063 0.622306 -0.061494
C26   C     C_3   0.412837 0.923960 0.735451 0.149829
C27   C     C_3   0.430592 0.062605 0.747148 0.212697
C28   C     C_R   0.556756 0.597618 0.077697 0.158566
C29   C     C_R   0.427320 0.411528 0.068721 -0.006773
C30   C     C_R   0.420422 0.414022 0.918532 0.386801
Cu1   Cu    Cu3+1 0.499990 0.499980 0.640670 0.971941
Cu2   Cu    Cu3+1 0.500010 0.500020 0.359330 0.928698
H1    H     H_    0.980425 0.487163 0.337907 0.116204
H2    H     H_    0.376001 0.337442 0.121896 0.135642
H3    H     H_    0.115840 0.313673 0.748408 0.144461
H4    H     H_    0.141432 0.426662 0.879333 0.099249
H5    H     H_    0.062615 0.162860 0.899879 0.129702
H6    H     H_    0.239655 0.183352 0.011128 0.190483
H7    H     H_    0.107479 0.368247 0.119749 0.157959
H8    H     H_    0.033537 0.218754 0.152904 0.143337
H9    H     H_    0.929698 0.320657 0.019696 0.149822
H10   H     H_    0.339247 0.938642 0.056286 0.160620
H11   H     H_    0.272077 0.999127 0.208782 0.120733
H12   H     H_    0.802475 0.576994 0.910970 0.144545
H13   H     H_    0.262286 0.730017 0.112878 0.161643
H14   H     H_    0.223193 0.773417 0.285425 0.195493
H15   H     H_    0.001179 0.895338 0.194850 0.154703
H16   H     H_    0.989276 0.755403 0.096107 0.147119
H17   H     H_    0.048279 0.895612 0.016522 0.139349
H18   H     H_    0.220885 0.819527 0.871914 0.110422
H19   H     H_    0.255068 0.711014 0.738823 0.179079
H20   H     H_    0.002938 0.773841 0.600186 0.164205
H21   H     H_    0.979649 0.719466 0.776162 0.088876
H22   H     H_    0.970566 0.882573 0.734321 0.144183
H23   H     H_    0.721989 0.738525 0.894669 0.117320
H24   H     H_    0.722924 0.150505 0.842491 0.156848
H25   H     H_    0.700825 0.985588 0.869034 0.103726
H26   H     H_    0.673202 0.016057 0.118571 0.191272
H27   H     H_    0.852698 0.072789 0.073642 0.090685
H28   H     H_    0.698058 0.180541 0.095664 0.161011
H29   H     H_    0.799889 0.579497 0.159930 0.138214
H30   H     H_    0.718093 0.740468 0.144557 0.163415
H31   H     H_    0.019520 0.516034 0.660971 0.103226
H32   H     H_    0.506889 0.120832 0.275587 0.142657
H33   H     H_    0.466305 0.868827 0.829644 0.110455
H34   H     H_    0.320050 0.114367 0.717540 0.187129
N1    N     N_R   0.500980 0.500930 0.148050 -0.273525
N2    N     N_R   0.500990 0.500890 0.852140 -0.236153
O1    O     O_R   0.500000 0.319640 0.618810 -0.436987
O2    O     O_3   0.476523 0.885261 0.238589 -0.575514
O3    O     O_3   0.260206 0.895209 0.677538 -0.583907
O4    O     O_3   0.504710 0.097516 0.882006 -0.557696
O5    O     O_R   0.500020 0.319680 0.381230 -0.525410
O6    O     O_R   0.274830 0.499980 0.591380 -0.493762
O7    O     O_R   0.274850 0.500020 0.353800 -0.519789
O8    O     O_R   0.499980 0.680320 0.618770 -0.523388
O9    O     O_R   0.500000 0.680360 0.381190 -0.459140
O10   O     O_R   0.725150 0.499980 0.646200 -0.511218
O11   O     O_R   0.725170 0.500020 0.408620 -0.500001
O12   O     O_3   0.339792 0.325187 0.839492 -0.517027

loop_
_geom_bond_atom_site_label_1
_geom_bond_atom_site_label_2
_ccdc_geom_bond_type
C10   C27   S    
C1    C11   S    
C4    C8    S    
Cu2   O7    S    
C12   C23   A    
C26   C27   S    
C20   H19   S    
C2    N2    A    
C14   H4    S    
C21   H22   S    
C19   H15   S    
C15   C16   S    
C18   C19   S    
C17   H10   S    
C15   H5    S    
C4    O7    A    
C20   H18   S    
Cu2   O9    S    
C29   N1    A    
C3    H23   S    
C8    C9    D    
C20   O3    S    
C14   O12   S    
C4    O6    A    
C30   O12   S    
C17   O2    S    
C26   O3    S    
C22   H25   S    
C18   H14   S    
C22   O4    S    
Cu1   N2    S    
C3    H12   S    
C28   N1    A    
Cu2   O5    S    
C19   H16   S    
C6    O9    A    
C22   H24   S    
C25   C26   S    
C29   H2    S    
C1    O1    A    
C17   H11   S    
C15   H6    S    
C29   C30   A    
C5    C28   S    
C19   H17   S    
Cu1   Cu2   S    
C24   H28   S    
C17   C18   S    
C5    H29   S    
C12   C13   A    
C16   H8    S    
Cu2   N1    S    
C10   C25   A    
C7    O10   A    
C22   C24   S    
C18   H13   S    
C14   H3    S    
Cu1   O10   S    
C7    O11   A    
C7    C9    S    
C12   O2    S    
C9    H31   S    
C26   H33   S    
C3    C5    S    
C6    O8    A    
C1    O5    A    
C2    C3    S    
C27   H34   S    
Cu2   O11   S    
C21   H21   S    
C11   C13   A    
Cu1   O8    S    
C13   H32   S    
C24   H27   S    
C6    C23   S    
C5    H30   S    
C8    H1    S    
C23   C25   A    
Cu1   O6    S    
C10   C11   A    
C16   H7    S    
Cu1   O1    S    
C20   C21   S    
C24   H26   S    
C14   C15   S    
C2    C28   A    
C16   H9    S    
C21   H20   S    
C30   N2    A    
C27   O4    S    
