data_mof_unit_18473.cif
_audit_creation_date              2012-12-10T19:47:57-0500
_audit_creation_method            fapswitch 2.2
_symmetry_space_group_name_H-M    P1
_symmetry_Int_Tables_number       1
_space_group_crystal_system       triclinic
_cell_length_a                    14.840314
_cell_length_b                    14.173884
_cell_length_c                    10.683974
_cell_angle_alpha                 89.93164
_cell_angle_beta                  89.478194
_cell_angle_gamma                 90.174676
_cell_volume                      2247.21401101

loop_
_atom_site_label
_atom_site_type_symbol
_atom_type_description
_atom_site_fract_x
_atom_site_fract_y
_atom_site_fract_z
_atom_type_partial_charge
C1    C     C_R   0.327386 0.499875 0.502769 0.837566
C2    C     C_R   0.672634 0.500159 0.506625 0.825402
C3    C     C_R   0.048611 0.507019 0.574259 0.103686
C4    C     C_R   0.950971 0.502921 0.582450 0.151861
C5    C     C_R   0.427561 0.104976 0.551688 -0.279182
C6    C     C_R   0.543209 0.894973 0.404214 -0.281443
C7    C     C_R   0.572502 0.105500 0.448660 -0.281288
C8    C     C_R   0.456625 0.894443 0.595896 -0.283012
C9    C     C_R   0.429070 0.204215 0.551043 0.030522
C10   C     C_R   0.542659 0.795739 0.406181 0.016992
C11   C     C_R   0.570990 0.204732 0.449145 0.018815
C12   C     C_R   0.457187 0.795208 0.593790 0.017544
C13   C     C_R   0.500014 0.053349 0.500176 0.139061
C14   C     C_R   0.499959 0.946596 0.500118 0.139172
C15   C     C_R   0.501173 0.500105 0.260514 0.888168
C16   C     C_R   0.499047 0.499920 0.739270 0.879052
C17   C     C_R   0.339041 0.542671 0.132740 -0.361179
C18   C     C_R   0.660175 0.455724 0.865495 -0.366467
C19   C     C_R   0.337985 0.542105 0.872720 -0.389124
C20   C     C_R   0.664171 0.460735 0.125329 -0.411959
C21   C     C_R   0.259767 0.565087 0.069563 0.508385
C22   C     C_R   0.739993 0.434605 0.926967 0.520626
C23   C     C_R   0.259034 0.565628 0.938659 0.503672
C24   C     C_R   0.744288 0.439268 0.057360 0.500982
C25   C     C_R   0.419233 0.522086 0.936046 0.002054
C26   C     C_R   0.581909 0.479163 0.063004 0.019312
C27   C     C_R   0.419924 0.522368 0.066603 0.000227
C28   C     C_R   0.580462 0.477818 0.932556 -0.000682
C29   C     C_R   0.499449 0.499645 0.871502 -0.078175
C30   C     C_R   0.501117 0.500536 0.127985 -0.084709
C31   C     C_R   0.089166 0.577533 0.500463 -0.181038
C32   C     C_R   0.907161 0.417008 0.560004 -0.151244
C33   C     C_R   0.901493 0.586542 0.592037 -0.143155
C34   C     C_R   0.100636 0.434517 0.625352 -0.098837
C35   C     C_R   0.180630 0.574650 0.476260 -0.169437
C36   C     C_R   0.815441 0.415713 0.538891 -0.198270
C37   C     C_R   0.810257 0.585648 0.567137 -0.175473
C38   C     C_R   0.191954 0.430533 0.598529 -0.176020
C39   C     C_R   0.231568 0.500200 0.522980 -0.030320
C40   C     C_R   0.767676 0.500652 0.535710 -0.041567
H1    H     H_    0.335958 0.541201 0.233872 0.176604
H2    H     H_    0.661936 0.454109 0.764484 0.181575
H3    H     H_    0.334541 0.537983 0.771947 0.165710
H4    H     H_    0.665410 0.463869 0.226130 0.156620
H5    H     H_    0.049852 0.632989 0.457802 0.126746
H6    H     H_    0.944327 0.351686 0.551242 0.110964
H7    H     H_    0.934290 0.653113 0.612316 0.117783
H8    H     H_    0.070321 0.380221 0.683587 0.132535
H9    H     H_    0.211529 0.629731 0.420148 0.150993
H10   H     H_    0.782995 0.348888 0.519085 0.138859
H11   H     H_    0.773643 0.651600 0.570378 0.156393
H12   H     H_    0.231828 0.374274 0.638396 0.139238
H13   H     H_    0.369213 0.069298 0.590793 0.131249
H14   H     H_    0.576302 0.930651 0.326844 0.135294
H15   H     H_    0.630860 0.070236 0.409628 0.132089
H16   H     H_    0.423466 0.929703 0.673266 0.132508
H17   H     H_    0.373042 0.242697 0.591200 0.121364
H18   H     H_    0.576240 0.757168 0.332046 0.130201
H19   H     H_    0.627049 0.243615 0.408984 0.119732
H20   H     H_    0.423487 0.756214 0.667785 0.123902
N1    N     N_R   0.500000 0.252470 0.500000 -0.090364
N2    N     N_R   0.500000 0.747530 0.500000 -0.091841
O1    O     O_R   0.369060 0.579480 0.500010 -0.633240
O2    O     O_R   0.630940 0.420520 0.499990 -0.638277
O3    O     O_R   0.630940 0.579480 0.499990 -0.617092
O4    O     O_R   0.369060 0.420520 0.500010 -0.620965
O5    O     O_R   0.499990 0.579480 0.316780 -0.626124
O6    O     O_R   0.500010 0.420520 0.683220 -0.618654
O7    O     O_R   0.500010 0.579480 0.683220 -0.623558
O8    O     O_R   0.499990 0.420520 0.316780 -0.606455
Zn1   Zn    Zn3+2 0.500000 0.606140 0.500000 0.933926
Zn2   Zn    Zn3+2 0.500000 0.393860 0.500000 0.942220
O9    O     O_3   0.828658 0.421285 0.109160 -0.574756
C41   C     C_3   0.831159 0.429021 0.240119 -0.277788
H21   H     H_    0.786975 0.374887 0.284656 0.145535
H22   H     H_    0.813856 0.501766 0.270706 0.164013
H23   H     H_    0.901011 0.415019 0.271035 0.209789
O10   O     O_3   0.178583 0.581113 0.877312 -0.561378
C42   C     C_3   0.186411 0.662326 0.801310 -0.305997
H24   H     H_    0.229837 0.649165 0.718095 0.168877
H25   H     H_    0.212378 0.724048 0.854503 0.127118
H26   H     H_    0.118469 0.680915 0.766746 0.197737
O11   O     O_3   0.816613 0.414197 0.857946 -0.558646
C43   C     C_3   0.817865 0.316269 0.834978 -0.262788
H27   H     H_    0.760699 0.294779 0.774468 0.143115
H28   H     H_    0.816892 0.274980 0.923751 0.166951
H29   H     H_    0.881275 0.298638 0.784634 0.182551
O12   O     O_3   0.181312 0.580759 0.136737 -0.564968
C44   C     C_3   0.174798 0.678145 0.161715 -0.307212
H30   H     H_    0.164963 0.719063 0.074136 0.172996
H31   H     H_    0.234873 0.704961 0.212506 0.135864
H32   H     H_    0.114935 0.690193 0.222475 0.188533

loop_
_geom_bond_atom_site_label_1
_geom_bond_atom_site_label_2
_ccdc_geom_bond_type
O9    C41   S    
C19   C23   A    
C43   H29   S    
C7    H15   S    
C2    O3    A    
C8    H16   S    
C7    C11   A    
C41   H22   S    
C9    N1    A    
C32   C36   A    
C5    H13   S    
C28   C29   A    
C10   H18   S    
C43   H28   S    
C37   C40   A    
C18   H2    S    
C38   C39   A    
C37   H11   S    
C24   O9    S    
O5    Zn1   S    
C38   H12   S    
O7    Zn1   S    
O4    Zn2   S    
C20   C24   A    
C19   H3    S    
C41   H23   S    
C35   H9    S    
C16   O6    A    
C44   H31   S    
C5    C13   A    
O6    Zn2   S    
C21   O12   S    
C34   C38   A    
C13   C14   S    
C27   C30   A    
C10   N2    A    
C6    H14   S    
C11   H19   S    
C1    O1    A    
C20   H4    S    
C2    O2    A    
C25   C29   A    
C41   H21   S    
C17   C27   A    
C36   C40   A    
C18   C28   A    
C43   H27   S    
C42   H25   S    
O10   C42   S    
C3    C34   A    
C16   C29   S    
O3    Zn1   S    
C33   C37   A    
C35   C39   A    
C5    C9    A    
C6    C14   A    
C12   N2    A    
O11   C43   S    
C8    C12   A    
C15   O5    A    
C1    O4    A    
C44   H32   S    
C3    C31   A    
C4    C32   A    
N1    Zn2   S    
O1    Zn1   S    
C26   C30   A    
C21   C23   A    
C33   H7    S    
C22   C24   A    
C34   H8    S    
C3    C4    S    
C36   H10   S    
C15   C30   S    
C15   O8    A    
C4    C33   A    
C8    C14   A    
C18   C22   A    
C32   H6    S    
C16   O7    A    
C11   N1    A    
C6    C10   A    
C42   H26   S    
C25   C27   A    
C26   C28   A    
C22   O11   S    
C20   C26   A    
C31   C35   A    
N2    Zn1   S    
C9    H17   S    
O2    Zn2   S    
C23   O10   S    
C19   C25   A    
C17   H1    S    
C1    C39   S    
C42   H24   S    
C12   H20   S    
C2    C40   S    
C7    C13   A    
O12   C44   S    
C31   H5    S    
O8    Zn2   S    
C44   H30   S    
C17   C21   A    
