data_mof_unit_15983.cif
_audit_creation_date              2012-12-10T19:32:18-0500
_audit_creation_method            fapswitch 2.2
_symmetry_space_group_name_H-M    P1
_symmetry_Int_Tables_number       1
_space_group_crystal_system       triclinic
_cell_length_a                    23.512774
_cell_length_b                    15.702806
_cell_length_c                    14.9084
_cell_angle_alpha                 90.521661
_cell_angle_beta                  90.027733
_cell_angle_gamma                 90.369226
_cell_volume                      5504.08445179

loop_
_atom_site_label
_atom_site_type_symbol
_atom_type_description
_atom_site_fract_x
_atom_site_fract_y
_atom_site_fract_z
_atom_type_partial_charge
C1    C     C_R   0.500896 0.337564 0.499547 0.951138
C2    C     C_R   0.499187 0.662472 0.500400 0.937939
C3    C     C_R   0.236064 0.538880 0.438736 -0.153885
C4    C     C_R   0.763821 0.459620 0.438164 -0.157944
C5    C     C_R   0.294980 0.541397 0.434928 0.277186
C6    C     C_R   0.704891 0.457596 0.434192 0.310965
C7    C     C_R   0.326512 0.497488 0.501085 -0.362789
C8    C     C_R   0.673501 0.501688 0.501189 -0.361239
C9    C     C_R   0.297491 0.455258 0.572080 0.310072
C10   C     C_R   0.702668 0.543463 0.573134 0.307620
C11   C     C_R   0.239070 0.471478 0.585009 0.057297
C12   C     C_R   0.761004 0.526721 0.585847 0.062588
C13   C     C_R   0.208175 0.506154 0.513285 0.132512
C14   C     C_R   0.791804 0.492026 0.513441 0.131319
C15   C     C_3   0.546099 0.970982 0.456223 -0.015808
C16   C     C_3   0.453172 0.029314 0.543806 -0.034990
C17   C     C_3   0.498776 0.025529 0.413425 -0.030761
C18   C     C_3   0.500580 0.974716 0.586587 -0.030242
C19   C     C_1   0.501217 0.248883 0.498401 -0.067222
C20   C     C_1   0.498647 0.751212 0.501437 -0.076172
C21   C     C_3   0.547235 0.028541 0.540686 0.396085
C22   C     C_3   0.452092 0.971711 0.459227 0.384170
C23   C     C_R   0.388955 0.499151 0.499992 0.967509
C24   C     C_R   0.611049 0.500588 0.499998 0.981908
C25   C     C_3   0.500259 0.082709 0.498214 -0.085906
C26   C     C_3   0.499079 0.917463 0.501699 -0.081385
C27   C     C_1   0.501084 0.173715 0.497711 0.042411
C28   C     C_1   0.498525 0.826415 0.502094 0.043249
C29   C     C_3   0.502339 0.420935 0.969269 0.533316
C30   C     C_3   0.497279 0.578963 0.030727 0.536732
C31   C     C_3   0.547955 0.463292 0.029848 -0.243590
C32   C     C_3   0.451679 0.536593 0.970134 -0.245771
C33   C     C_3   0.454285 0.455670 0.029747 -0.238862
C34   C     C_3   0.545349 0.544246 0.970258 -0.247409
C35   C     C_3   0.499854 0.499386 0.089657 -0.126931
C36   C     C_3   0.499791 0.500514 0.910337 -0.124491
C37   C     C_1   0.499946 0.499667 0.189755 0.303173
C38   C     C_1   0.499888 0.500284 0.810244 0.282623
C39   C     C_R   0.879710 0.570592 0.510730 0.587057
C40   C     C_R   0.120271 0.427517 0.509047 0.586906
C41   C     C_R   0.881400 0.418682 0.513870 0.599629
C42   C     C_R   0.118565 0.579426 0.515271 0.599545
C43   C     C_R   0.941160 0.418581 0.517130 -0.160498
C44   C     C_R   0.058813 0.579514 0.518614 -0.159682
C45   C     C_R   0.970063 0.497925 0.511614 -0.100493
C46   C     C_R   0.029909 0.500166 0.511581 -0.101053
C47   C     C_R   0.939333 0.575050 0.506259 -0.158547
C48   C     C_R   0.060635 0.423044 0.504646 -0.158302
C49   C     C_R   0.972848 0.342156 0.521450 0.310431
C50   C     C_R   0.027128 0.655940 0.524464 0.314107
C51   C     C_R   0.030775 0.344315 0.498511 0.262495
C52   C     C_R   0.969178 0.653775 0.501572 0.262364
H1    H     H_    0.587288 0.432115 0.053904 0.219488
H2    H     H_    0.412333 0.567741 0.946094 0.199596
H3    H     H_    0.582478 0.581650 0.946284 0.215012
H4    H     H_    0.417151 0.418266 0.053684 0.206216
H5    H     H_    0.211054 0.565973 0.385203 0.210023
H6    H     H_    0.788752 0.432468 0.384093 0.210971
N1    N     N_R   0.852617 0.493616 0.513247 -0.359213
N2    N     N_R   0.147358 0.504500 0.513079 -0.359088
N3    N     N_1   0.500020 0.500000 0.268010 -0.048304
N4    N     N_1   0.499980 0.500000 0.731990 -0.054488
O1    O     O_R   0.500000 0.376780 0.574460 -0.562676
O2    O     O_R   0.500000 0.623220 0.425540 -0.578271
O3    O     O_R   0.500010 0.376780 0.425520 -0.610878
O4    O     O_R   0.499990 0.623220 0.574480 -0.600504
O5    O     O_R   0.416150 0.499970 0.574490 -0.577252
O6    O     O_R   0.583850 0.500030 0.425510 -0.558538
O7    O     O_R   0.416160 0.499980 0.425550 -0.561705
O8    O     O_R   0.583840 0.500020 0.574450 -0.567545
O9    O     O_2   0.848471 0.642095 0.516334 -0.450431
O10   O     O_2   0.151535 0.356028 0.513114 -0.454025
O11   O     O_2   0.851729 0.345132 0.508352 -0.454728
O12   O     O_2   0.148220 0.652991 0.511220 -0.458446
Zn1   Zn    Zn3+2 0.499990 0.500000 0.599450 1.122306
Zn2   Zn    Zn3+2 0.500010 0.500000 0.400550 1.129149
S1    S     S_3+6 0.944709 0.248902 0.573495 0.145402
O13   O     O_2   0.912038 0.196336 0.505985 -0.170719
O14   O     O_2   0.991688 0.196063 0.611994 -0.192699
O15   O     O_3   0.900999 0.277653 0.657694 -0.524020
H7    H     H_    0.883871 0.223672 0.678886 0.403472
S2    S     S_3+6 0.055317 0.749216 0.578234 0.141173
O16   O     O_2   0.087903 0.801772 0.511673 -0.172909
O17   O     O_2   0.008376 0.802055 0.617790 -0.191848
O18   O     O_3   0.099124 0.720508 0.661839 -0.529544
H8    H     H_    0.116272 0.774501 0.684020 0.395684
S3    S     S_3+6 0.505594 0.314117 0.928463 0.047464
O19   O     O_2   0.454030 0.295388 0.871854 -0.258702
O20   O     O_2   0.558391 0.303222 0.872876 -0.263078
O21   O     O_3   0.507254 0.247285 0.015864 -0.552722
H9    H     H_    0.508697 0.189575 0.988585 0.382137
S4    S     S_3+6 0.493695 0.685726 0.071612 0.048849
O22   O     O_2   0.441449 0.695751 0.128673 -0.217945
O23   O     O_2   0.545743 0.705335 0.126771 -0.293168
O24   O     O_3   0.490547 0.752497 0.984277 -0.558001
H10   H     H_    0.488579 0.810144 0.011610 0.382400
S5    S     S_3+6 0.061104 0.252632 0.445667 0.162263
O25   O     O_2   0.100620 0.279307 0.371619 -0.244823
O26   O     O_2   0.093973 0.202378 0.513322 -0.127826
O27   O     O_3   0.010344 0.189513 0.400834 -0.425823
H11   H     H_    0.991796 0.224843 0.354670 0.356888
S6    S     S_3+6 0.938787 0.745420 0.450455 0.162182
O28   O     O_2   0.899150 0.718691 0.376016 -0.250051
O29   O     O_2   0.906034 0.795762 0.519091 -0.119187
O30   O     O_3   0.989497 0.808465 0.406652 -0.425399
H12   H     H_    0.007978 0.773069 0.359826 0.358072
S7    S     S_3+6 0.326277 0.602121 0.347500 0.114421
O31   O     O_2   0.351003 0.542757 0.278388 -0.236429
O32   O     O_2   0.282559 0.656966 0.302949 -0.214043
O33   O     O_3   0.378256 0.665268 0.388659 -0.472825
H13   H     H_    0.360949 0.694981 0.440675 0.358425
S8    S     S_3+6 0.673400 0.397271 0.345464 0.077122
O34   O     O_2   0.648553 0.456893 0.277814 -0.244586
O35   O     O_2   0.717000 0.342570 0.299443 -0.249839
O36   O     O_3   0.621492 0.334017 0.385417 -0.530648
H14   H     H_    0.639550 0.301591 0.434354 0.363567
S9    S     S_3+6 0.331704 0.373184 0.634549 0.051535
O37   O     O_2   0.360298 0.411061 0.715898 -0.250640
O38   O     O_2   0.290348 0.305749 0.664071 -0.290385
O39   O     O_3   0.380981 0.325013 0.570695 -0.557049
H15   H     H_    0.359468 0.299007 0.520175 0.338874
S10   S     S_3+6 0.668851 0.625757 0.637236 0.053438
O40   O     O_2   0.640861 0.588154 0.718478 -0.273123
O41   O     O_2   0.710491 0.693237 0.667047 -0.256312
O42   O     O_3   0.619128 0.673773 0.574934 -0.554863
H16   H     H_    0.640147 0.698306 0.523609 0.342166
C53   C     C_3   0.210208 0.459293 0.675630 -0.313796
C54   C     C_3   0.233692 0.523012 0.745168 -0.383922
C55   C     C_3   0.205485 0.511094 0.836389 -0.741636
H17   H     H_    0.158870 0.521044 0.831161 0.268987
H18   H     H_    0.213675 0.446013 0.861763 0.277061
H19   H     H_    0.223253 0.558155 0.885054 0.263265
H20   H     H_    0.280247 0.515207 0.753118 0.266033
H21   H     H_    0.225711 0.588985 0.721965 0.248512
H22   H     H_    0.163762 0.470382 0.671292 0.197834
H23   H     H_    0.214172 0.393400 0.699778 0.270907
C56   C     C_3   0.789808 0.538259 0.676859 -0.324728
C57   C     C_3   0.766429 0.473733 0.744382 -0.364627
C58   C     C_3   0.794523 0.484906 0.836054 -0.738792
H24   H     H_    0.841169 0.475286 0.830698 0.268180
H25   H     H_    0.786136 0.549672 0.863363 0.275317
H26   H     H_    0.776838 0.437260 0.883221 0.267988
H27   H     H_    0.719836 0.481206 0.752362 0.271590
H28   H     H_    0.774601 0.408044 0.719231 0.257025
H29   H     H_    0.836293 0.527547 0.672292 0.199152
H30   H     H_    0.785583 0.603859 0.703011 0.272035
C59   C     C_3   0.496754 0.067982 0.320973 -0.378087
C60   C     C_3   0.499465 0.004711 0.242253 -0.295278
C61   C     C_3   0.505690 0.051113 0.153246 -0.803635
H31   H     H_    0.469245 0.094619 0.142877 0.284925
H32   H     H_    0.545952 0.088508 0.152216 0.277221
H33   H     H_    0.506564 0.003993 0.097257 0.251864
H34   H     H_    0.535987 0.961189 0.249861 0.233722
H35   H     H_    0.459881 0.966353 0.239463 0.297029
H36   H     H_    0.456781 0.105075 0.316257 0.228249
H37   H     H_    0.532835 0.113770 0.316561 0.220368
C62   C     C_3   0.501728 0.932071 0.678941 -0.405496
C63   C     C_3   0.501980 0.995553 0.757652 -0.309747
C64   C     C_3   0.489610 0.950835 0.846056 -0.813200
H38   H     H_    0.446498 0.921490 0.844560 0.270012
H39   H     H_    0.521704 0.900657 0.858386 0.286300
H40   H     H_    0.491415 0.997851 0.902111 0.255155
H41   H     H_    0.544375 0.026115 0.763210 0.276211
H42   H     H_    0.469736 0.045743 0.747717 0.248238
H43   H     H_    0.464078 0.889268 0.683678 0.220054
H44   H     H_    0.540153 0.891477 0.683132 0.218966
C65   C     C_3   0.596066 0.924833 0.411135 -0.391208
C66   C     C_3   0.639018 0.985290 0.367304 -0.302563
C67   C     C_3   0.678622 0.936972 0.304086 -0.753575
H45   H     H_    0.701649 0.886652 0.341055 0.284190
H46   H     H_    0.653965 0.907287 0.248287 0.261724
H47   H     H_    0.710265 0.981783 0.275219 0.276584
H48   H     H_    0.617003 0.035280 0.328735 0.235412
H49   H     H_    0.665406 0.016380 0.419863 0.303417
H50   H     H_    0.618340 0.886353 0.462402 0.229960
H51   H     H_    0.578433 0.879830 0.360206 0.216891
C68   C     C_3   0.403857 0.077176 0.588980 -0.370142
C69   C     C_3   0.361303 0.019063 0.636847 -0.380449
C70   C     C_3   0.319582 0.071217 0.692856 -0.697410
H52   H     H_    0.342616 0.107908 0.745753 0.276957
H53   H     H_    0.295921 0.115982 0.649500 0.295428
H54   H     H_    0.288583 0.027908 0.725661 0.256725
H55   H     H_    0.336578 0.981855 0.586844 0.281868
H56   H     H_    0.383584 0.974363 0.681661 0.237790
H57   H     H_    0.422206 0.123581 0.637871 0.243466
H58   H     H_    0.381101 0.114305 0.537167 0.205611
S11   S     S_3+6 0.391424 0.923466 0.406224 0.049936
O43   O     O_2   0.410821 0.862589 0.334401 -0.207624
O44   O     O_2   0.357327 0.874161 0.473508 -0.310926
O45   O     O_3   0.350708 0.998865 0.359887 -0.497454
H59   H     H_    0.335182 0.031621 0.411276 0.355833
S12   S     S_3+6 0.608733 0.077048 0.590912 0.039101
O46   O     O_2   0.637818 0.132777 0.523386 -0.275653
O47   O     O_2   0.591619 0.131829 0.669355 -0.274074
O48   O     O_3   0.654084 0.001544 0.624810 -0.485851
H60   H     H_    0.633421 0.970220 0.672170 0.355412

loop_
_geom_bond_atom_site_label_1
_geom_bond_atom_site_label_2
_ccdc_geom_bond_type
C51   S5    S    
S3    O19   D    
O45   H59   S    
C40   N2    A    
C18   C21   S    
C9    S9    S    
C67   H45   S    
C23   O7    A    
O24   H10   S    
C18   C26   S    
C54   C55   S    
S8    O35   D    
S5    O25   D    
C24   O8    A    
C13   N2    S    
S1    O13   D    
O39   H15   S    
C29   S3    S    
C66   H49   S    
C14   N1    S    
C29   C36   S    
C52   S6    S    
C62   C63   S    
O3    Zn2   S    
C60   H35   S    
C30   C35   S    
S6    O30   S    
C32   C36   S    
C56   H29   S    
C35   C37   S    
C53   H22   S    
C57   H27   S    
S9    O38   D    
C58   H26   S    
O36   H14   S    
C29   C33   S    
C68   H57   S    
O7    Zn2   S    
C40   C48   A    
C23   O5    A    
C22   S11   S    
O33   H13   S    
S4    O22   D    
S11   O45   S    
C33   C35   S    
C48   C51   A    
C59   C60   S    
C2    O2    A    
C49   C51   A    
C1    O3    A    
S7    O31   D    
C64   H39   S    
C19   C27   T    
C41   C43   A    
C69   H55   S    
C3    C13   A    
C63   H42   S    
C70   H54   S    
C33   H4    S    
C45   C47   A    
C56   C57   S    
C34   H3    S    
S7    O32   D    
C15   C65   S    
C42   C44   A    
C1    O1    A    
C32   H2    S    
S8    O34   D    
S5    O26   D    
C44   C46   A    
C69   C70   S    
C7    C9    A    
S1    O14   D    
N3    Zn2   S    
C66   H48   S    
C46   C48   A    
C42   O12   S    
C1    C19   S    
C30   C34   S    
S9    O37   D    
C2    C20   S    
C58   H25   S    
S12   O48   S    
C56   H30   S    
C53   H23   S    
C41   N1    A    
C30   S4    S    
C61   H33   S    
C62   H43   S    
C65   C66   S    
C5    C7    A    
C43   C49   A    
C21   S12   S    
C6    C8    A    
C20   C28   T    
C3    C5    A    
O18   H8    S    
S4    O24   S    
C68   H58   S    
O48   H60   S    
C38   N4    T    
S12   O47   D    
C11   C53   S    
C54   H21   S    
C9    C11   A    
C50   C52   A    
C64   H38   S    
C39   N1    A    
S4    O23   D    
O2    Zn2   S    
C64   H40   S    
C16   C18   S    
O6    Zn2   S    
C31   H1    S    
S6    O29   D    
C59   H37   S    
C43   C45   A    
C10   C12   A    
C63   H41   S    
C10   S10   S    
C3    H5    S    
C4    C6    A    
C66   C67   S    
C12   C14   A    
S2    O16   D    
S2    O17   D    
S3    O20   D    
O42   H16   S    
S7    O33   S    
C31   C35   S    
N4    Zn1   S    
S9    O39   S    
O5    Zn1   S    
C60   H34   S    
C42   N2    A    
C53   C54   S    
S5    O27   S    
C31   C34   S    
C16   C68   S    
C50   S2    S    
C39   C47   A    
C55   H17   S    
C5    S7    S    
S1    O15   S    
C44   C50   A    
C16   C25   S    
C15   C17   S    
C21   C25   S    
C16   C22   S    
C40   O10   S    
C17   C59   S    
C6    S8    S    
O15   H7    S    
C15   C26   S    
C62   H44   S    
C37   N3    T    
C58   H24   S    
C2    O4    A    
C47   C52   A    
C59   H36   S    
C25   C27   S    
S2    O18   S    
O30   H12   S    
C26   C28   S    
C17   C22   S    
C17   C25   S    
C32   C33   S    
C55   H19   S    
S10   O42   S    
C61   H32   S    
S11   O43   D    
C29   C31   S    
C18   C62   S    
C57   H28   S    
C61   H31   S    
S12   O46   D    
C30   C32   S    
C11   C13   A    
O21   H9    S    
C63   C64   S    
O1    Zn1   S    
C7    C23   S    
O4    Zn1   S    
C36   C38   S    
O27   H11   S    
C8    C24   S    
C49   S1    S    
C65   H50   S    
C34   C36   S    
C60   C61   S    
C4    C14   A    
S6    O28   D    
S11   O44   D    
C57   C58   S    
C24   O6    A    
C41   O11   S    
C70   H52   S    
C45   C46   A    
C15   C21   S    
C8    C10   A    
C68   C69   S    
C22   C26   S    
S3    O21   S    
C4    H6    S    
O8    Zn1   S    
C39   O9    S    
C12   C56   S    
C67   H47   S    
C55   H18   S    
S10   O40   D    
C54   H20   S    
S10   O41   D    
S8    O36   S    
C69   H56   S    
C65   H51   S    
C70   H53   S    
C67   H46   S    
