data_mof_unit_14856.cif
_audit_creation_date              2012-12-11T15:15:55-0500
_audit_creation_method            fapswitch 2.2
_symmetry_space_group_name_H-M    P1
_symmetry_Int_Tables_number       1
_space_group_crystal_system       triclinic
_cell_length_a                    14.254338
_cell_length_b                    14.254164
_cell_length_c                    28.005907
_cell_angle_alpha                 89.999761
_cell_angle_beta                  89.999935
_cell_angle_gamma                 119.999712
_cell_volume                      4927.99590392

loop_
_atom_site_label
_atom_site_type_symbol
_atom_type_description
_atom_site_fract_x
_atom_site_fract_y
_atom_site_fract_z
_atom_type_partial_charge
C1    C     C_R   0.566304 0.453154 0.566408 0.560484
C2    C     C_3   0.499554 0.991399 0.202934 -0.007405
C3    C     C_R   0.833611 0.973779 0.844514 -0.113372
C4    C     C_R   0.726963 0.888462 0.847303 -0.114641
C5    C     C_R   0.646335 0.891689 0.820362 -0.099753
C6    C     C_R   0.690957 0.019012 0.290744 0.044711
C7    C     C_R   0.716001 0.935999 0.286599 -0.044453
C8    C     C_R   0.800245 0.939671 0.313363 -0.108971
C9    C     C_R   0.859883 0.026168 0.344445 -0.113344
C10   C     C_R   0.838534 0.111474 0.347265 -0.114661
C11   C     C_R   0.754645 0.108246 0.320354 -0.099738
C12   C     C_R   0.328112 0.309029 0.290757 0.044674
C13   C     C_3   0.491858 0.500426 0.202930 -0.007401
C14   C     C_R   0.220055 0.283996 0.286643 -0.044475
C15   C     C_R   0.139526 0.199794 0.313441 -0.108971
C16   C     C_R   0.166424 0.140177 0.344521 -0.113361
C17   C     C_R   0.273070 0.161498 0.347304 -0.114650
C18   C     C_R   0.353691 0.245352 0.320362 -0.099758
C19   C     C_R   0.980962 0.671937 0.290755 0.044677
C20   C     C_R   0.064002 0.779991 0.286641 -0.044457
C21   C     C_R   0.060356 0.860529 0.313443 -0.108974
C22   C     C_R   0.973854 0.833641 0.344528 -0.113361
C23   C     C_R   0.888510 0.727003 0.347308 -0.114652
C24   C     C_3   0.008584 0.508162 0.202932 -0.007404
C25   C     C_R   0.891716 0.646374 0.320362 -0.099772
C26   C     C_R   0.991031 0.313605 0.709024 0.042131
C27   C     C_R   0.074252 0.289054 0.713368 -0.053003
C28   C     C_R   0.071400 0.205098 0.686630 -0.098105
C29   C     C_R   0.985368 0.145467 0.655327 -0.116985
C30   C     C_R   0.899929 0.166484 0.652221 -0.116055
C31   C     C_R   0.902436 0.249959 0.679143 -0.064425
C32   C     C_R   0.686399 0.677421 0.709025 0.042134
C33   C     C_R   0.710953 0.785195 0.713373 -0.053004
C34   C     C_R   0.794905 0.866300 0.686635 -0.098107
C35   C     C_3   0.922209 0.414572 0.769571 0.458924
C36   C     C_R   0.854529 0.839898 0.655328 -0.116984
C37   C     C_R   0.833510 0.733440 0.652219 -0.116046
C38   C     C_R   0.750040 0.652471 0.679142 -0.064416
C39   C     C_R   0.322580 0.008979 0.709023 0.042136
C40   C     C_R   0.214809 0.925764 0.713372 -0.053009
C41   C     C_R   0.133706 0.928614 0.686633 -0.098109
C42   C     C_R   0.160107 0.014639 0.655325 -0.116990
C43   C     C_R   0.266563 0.100074 0.652215 -0.116053
C44   C     C_R   0.347530 0.097569 0.679138 -0.064416
C45   C     C_R   0.313603 0.991028 0.209029 0.042116
C46   C     C_3   0.585427 0.507627 0.769571 0.458928
C47   C     C_R   0.289058 0.074253 0.213376 -0.053005
C48   C     C_R   0.205104 0.071408 0.186642 -0.098105
C49   C     C_R   0.145468 0.985380 0.155338 -0.116983
C50   C     C_R   0.166479 0.899937 0.152229 -0.116052
C51   C     C_R   0.249954 0.902437 0.179147 -0.064437
C52   C     C_R   0.677430 0.686394 0.209019 0.042141
C53   C     C_R   0.785206 0.710966 0.213374 -0.053011
C54   C     C_R   0.866311 0.794928 0.186642 -0.098126
C55   C     C_R   0.839908 0.854544 0.155331 -0.116982
C56   C     C_R   0.733447 0.833508 0.152213 -0.116051
C57   C     C_3   0.492365 0.077797 0.769570 0.458934
C58   C     C_R   0.652477 0.750028 0.179131 -0.064452
C59   C     C_R   0.008962 0.322581 0.209028 0.042134
C60   C     C_R   0.925743 0.214809 0.213375 -0.052990
C61   C     C_R   0.928598 0.133702 0.186642 -0.098101
C62   C     C_R   0.014631 0.160101 0.155341 -0.116985
C63   C     C_R   0.100069 0.266558 0.152232 -0.116055
C64   C     C_R   0.097559 0.347528 0.179150 -0.064411
C65   C     C_3   0.414560 0.922191 0.269574 0.458921
C66   C     C_3   0.507650 0.585429 0.269567 0.458921
C67   C     C_3   0.077786 0.492369 0.269572 0.458917
C68   C     C_3   0.912562 0.500450 0.740257 0.392869
C69   C     C_R   0.546846 0.113149 0.566407 0.560483
C70   C     C_3   0.499549 0.412106 0.740257 0.392872
C71   C     C_3   0.587888 0.087441 0.740257 0.392866
C72   C     C_3   0.500429 0.912537 0.240257 0.392881
C73   C     C_3   0.412126 0.499548 0.240256 0.392859
C74   C     C_3   0.087441 0.587895 0.240257 0.392867
C75   C     C_1   0.037899 0.513117 0.847641 0.003335
C76   C     C_1   0.486883 0.524778 0.847641 0.003334
C77   C     C_1   0.475216 0.962102 0.847640 0.003333
C78   C     C_1   0.513115 0.037885 0.347643 0.003320
C79   C     C_1   0.524798 0.486887 0.347638 0.003340
C80   C     C_R   0.886850 0.433696 0.566408 0.560486
C81   C     C_1   0.962099 0.475226 0.347641 0.003344
C82   C     C_1   0.969326 0.489522 0.651922 0.035414
C83   C     C_1   0.510480 0.479804 0.651922 0.035413
C84   C     C_1   0.520197 0.030675 0.651921 0.035411
C85   C     C_1   0.489510 0.969314 0.151923 0.035424
C86   C     C_1   0.479808 0.510471 0.151919 0.035414
C87   C     C_1   0.030676 0.520202 0.151922 0.035411
C88   C     C_R   0.567455 0.454008 0.434560 0.551259
C89   C     C_R   0.545993 0.113446 0.434560 0.551254
C90   C     C_R   0.886554 0.432548 0.434561 0.551259
C91   C     C_R   0.453154 0.566303 0.066407 0.560484
C92   C     C_R   0.454007 0.567453 0.934561 0.551255
C93   C     C_R   0.113446 0.545993 0.934560 0.551258
C94   C     C_R   0.432546 0.886553 0.934560 0.551256
C95   C     C_3   0.088137 0.589768 0.729966 0.353773
C96   C     C_3   0.410238 0.498372 0.729967 0.353771
C97   C     C_3   0.501627 0.911864 0.729966 0.353774
C98   C     C_3   0.589756 0.088113 0.229968 0.353762
C99   C     C_3   0.498387 0.410232 0.229965 0.353774
C100  C     C_3   0.911868 0.501648 0.229965 0.353763
C101  C     C_3   0.009708 0.591979 0.767277 -0.047005
C102  C     C_R   0.113150 0.546846 0.066408 0.560488
C103  C     C_3   0.408022 0.417727 0.767277 -0.047008
C104  C     C_3   0.582267 0.990292 0.767277 -0.047007
C105  C     C_3   0.591962 0.009679 0.267277 -0.047017
C106  C     C_3   0.417750 0.408022 0.267276 -0.047015
C107  C     C_3   0.990298 0.582286 0.267276 -0.047004
C108  C     C_1   0.065032 0.526773 0.888666 0.015770
C109  C     C_1   0.473227 0.538256 0.888667 0.015767
C110  C     C_1   0.461740 0.934968 0.888666 0.015769
C111  C     C_1   0.526772 0.065025 0.388667 0.015752
C112  C     C_1   0.538267 0.473229 0.388664 0.015781
C113  C     C_R   0.433694 0.886849 0.066408 0.560487
C114  C     C_1   0.934967 0.461745 0.388666 0.015782
C115  C     C_1   0.938792 0.468951 0.611434 0.021239
C116  C     C_1   0.531050 0.469841 0.611434 0.021239
C117  C     C_1   0.530159 0.061207 0.611433 0.021240
C118  C     C_1   0.468945 0.938786 0.111435 0.021249
C119  C     C_1   0.469843 0.531043 0.111432 0.021237
C120  C     C_1   0.061209 0.530160 0.111434 0.021242
C121  C     C_3   0.099142 0.503772 0.759445 -0.153881
C122  C     C_3   0.496234 0.595369 0.759446 -0.153879
C123  C     C_3   0.404629 0.900861 0.759444 -0.153884
C124  C     C_3   0.991418 0.499570 0.702932 -0.007406
C125  C     C_3   0.503769 0.099125 0.259448 -0.153885
C126  C     C_3   0.595387 0.496231 0.259441 -0.153877
C127  C     C_3   0.900854 0.404645 0.259445 -0.153893
C128  C     C_3   0.018836 0.505164 0.796425 -0.076689
C129  C     C_3   0.494837 0.513667 0.796426 -0.076689
C130  C     C_3   0.486326 0.981166 0.796425 -0.076692
C131  C     C_3   0.505157 0.018815 0.296428 -0.076678
C132  C     C_3   0.513692 0.494841 0.296422 -0.076694
C133  C     C_3   0.981161 0.486340 0.296425 -0.076683
C134  C     C_3   0.000448 0.412871 0.732228 -0.078069
C135  C     C_3   0.500434 0.491847 0.702933 -0.007412
C136  C     C_3   0.587133 0.587572 0.732230 -0.078068
C137  C     C_3   0.412426 0.999559 0.732228 -0.078065
C138  C     C_3   0.412863 0.000435 0.232233 -0.078075
C139  C     C_3   0.587586 0.587128 0.232224 -0.078059
C140  C     C_3   0.999546 0.412432 0.232230 -0.078077
C141  C     C_R   0.019061 0.690974 0.790755 0.044685
C142  C     C_R   0.936038 0.716013 0.786638 -0.044467
C143  C     C_R   0.939714 0.800225 0.813434 -0.108974
C144  C     C_R   0.026227 0.859841 0.844516 -0.113369
C145  C     C_R   0.111548 0.838512 0.847301 -0.114639
C146  C     C_3   0.508152 0.008586 0.702932 -0.007412
C147  C     C_R   0.108315 0.754653 0.820360 -0.099754
C148  C     C_R   0.309022 0.328082 0.790752 0.044693
C149  C     C_R   0.283973 0.220018 0.786627 -0.044464
C150  C     C_R   0.199753 0.139476 0.813417 -0.108975
C151  C     C_R   0.140143 0.166373 0.844502 -0.113363
C152  C     C_R   0.161481 0.273027 0.847296 -0.114638
C153  C     C_R   0.245347 0.353658 0.820360 -0.099750
C154  C     C_R   0.671910 0.980938 0.790753 0.044683
C155  C     C_R   0.779969 0.063956 0.786633 -0.044465
C156  C     C_R   0.860507 0.060285 0.813429 -0.108966
Cr1   Cr    Cr6+3 0.504830 0.254570 0.500510 1.040202
Cr2   Cr    Cr6+3 0.745430 0.250260 0.500510 1.040214
Cr3   Cr    Cr6+3 0.749740 0.495170 0.500510 1.040202
Cr4   Cr    Cr6+3 0.254570 0.504830 0.000510 1.040209
Cr5   Cr    Cr6+3 0.250260 0.745430 0.000510 1.040209
Cr6   Cr    Cr6+3 0.495170 0.749740 0.000510 1.040202
F1    F     F_    0.173128 0.678636 0.708240 -0.609858
F2    F     F_    0.493285 0.814943 0.229109 -0.569079
F3    F     F_    0.321666 0.506677 0.229114 -0.569110
F4    F     F_    0.185035 0.678346 0.229114 -0.569109
F5    F     F_    0.837431 0.325553 0.791328 -0.531338
F6    F     F_    0.674444 0.511861 0.791328 -0.531326
F7    F     F_    0.488125 0.162577 0.791327 -0.531322
F8    F     F_    0.325543 0.837413 0.291332 -0.531356
F9    F     F_    0.511893 0.674453 0.291322 -0.531348
F10   F     F_    0.162562 0.488125 0.291330 -0.531344
F11   F     F_    0.321373 0.494502 0.708241 -0.609859
F12   F     F_    0.505503 0.826871 0.708241 -0.609854
F13   F     F_    0.678623 0.173103 0.208241 -0.609873
F14   F     F_    0.494511 0.321362 0.208240 -0.609858
F15   F     F_    0.826882 0.505532 0.208238 -0.609870
F16   F     F_    0.814973 0.493317 0.729112 -0.569113
F17   F     F_    0.506679 0.321646 0.729111 -0.569109
F18   F     F_    0.678346 0.185031 0.729113 -0.569107
H1    H     H_    0.176572 0.507195 0.768368 0.172846
H2    H     H_    0.179340 0.885854 0.870845 0.138149
H3    H     H_    0.173778 0.737258 0.823670 0.112914
H4    H     H_    0.330375 0.197818 0.763638 0.212796
H5    H     H_    0.182476 0.056809 0.810535 0.127998
H6    H     H_    0.077277 0.104988 0.866439 0.100528
H7    H     H_    0.114142 0.293477 0.870843 0.138143
H8    H     H_    0.262747 0.436518 0.823675 0.112914
H9    H     H_    0.802168 0.132560 0.763645 0.212812
H10   H     H_    0.943169 0.125681 0.810554 0.128003
H11   H     H_    0.894992 0.972304 0.866455 0.100533
H12   H     H_    0.492813 0.669379 0.768369 0.172848
H13   H     H_    0.706513 0.820676 0.870851 0.138145
H14   H     H_    0.563479 0.826230 0.823675 0.112916
H15   H     H_    0.669584 0.867406 0.263613 0.212824
H16   H     H_    0.817521 0.874284 0.310460 0.128016
H17   H     H_    0.922783 0.027651 0.366354 0.100508
H18   H     H_    0.885892 0.179256 0.370808 0.138116
H19   H     H_    0.737243 0.173701 0.323687 0.112921
H20   H     H_    0.197851 0.330401 0.263659 0.212825
H21   H     H_    0.056871 0.182543 0.310568 0.127990
H22   H     H_    0.105045 0.077316 0.366459 0.100526
H23   H     H_    0.330620 0.823430 0.768366 0.172850
H24   H     H_    0.293525 0.114157 0.370847 0.138146
H25   H     H_    0.436547 0.262746 0.323671 0.112914
H26   H     H_    0.132606 0.802185 0.263656 0.212841
H27   H     H_    0.125773 0.943182 0.310570 0.128004
H28   H     H_    0.972402 0.895020 0.366476 0.100559
H29   H     H_    0.820724 0.706558 0.370854 0.138153
H30   H     H_    0.826243 0.563522 0.323672 0.112913
H31   H     H_    0.142555 0.336446 0.736298 0.168606
H32   H     H_    0.137152 0.188271 0.689500 0.129051
H33   H     H_    0.984813 0.083619 0.633091 0.099544
H34   H     H_    0.507201 0.176561 0.268371 0.172844
H35   H     H_    0.832891 0.119579 0.628251 0.133951
H36   H     H_    0.837704 0.268047 0.675036 0.198924
H37   H     H_    0.663566 0.806108 0.736305 0.168593
H38   H     H_    0.811734 0.948879 0.689508 0.129050
H39   H     H_    0.916374 0.901192 0.633092 0.099546
H40   H     H_    0.880410 0.713305 0.628246 0.133951
H41   H     H_    0.731952 0.569650 0.675033 0.198922
H42   H     H_    0.193898 0.857465 0.736305 0.168595
H43   H     H_    0.051128 0.862867 0.689507 0.129054
H44   H     H_    0.098814 0.015191 0.633089 0.099548
H45   H     H_    0.669396 0.492810 0.268362 0.172862
H46   H     H_    0.286697 0.167107 0.628242 0.133951
H47   H     H_    0.430350 0.162299 0.675029 0.198920
H48   H     H_    0.336454 0.142554 0.236306 0.168606
H49   H     H_    0.188283 0.137163 0.189515 0.129049
H50   H     H_    0.083618 0.984828 0.133107 0.099543
H51   H     H_    0.119572 0.832900 0.128259 0.133955
H52   H     H_    0.268040 0.837704 0.175037 0.198921
H53   H     H_    0.806121 0.663588 0.236311 0.168584
H54   H     H_    0.948893 0.811773 0.189525 0.129052
H55   H     H_    0.901205 0.916399 0.133101 0.099546
H56   H     H_    0.823420 0.330639 0.268366 0.172852
H57   H     H_    0.713311 0.880404 0.128239 0.133956
H58   H     H_    0.569656 0.731933 0.175020 0.198891
H59   H     H_    0.857441 0.193898 0.236303 0.168619
H60   H     H_    0.862851 0.051124 0.189516 0.129055
H61   H     H_    0.015190 0.098806 0.133111 0.099542
H62   H     H_    0.167111 0.286691 0.128265 0.133951
H63   H     H_    0.162291 0.430348 0.175042 0.198926
H64   H     H_    0.867433 0.669607 0.763652 0.212811
H65   H     H_    0.874316 0.817490 0.810562 0.127999
H66   H     H_    0.027705 0.922702 0.866456 0.100538
O1    O     O_R   0.479630 0.139450 0.552170 -0.508422
O2    O     O_R   0.360080 0.516200 0.048600 -0.498254
O3    O     O_R   0.156120 0.639920 0.048600 -0.498254
O4    O     O_R   0.483800 0.843880 0.048600 -0.498257
O5    O     O_R   0.478560 0.139320 0.448720 -0.516482
O6    O     O_R   0.860680 0.339240 0.448720 -0.516465
O7    O     O_R   0.660760 0.521440 0.448720 -0.516480
O8    O     O_R   0.139320 0.478560 0.948720 -0.516482
O9    O     O_R   0.339240 0.860680 0.948720 -0.516481
O10   O     O_R   0.521440 0.660760 0.948720 -0.516481
O11   O     O_R   0.515210 0.359960 0.452710 -0.500418
O12   O     O_R   0.860550 0.340180 0.552170 -0.508420
O13   O     O_R   0.640040 0.155250 0.452710 -0.500420
O14   O     O_R   0.844750 0.484790 0.452710 -0.500426
O15   O     O_R   0.359960 0.515210 0.952710 -0.500421
O16   O     O_R   0.155250 0.640040 0.952710 -0.500420
O17   O     O_R   0.484790 0.844750 0.952710 -0.500420
O18   O     O_3   0.666667 0.333333 0.499990 -0.266120
O19   O     O_3   0.333333 0.666667 0.999990 -0.266120
O20   O     O_R   0.659820 0.520370 0.552170 -0.508421
O21   O     O_R   0.139450 0.479630 0.052170 -0.508419
O22   O     O_R   0.340180 0.860550 0.052170 -0.508420
O23   O     O_R   0.520370 0.659820 0.052170 -0.508421
O24   O     O_R   0.516200 0.360080 0.548600 -0.498256
O25   O     O_R   0.639920 0.156120 0.548600 -0.498256
O26   O     O_R   0.843880 0.483800 0.548600 -0.498258

loop_
_geom_bond_atom_site_label_1
_geom_bond_atom_site_label_2
_ccdc_geom_bond_type
C95   C124  S    
C151  H6    S    
C12   C106  S    
C71   C104  S    
C39   C137  S    
Cr6   O23   S    
C40   C41   A    
Cr3   O14   S    
C144  H66   S    
C100  C127  S    
C97   C146  S    
Cr3   O18   S    
C19   C20   A    
C89   O13   A    
C20   H26   S    
C55   C56   A    
C6    C7    A    
C90   O14   A    
C20   C21   A    
C68   C124  S    
C46   C129  S    
C149  C150  A    
C7    C8    A    
C105  C131  S    
C64   H63   S    
C53   C54   A    
C24   C140  S    
Cr3   O20   S    
C106  C132  S    
C97   C123  S    
C127  H56   S    
C37   C38   A    
C98   C105  S    
C46   F6    S    
C79   C112  T    
C18   H25   S    
C13   C139  S    
C38   H41   S    
C36   C37   A    
C67   C133  S    
Cr2   O6    S    
C82   C115  T    
C93   O16   A    
C3    H11   S    
C93   C108  S    
C30   C31   A    
C16   H22   S    
C92   C109  S    
C24   C100  S    
C76   C129  S    
Cr5   O22   S    
C147  H3    S    
Cr2   O13   S    
C102  O3    A    
Cr1   O5    S    
C101  C128  S    
C2    C72   S    
C36   H39   S    
C2    C85   S    
C17   C18   A    
C75   C128  S    
C41   C42   A    
C35   C128  S    
Cr4   O8    S    
C49   H50   S    
C45   C138  S    
C66   F9    S    
C155  H9    S    
C85   C118  T    
C145  C147  A    
C74   C107  S    
C54   C55   A    
C101  C141  S    
Cr5   O16   S    
C69   O1    A    
C98   C125  S    
Cr1   O11   S    
C66   C139  S    
C1    O20   A    
Cr5   O19   S    
C76   C109  T    
C13   C86   S    
C149  H4    S    
C35   F5    S    
C151  C152  A    
C8    H16   S    
C86   C119  T    
C97   F12   S    
C1    C116  S    
C32   C38   A    
C121  C134  S    
C96   C135  S    
C9    C10   A    
C122  C129  S    
C57   F7    S    
C92   O15   A    
C43   H46   S    
C77   C130  S    
C95   C121  S    
C90   C114  S    
C56   H57   S    
C30   H35   S    
C59   C60   A    
C104  C130  S    
C21   C22   A    
C48   H49   S    
C25   H30   S    
Cr4   O2    S    
C152  H7    S    
C42   H44   S    
C100  F15   S    
C10   H18   S    
C35   C134  S    
C150  H5    S    
C65   C131  S    
C9    H17   S    
C103  C148  S    
C33   C34   A    
C99   C126  S    
C66   C132  S    
C45   C51   A    
C45   C47   A    
C72   C105  S    
C4    H13   S    
C77   C110  T    
C126  C139  S    
C96   F11   S    
C99   F14   S    
C63   C64   A    
C57   C137  S    
C2    C138  S    
C137  C146  S    
C135  C136  S    
C68   C101  S    
C121  C128  S    
C73   F3    S    
C35   C68   S    
C39   C40   A    
C32   C136  S    
C141  C147  A    
C70   C103  S    
C8    C9    A    
C1    O24   A    
C23   H29   S    
C90   O6    A    
Cr2   O12   S    
C66   C73   S    
Cr4   O19   S    
C145  H2    S    
C94   C110  S    
Cr2   O25   S    
C143  H65   S    
C40   H42   S    
C60   C61   A    
C80   O26   A    
C71   F18   S    
C13   C99   S    
C17   H24   S    
C78   C131  S    
C29   C30   A    
C26   C134  S    
C95   F1    S    
C69   O25   A    
Cr1   O1    S    
C125  H34   S    
C125  C131  S    
C34   C36   A    
C29   H33   S    
C47   C48   A    
C80   C115  S    
C126  C132  S    
C71   C146  S    
C62   C63   A    
C27   H31   S    
C50   C51   A    
C72   F2    S    
C22   H28   S    
C50   H51   S    
C60   H59   S    
C41   H43   S    
C57   C71   S    
C4    C5    A    
C122  H12   S    
C67   C140  S    
C103  C129  S    
C122  C136  S    
C154  C155  A    
C78   C111  T    
C52   C58   A    
C88   O11   A    
Cr4   O21   S    
C65   C138  S    
C92   O10   A    
Cr6   O10   S    
C48   C49   A    
C13   C73   S    
Cr2   O18   S    
C102  O21   A    
C6    C11   A    
C123  C130  S    
C26   C27   A    
C70   C135  S    
C125  C138  S    
C91   C119  S    
C126  H45   S    
C80   O12   A    
C148  C153  A    
C54   H54   S    
C39   C44   A    
C7    H15   S    
C3    C4    A    
Cr1   O24   S    
C53   H53   S    
C74   F4    S    
C102  C120  S    
C52   C53   A    
C62   H61   S    
C121  H1    S    
C82   C124  S    
C75   C108  T    
Cr3   O26   S    
C124  C134  S    
C99   C106  S    
C89   C111  S    
C91   O2    A    
C28   C29   A    
C100  C107  S    
C59   C140  S    
C15   H21   S    
C89   O5    A    
Cr5   O9    S    
C51   H52   S    
C93   O8    A    
C61   H60   S    
C83   C135  S    
C83   C116  T    
C22   C23   A    
C123  H23   S    
C127  C133  S    
C55   H55   S    
C144  C145  A    
C91   O23   A    
C5    C154  A    
C34   H38   S    
C81   C133  S    
C88   O7    A    
C31   H36   S    
C153  H8    S    
C33   H37   S    
C67   F10   S    
C28   H32   S    
C65   C72   S    
C123  C137  S    
Cr6   O19   S    
C95   C101  S    
C150  C151  A    
C96   C122  S    
C65   F8    S    
C47   H48   S    
C81   C114  T    
C32   C33   A    
C21   H27   S    
C143  C144  A    
C12   C14   A    
C113  O22   A    
C52   C139  S    
Cr6   O4    S    
C2    C98   S    
C141  C142  A    
Cr5   O3    S    
C98   F13   S    
C63   H62   S    
C24   C74   S    
C73   C106  S    
C16   C17   A    
C14   H20   S    
Cr6   O17   S    
C43   C44   A    
C142  H64   S    
C79   C132  S    
C69   C117  S    
C3    C156  A    
C6    C105  S    
C56   C58   A    
Cr4   O15   S    
C94   O17   A    
C67   C74   S    
C148  C149  A    
C23   C25   A    
C61   C62   A    
C70   F17   S    
C24   C87   S    
C11   H19   S    
C46   C70   S    
C97   C104  S    
C10   C11   A    
C84   C117  T    
C19   C25   A    
C46   C136  S    
C113  C118  S    
C88   C112  S    
C59   C64   A    
C26   C31   A    
Cr1   O18   S    
C152  C153  A    
C68   F16   S    
C57   C130  S    
C107  C133  S    
C49   C50   A    
C42   C43   A    
C96   C103  S    
C12   C18   A    
C155  C156  A    
C142  C143  A    
Cr3   O7    S    
C14   C15   A    
C127  C140  S    
C84   C146  S    
C37   H40   S    
C104  C154  S    
C58   H58   S    
C44   H47   S    
C94   O9    A    
C113  O4    A    
C87   C120  T    
C15   C16   A    
C156  H10   S    
C5    H14   S    
C27   C28   A    
C19   C107  S    
