data_mof_unit_24957.cif
_audit_creation_date              2012-12-10T16:59:56-0500
_audit_creation_method            fapswitch 2.2
_symmetry_space_group_name_H-M    P1
_symmetry_Int_Tables_number       1
_space_group_crystal_system       triclinic
_cell_length_a                    14.729428
_cell_length_b                    15.441145
_cell_length_c                    10.247325
_cell_angle_alpha                 88.412888
_cell_angle_beta                  95.235595
_cell_angle_gamma                 89.451396
_cell_volume                      2319.85823033

loop_
_atom_site_label
_atom_site_type_symbol
_atom_type_description
_atom_site_fract_x
_atom_site_fract_y
_atom_site_fract_z
_atom_type_partial_charge
C1    C     C_R   0.377539 0.886310 0.496556 0.913373
C2    C     C_2   0.709340 0.220778 0.396637 -0.239967
C3    C     C_2   0.164861 0.240982 0.436111 -0.210336
C4    C     C_2   0.209335 0.720783 0.396639 -0.239976
C5    C     C_2   0.673346 0.803062 0.525595 -0.130935
C6    C     C_2   0.695637 0.175993 0.507953 -0.147340
C7    C     C_2   0.173347 0.303062 0.525595 -0.130935
C8    C     C_2   0.195635 0.675996 0.507952 -0.147343
C9    C     C_2   0.230499 0.169994 0.440167 -0.209178
C10   C     C_2   0.282093 0.781612 0.390269 -0.200984
C11   C     C_2   0.730499 0.669994 0.440167 -0.209178
C12   C     C_R   0.381680 0.118428 0.494235 0.895451
C13   C     C_2   0.782097 0.281609 0.390268 -0.200982
C14   C     C_2   0.317390 0.186567 0.477201 -0.266940
C15   C     C_2   0.297363 0.836252 0.487086 -0.289048
C16   C     C_2   0.817390 0.686567 0.477201 -0.266941
C17   C     C_2   0.797364 0.336250 0.487086 -0.289046
C18   C     C_2   0.574012 0.987008 0.932973 0.079280
C19   C     C_2   0.074012 0.487008 0.932973 0.079279
C20   C     C_2   0.572643 0.985080 0.083075 0.027683
C21   C     C_2   0.072643 0.485081 0.083075 0.027683
C22   C     C_R   0.728608 0.791579 0.655112 0.157731
C23   C     C_R   0.877539 0.386309 0.496556 0.913370
C24   C     C_R   0.797177 0.851073 0.692426 -0.200187
C25   C     C_R   0.851079 0.838926 0.811271 -0.130104
C26   C     C_R   0.835751 0.768481 0.894744 -0.118135
C27   C     C_R   0.766672 0.709892 0.859374 -0.170857
C28   C     C_R   0.713307 0.721168 0.739956 -0.102097
C29   C     C_R   0.758395 0.179015 0.630531 0.155867
C30   C     C_R   0.729156 0.217252 0.742627 -0.145289
C31   C     C_R   0.791478 0.231645 0.851057 -0.164881
C32   C     C_R   0.882594 0.205743 0.849857 -0.086283
C33   C     C_R   0.911608 0.165419 0.740209 -0.149863
C34   C     C_R   0.881680 0.618427 0.494235 0.895452
C35   C     C_R   0.849877 0.152087 0.630813 -0.158806
C36   C     C_R   0.228609 0.291580 0.655112 0.157730
C37   C     C_R   0.297178 0.351074 0.692424 -0.200187
C38   C     C_R   0.351081 0.338928 0.811268 -0.130105
C39   C     C_R   0.335754 0.268482 0.894741 -0.118133
C40   C     C_R   0.266676 0.209893 0.859373 -0.170855
C41   C     C_R   0.213309 0.221169 0.739956 -0.102100
C42   C     C_R   0.258396 0.679013 0.630522 0.155884
C43   C     C_R   0.229167 0.717251 0.742618 -0.145294
C44   C     C_R   0.291493 0.731635 0.851040 -0.164884
C45   C     C_R   0.620602 0.116941 0.502815 0.864120
C46   C     C_R   0.382603 0.705726 0.849831 -0.086292
C47   C     C_R   0.411606 0.665403 0.740182 -0.149890
C48   C     C_R   0.349872 0.652079 0.630794 -0.158805
C49   C     C_3   0.663415 0.968834 0.874489 -0.317866
C50   C     C_3   0.744543 0.023619 0.924952 -0.916305
C51   C     C_3   0.163414 0.468834 0.874489 -0.317866
C52   C     C_3   0.244544 0.523618 0.924950 -0.916307
C53   C     C_R   0.658640 0.957221 0.159513 0.229154
C54   C     C_R   0.687813 0.870302 0.157659 -0.150843
C55   C     C_R   0.772504 0.844690 0.220281 -0.132470
C56   C     C_R   0.616867 0.879305 0.505971 0.878928
C57   C     C_R   0.827693 0.904952 0.287761 -0.147641
C58   C     C_R   0.799569 0.991564 0.289065 -0.189200
C59   C     C_R   0.716145 0.017841 0.223166 -0.090593
C60   C     C_R   0.158640 0.457221 0.159513 0.229157
C61   C     C_R   0.187813 0.370302 0.157659 -0.150843
C62   C     C_R   0.272504 0.344691 0.220279 -0.132469
C63   C     C_R   0.327694 0.404952 0.287757 -0.147641
C64   C     C_R   0.299571 0.491565 0.289060 -0.189205
C65   C     C_R   0.216145 0.517842 0.223164 -0.090596
C66   C     C_3   0.409281 0.005419 0.077705 -0.258539
C67   C     C_R   0.120602 0.616941 0.502815 0.864121
C68   C     C_3   0.329973 0.975445 0.152106 -0.779552
C69   C     C_3   0.909281 0.505418 0.077705 -0.258539
C70   C     C_3   0.829973 0.475444 0.152106 -0.779551
C71   C     C_R   0.116867 0.379305 0.505971 0.878927
C72   C     C_2   0.664861 0.740982 0.436111 -0.210336
H1    H     H_    0.612572 0.745220 0.354122 0.158615
H2    H     H_    0.251591 0.842066 0.563657 0.156797
H3    H     H_    0.842594 0.751593 0.492506 0.141197
H4    H     H_    0.751591 0.342065 0.563656 0.156795
H5    H     H_    0.462385 0.052187 0.873216 0.170157
H6    H     H_    0.962385 0.552187 0.873217 0.170157
H7    H     H_    0.809600 0.905953 0.628573 0.121034
H8    H     H_    0.904242 0.884530 0.839107 0.130412
H9    H     H_    0.877166 0.759467 0.987021 0.120322
H10   H     H_    0.754581 0.655606 0.924352 0.122880
H11   H     H_    0.660295 0.675100 0.713337 0.117348
H12   H     H_    0.665344 0.214053 0.306685 0.165956
H13   H     H_    0.659189 0.239223 0.743728 0.131633
H14   H     H_    0.769102 0.262775 0.936103 0.122755
H15   H     H_    0.930641 0.216775 0.933954 0.117338
H16   H     H_    0.982179 0.145454 0.739342 0.119752
H17   H     H_    0.873755 0.123002 0.545113 0.120273
H18   H     H_    0.309600 0.405955 0.628571 0.121035
H19   H     H_    0.404244 0.384532 0.839103 0.130411
H20   H     H_    0.377171 0.259468 0.987018 0.120320
H21   H     H_    0.254586 0.155606 0.924351 0.122880
H22   H     H_    0.160298 0.175100 0.713337 0.117348
H23   H     H_    0.112572 0.245220 0.354122 0.158614
H24   H     H_    0.159205 0.739226 0.743727 0.131632
H25   H     H_    0.269125 0.762765 0.936088 0.122761
H26   H     H_    0.430652 0.716751 0.933923 0.117347
H27   H     H_    0.482172 0.645432 0.739308 0.119761
H28   H     H_    0.373742 0.622995 0.545093 0.120276
H29   H     H_    0.721370 0.085552 0.963942 0.265005
H30   H     H_    0.789328 0.987046 0.000303 0.269223
H31   H     H_    0.787873 0.038198 0.844197 0.264476
H32   H     H_    0.680508 0.898834 0.885784 0.211116
H33   H     H_    0.655484 0.986715 0.770901 0.283430
H34   H     H_    0.165338 0.714057 0.306691 0.165962
H35   H     H_    0.221371 0.585553 0.963934 0.265005
H36   H     H_    0.289327 0.487047 0.000304 0.269225
H37   H     H_    0.287875 0.538193 0.844196 0.264477
H38   H     H_    0.180508 0.398833 0.885784 0.211115
H39   H     H_    0.155484 0.486715 0.770901 0.283432
H40   H     H_    0.645566 0.822872 0.106056 0.109341
H41   H     H_    0.795154 0.777999 0.216801 0.146494
H42   H     H_    0.892861 0.884814 0.337160 0.124409
H43   H     H_    0.843493 0.038780 0.337858 0.127843
H44   H     H_    0.698406 0.085760 0.215503 0.123410
H45   H     H_    0.208226 0.105494 0.413063 0.139021
H46   H     H_    0.145565 0.322872 0.106057 0.109340
H47   H     H_    0.295154 0.277999 0.216800 0.146494
H48   H     H_    0.392863 0.384815 0.337154 0.124409
H49   H     H_    0.343496 0.538781 0.337850 0.127842
H50   H     H_    0.198406 0.585761 0.215503 0.123413
H51   H     H_    0.335603 0.904913 0.174489 0.249883
H52   H     H_    0.320151 0.013592 0.238499 0.286254
H53   H     H_    0.266013 0.984776 0.086560 0.184365
H54   H     H_    0.394180 0.073585 0.044543 0.158476
H55   H     H_    0.402545 0.958371 0.997996 0.181735
H56   H     H_    0.325050 0.778114 0.309848 0.161365
H57   H     H_    0.835603 0.404912 0.174489 0.249883
H58   H     H_    0.820151 0.513591 0.238499 0.286254
H59   H     H_    0.766013 0.484775 0.086561 0.184365
H60   H     H_    0.894179 0.573584 0.044542 0.158477
H61   H     H_    0.902545 0.458370 0.997996 0.181735
H62   H     H_    0.708226 0.605494 0.413063 0.139021
H63   H     H_    0.825055 0.278110 0.309847 0.161362
H64   H     H_    0.342594 0.251593 0.492504 0.141197
N1    N     N_2   0.501330 0.000000 0.852150 -0.242443
N2    N     N_2   0.001330 0.500000 0.852150 -0.242443
N3    N     N_2   0.501360 0.000000 0.147810 -0.080402
N4    N     N_2   0.001360 0.500000 0.147810 -0.080403
O1    O     O_R   0.409520 0.909540 0.613040 -0.596531
O2    O     O_R   0.590440 0.909540 0.613100 -0.643217
O3    O     O_R   0.090440 0.590460 0.613100 -0.629828
O4    O     O_R   0.090440 0.409540 0.613100 -0.643218
O5    O     O_R   0.590480 0.090460 0.386960 -0.620428
O6    O     O_R   0.590480 0.909540 0.386960 -0.594622
O7    O     O_R   0.090480 0.590460 0.386960 -0.620429
O8    O     O_R   0.090480 0.409540 0.386960 -0.594622
O9    O     O_R   0.409520 0.090460 0.613040 -0.601359
O10   O     O_R   0.909520 0.409540 0.613040 -0.596531
O11   O     O_R   0.909520 0.590460 0.613040 -0.601359
O12   O     O_R   0.409560 0.909540 0.386900 -0.619918
O13   O     O_R   0.409560 0.090460 0.386900 -0.621112
O14   O     O_R   0.909560 0.409540 0.386900 -0.619918
O15   O     O_R   0.909560 0.590460 0.386900 -0.621113
O16   O     O_R   0.590440 0.090460 0.613100 -0.629830
Zn1   Zn    Zn3+2 0.499970 0.000000 0.650990 0.920883
Zn2   Zn    Zn3+2 0.999970 0.500000 0.650990 0.920883
Zn3   Zn    Zn3+2 0.500030 0.000000 0.349010 0.929320
Zn4   Zn    Zn3+2 0.000030 0.500000 0.349010 0.929319

loop_
_geom_bond_atom_site_label_1
_geom_bond_atom_site_label_2
_ccdc_geom_bond_type
C66   C68   S    
C6    C45   S    
C25   H8    S    
C9    H45   S    
C7    C36   S    
C5    C56   S    
C2    H12   S    
C40   H21   S    
C4    C8    D    
C67   O3    A    
C68   H52   S    
C49   H32   S    
C53   C59   A    
C53   C54   A    
C26   C27   A    
C37   C38   A    
C37   H18   S    
C45   O5    A    
C20   N3    D    
C36   C37   A    
C19   C21   S    
C33   H16   S    
H5    N1    S    
C5    C72   D    
C3    C7    D    
C10   C15   D    
C19   N2    D    
C7    C71   S    
C30   C31   A    
O5    Zn3   S    
C64   H49   S    
C16   H3    S    
C70   H58   S    
C47   H27   S    
C66   H55   S    
C1    O12   A    
O8    Zn4   S    
C2    C13   S    
C16   C34   S    
C54   C55   A    
C5    C22   S    
C41   H22   S    
C52   H35   S    
C59   H44   S    
C17   H4    S    
C69   H61   S    
C1    C15   S    
C29   C30   A    
C12   O13   A    
C56   O2    A    
C69   N4    S    
C71   O8    A    
C46   H26   S    
O12   Zn3   S    
N3    Zn3   S    
C50   H31   S    
C31   H14   S    
C22   C28   A    
C28   H11   S    
C13   H63   S    
C36   C41   A    
C2    C6    D    
C10   H56   S    
O7    Zn4   S    
H6    N2    S    
C68   H51   S    
C44   C46   A    
C48   H28   S    
C66   N3    S    
C51   C52   S    
O11   Zn2   S    
C24   C25   A    
C21   C60   S    
C11   H62   S    
C39   C40   A    
C11   C72   S    
C20   C53   S    
C49   H33   S    
O6    Zn3   S    
C55   H41   S    
C25   C26   A    
C34   O15   A    
C32   H15   S    
C4    H34   S    
C38   H19   S    
C70   H57   S    
C66   H54   S    
C60   C61   A    
O13   Zn3   S    
C18   N1    D    
C9    C14   D    
O14   Zn4   S    
C62   C63   A    
C3    C9    S    
C44   H25   S    
N2    Zn2   S    
C24   H7    S    
C31   C32   A    
C6    C29   S    
C43   H24   S    
C54   H40   S    
C45   O16   A    
C17   C23   S    
C65   H50   S    
C30   H13   S    
C62   H47   S    
C50   H29   S    
C35   H17   S    
O1    Zn1   S    
C40   C41   A    
C23   O10   A    
C12   C14   S    
C60   C65   A    
C50   H30   S    
C42   C48   A    
C55   C57   A    
C43   C44   A    
C67   O7    A    
C58   H43   S    
C22   C24   A    
C26   H9    S    
C42   C43   A    
O2    Zn1   S    
O4    Zn2   S    
C39   H20   S    
O3    Zn2   S    
O15   Zn4   S    
C46   C47   A    
O16   Zn1   S    
C51   H39   S    
O10   Zn2   S    
C61   H46   S    
C12   O9    A    
C27   H10   S    
C8    C42   S    
C72   H1    S    
C47   C48   A    
C34   O11   A    
C57   H42   S    
N1    Zn1   S    
C51   H38   S    
C29   C35   A    
C13   C17   D    
C32   C33   A    
C58   C59   A    
C64   C65   A    
C63   H48   S    
C57   C58   A    
C38   C39   A    
C14   H64   S    
C52   H37   S    
C69   H60   S    
C70   H59   S    
C33   C35   A    
C18   C20   S    
C56   O6    A    
C61   C62   A    
C69   C70   S    
C11   C16   D    
C1    O1    A    
C63   C64   A    
C19   C51   S    
C15   H2    S    
C52   H36   S    
C8    C67   S    
C49   C50   S    
C23   O14   A    
C27   C28   A    
C3    H23   S    
C21   N4    D    
O9    Zn1   S    
C4    C10   S    
C68   H53   S    
N4    Zn4   S    
C18   C49   S    
C71   O4    A    
