data_mof_unit_18999.cif
_audit_creation_date              2012-12-10T16:51:00-0500
_audit_creation_method            fapswitch 2.2
_symmetry_space_group_name_H-M    P1
_symmetry_Int_Tables_number       1
_space_group_crystal_system       triclinic
_cell_length_a                    7.946933
_cell_length_b                    8.538215
_cell_length_c                    10.656521
_cell_angle_alpha                 92.22205
_cell_angle_beta                  84.258031
_cell_angle_gamma                 93.738203
_cell_volume                      717.535393259

loop_
_atom_site_label
_atom_site_type_symbol
_atom_type_description
_atom_site_fract_x
_atom_site_fract_y
_atom_site_fract_z
_atom_type_partial_charge
C1    C     C_R   0.545165 0.793954 0.496697 0.960210
C2    C     C_R   0.939587 0.394042 0.025268 -0.130853
C3    C     C_R   0.037453 0.514219 0.082766 -0.092387
C4    C     C_R   0.962547 0.485782 0.917234 -0.092387
C5    C     C_R   0.179898 0.465668 0.132939 -0.195736
C6    C     C_R   0.820102 0.534333 0.867061 -0.195735
C7    C     C_R   0.342824 0.492409 0.071285 0.092690
C8    C     C_R   0.657176 0.507591 0.928715 0.092690
C9    C     C_R   0.359782 0.559211 0.953077 0.088093
C10   C     C_R   0.640218 0.440789 0.046923 0.088092
C11   C     C_R   0.488836 0.453876 0.124452 -0.241855
C12   C     C_R   0.454835 0.206046 0.503303 0.960210
C13   C     C_R   0.511164 0.546124 0.875547 -0.241855
C14   C     C_1   0.999944 0.308463 0.432117 0.359053
C15   C     C_1   0.000056 0.691537 0.567883 0.359053
C16   C     C_2   0.568501 0.957981 0.494873 -0.374608
C17   C     C_2   0.431499 0.042019 0.505127 -0.374609
C18   C     C_R   0.503976 0.520656 0.739465 0.875071
C19   C     C_R   0.496024 0.479344 0.260534 0.875071
C20   C     C_R   0.224050 0.637440 0.916418 -0.198295
C21   C     C_R   0.775950 0.362561 0.083582 -0.198295
C22   C     C_R   0.060413 0.605958 0.974732 -0.130853
H1    H     H_    0.034352 0.427241 0.838211 0.180419
H2    H     H_    0.302025 0.991050 0.514912 0.197970
H3    H     H_    0.965648 0.572759 0.161789 0.180419
H4    H     H_    0.241925 0.717165 0.838742 0.155091
H5    H     H_    0.758075 0.282836 0.161258 0.155091
H6    H     H_    0.999956 0.717383 0.985940 0.151288
H7    H     H_    0.000045 0.282618 0.014060 0.151288
H8    H     H_    0.158220 0.388095 0.211161 0.161023
H9    H     H_    0.841780 0.611906 0.788839 0.161023
H10   H     H_    0.697975 0.008950 0.485088 0.197970
N1    N     N_2   0.950330 0.457950 0.466250 -0.155398
N2    N     N_2   0.049670 0.542050 0.533750 -0.155398
N3    N     N_1   0.037892 0.182669 0.402648 -0.268402
N4    N     N_1   0.962108 0.817331 0.597351 -0.268402
O1    O     O_R   0.389250 0.738570 0.508280 -0.623955
O2    O     O_R   0.610750 0.261430 0.491720 -0.623955
O3    O     O_R   0.678390 0.711630 0.486650 -0.622522
O4    O     O_R   0.321610 0.288370 0.513350 -0.622522
O5    O     O_R   0.355430 0.513480 0.694040 -0.628166
O6    O     O_R   0.644570 0.486520 0.305960 -0.628166
O7    O     O_R   0.644570 0.486540 0.672410 -0.624177
O8    O     O_R   0.355430 0.513460 0.327590 -0.624177
Zn1   Zn    Zn3+2 0.306940 0.517990 0.514440 0.935447
Zn2   Zn    Zn3+2 0.693060 0.482010 0.485560 0.935447

loop_
_geom_bond_atom_site_label_1
_geom_bond_atom_site_label_2
_ccdc_geom_bond_type
C12   C17   S    
C12   O4    A    
C2    C4    A    
C8    C13   A    
C16   H10   S    
C4    C22   A    
C15   N2    S    
C19   O6    A    
C1    O1    A    
C2    C21   A    
C2    C3    A    
C21   H5    S    
N2    Zn1   S    
C22   H6    S    
C18   O7    A    
C19   O8    A    
C7    C11   A    
N1    Zn2   S    
C11   C19   S    
C20   H4    S    
C13   C18   S    
C14   N1    S    
C2    H7    S    
C6    C8    A    
C4    C6    A    
C20   C22   A    
C6    H9    S    
C5    C7    A    
O3    Zn2   S    
C10   C21   A    
C12   O2    A    
O4    Zn1   S    
O7    Zn2   S    
O2    Zn2   S    
C17   H2    S    
C10   C11   A    
C1    O3    A    
O1    Zn1   S    
C7    C9    A    
C15   N4    T    
C3    H3    S    
N1    N2    D    
O8    Zn1   S    
C8    C10   A    
C5    H8    S    
O6    Zn2   S    
C18   O5    A    
C14   N3    T    
C1    C16   S    
C4    H1    S    
C9    C13   A    
C3    C22   A    
O5    Zn1   S    
C9    C20   A    
C16   C17   D    
C3    C5    A    
