data_mof_unit_20209.cif
_audit_creation_date              2012-12-10T16:52:04-0500
_audit_creation_method            fapswitch 2.2
_symmetry_space_group_name_H-M    P1
_symmetry_Int_Tables_number       1
_space_group_crystal_system       triclinic
_cell_length_a                    7.773386
_cell_length_b                    8.553479
_cell_length_c                    14.845422
_cell_angle_alpha                 90.650095
_cell_angle_beta                  85.463144
_cell_angle_gamma                 93.681379
_cell_volume                      981.921910665

loop_
_atom_site_label
_atom_site_type_symbol
_atom_type_description
_atom_site_fract_x
_atom_site_fract_y
_atom_site_fract_z
_atom_type_partial_charge
C1    C     C_R   0.545827 0.794734 0.497584 0.959757
C2    C     C_R   0.549480 0.637028 0.811411 -0.232499
C3    C     C_R   0.495161 0.503036 0.232282 -0.051549
C4    C     C_R   0.503745 0.497922 0.767814 -0.052044
C5    C     C_R   0.541874 0.641417 0.185916 -0.211163
C6    C     C_R   0.451307 0.361065 0.814472 -0.240630
C7    C     C_R   0.541157 0.642235 0.092719 0.078572
C8    C     C_R   0.446751 0.361579 0.907856 0.066784
C9    C     C_R   0.492829 0.502143 0.047157 -0.014871
C10   C     C_R   0.494861 0.501599 0.953429 -0.011086
C11   C     C_R   0.441914 0.362860 0.095594 0.025992
C12   C     C_R   0.454176 0.205271 0.502347 0.956389
C13   C     C_R   0.544938 0.640961 0.904999 0.036054
C14   C     C_R   0.586149 0.780724 0.044815 -0.296905
C15   C     C_R   0.394349 0.224910 0.955988 -0.303452
C16   C     C_3   0.795885 0.970453 0.902322 0.050534
C17   C     C_3   0.834236 0.098374 0.831148 -0.304207
C18   C     C_3   0.021549 0.164054 0.828310 -0.974118
C19   C     C_3   0.154441 0.058927 0.098138 0.072975
C20   C     C_3   0.059580 0.147502 0.175608 -0.372662
C21   C     C_3   0.864879 0.107421 0.180995 -0.938288
C22   C     C_R   0.589682 0.780821 0.950623 0.452594
C23   C     C_R   0.386545 0.225625 0.050240 0.479467
C24   C     C_2   0.569971 0.958301 0.496131 -0.384867
C25   C     C_2   0.430047 0.041711 0.503674 -0.381383
C26   C     C_R   0.501253 0.498306 0.672751 0.875235
C27   C     C_R   0.498716 0.501962 0.327267 0.874583
C28   C     C_R   0.445604 0.364905 0.188814 -0.254787
H1    H     H_    0.410804 0.259979 0.228210 0.169484
H2    H     H_    0.985962 0.617358 0.567915 0.192391
H3    H     H_    0.881265 0.872726 0.884636 0.136124
H4    H     H_    0.824372 0.019735 0.969479 0.144008
H5    H     H_    0.807599 0.049364 0.763606 0.219658
H6    H     H_    0.748373 0.195457 0.846723 0.242525
H7    H     H_    0.046838 0.223073 0.893349 0.264937
H8    H     H_    0.046113 0.251635 0.773386 0.280621
H9    H     H_    0.111159 0.068885 0.815131 0.260156
H10   H     H_    0.126581 0.931196 0.108931 0.175580
H11   H     H_    0.102937 0.085615 0.032519 0.118098
H12   H     H_    0.587343 0.741310 0.771876 0.165280
H13   H     H_    0.109958 0.116685 0.240698 0.227641
H14   H     H_    0.083150 0.275767 0.165369 0.224069
H15   H     H_    0.810018 0.144305 0.118355 0.264465
H16   H     H_    0.801520 0.170399 0.239124 0.276738
H17   H     H_    0.836707 0.979542 0.190822 0.254822
H18   H     H_    0.578824 0.747294 0.222549 0.132236
H19   H     H_    0.414591 0.255094 0.777874 0.142954
H20   H     H_    0.616235 0.889028 0.080398 0.186944
H21   H     H_    0.358282 0.117690 0.920664 0.197488
H22   H     H_    0.702069 0.009499 0.488894 0.180982
H23   H     H_    0.297949 0.990517 0.510889 0.181433
H24   H     H_    0.014018 0.382636 0.432072 0.191690
N1    N     N_2   0.950330 0.457950 0.475660 -0.172887
N2    N     N_2   0.049670 0.542050 0.524340 -0.173206
O1    O     O_R   0.389250 0.738570 0.505970 -0.611637
O2    O     O_3   0.335851 0.089707 0.097878 -0.651235
O3    O     O_R   0.610750 0.261430 0.494030 -0.613615
O4    O     O_R   0.678390 0.711620 0.490370 -0.631715
O5    O     O_R   0.321610 0.288380 0.509630 -0.632838
O6    O     O_R   0.355420 0.513510 0.639950 -0.613258
O7    O     O_R   0.644580 0.486490 0.360050 -0.614495
O8    O     O_R   0.644560 0.486560 0.624350 -0.625545
O9    O     O_R   0.355440 0.513440 0.375650 -0.623598
O10   O     O_3   0.619438 0.919675 0.903284 -0.654542
Zn1   Zn    Zn3+2 0.306940 0.517990 0.510420 0.942667
Zn2   Zn    Zn3+2 0.693060 0.482010 0.489580 0.941155

loop_
_geom_bond_atom_site_label_1
_geom_bond_atom_site_label_2
_ccdc_geom_bond_type
C19   O2    S    
O6    Zn1   S    
C2    C4    A    
C25   H23   S    
N1    N2    D    
C19   H10   S    
C2    H12   S    
C16   H4    S    
C21   H16   S    
C9    C11   A    
C9    C10   A    
O3    Zn2   S    
C20   H14   S    
C19   C20   S    
C12   C25   S    
O9    Zn1   S    
C14   C22   A    
C15   C23   A    
C17   C18   S    
C1    O1    A    
C5    C7    A    
C23   O2    S    
N2    Zn1   S    
C1    O4    A    
H24   N1    S    
C16   H3    S    
N1    Zn2   S    
H2    N2    S    
C28   H1    S    
C5    H18   S    
C17   H5    S    
C11   C28   A    
C6    C8    A    
C12   O3    A    
C19   H11   S    
C11   C23   A    
C3    C28   A    
O1    Zn1   S    
C18   H9    S    
C13   C22   A    
C20   H13   S    
C8    C15   A    
C21   H17   S    
C3    C27   S    
C15   H21   S    
C24   H22   S    
C8    C10   A    
C4    C26   S    
C26   O6    A    
C17   H6    S    
O8    Zn2   S    
C22   O10   S    
C6    H19   S    
C24   C25   D    
C1    C24   S    
C4    C6    A    
C18   H7    S    
C7    C9    A    
C2    C13   A    
C26   O8    A    
C27   O9    A    
C14   H20   S    
C16   O10   S    
C20   C21   S    
C21   H15   S    
C12   O5    A    
C18   H8    S    
O7    Zn2   S    
O4    Zn2   S    
C7    C14   A    
O5    Zn1   S    
C16   C17   S    
C3    C5    A    
C10   C13   A    
C27   O7    A    
