data_mof_unit_27689.cif
_audit_creation_date              2012-12-11T15:32:36-0500
_audit_creation_method            fapswitch 2.2
_symmetry_space_group_name_H-M    P1
_symmetry_Int_Tables_number       1
_space_group_crystal_system       triclinic
_cell_length_a                    8.347198
_cell_length_b                    16.384076
_cell_length_c                    18.92588
_cell_angle_alpha                 107.690455
_cell_angle_beta                  86.021024
_cell_angle_gamma                 97.465916
_cell_volume                      2443.79734454

loop_
_atom_site_label
_atom_site_type_symbol
_atom_type_description
_atom_site_fract_x
_atom_site_fract_y
_atom_site_fract_z
_atom_type_partial_charge
Ba1   Ba    Ba6+2 0.640410 0.457420 0.526150 1.632443
Ba2   Ba    Ba6+2 0.169770 0.542590 0.473910 1.619421
C1    C     C_3   0.808702 0.224683 0.747531 -0.394467
C2    C     C_R   0.116488 0.252066 0.490196 -0.238386
C3    C     C_2   0.522329 0.858740 0.572988 -0.138418
C4    C     C_3   0.266151 0.231446 0.705902 0.449682
C5    C     C_2   0.553606 0.776193 0.554643 0.065392
C6    C     C_2   0.825508 0.810577 0.504402 0.020694
C7    C     C_3   0.810830 0.905787 0.542070 -0.042597
C8    C     C_3   0.633980 0.925072 0.547829 -0.005428
C9    C     C_2   0.931937 0.968103 0.514650 -0.078376
C10   C     C_2   0.892279 0.035806 0.495798 -0.093892
C11   C     C_R   0.163135 0.077966 0.443339 -0.010854
C12   C     C_3   0.818323 0.261292 0.682413 0.353195
C13   C     C_R   0.016483 0.102151 0.479635 -0.033799
C14   C     C_R   0.281242 0.139189 0.427314 -0.133035
C15   C     C_R   0.257795 0.226670 0.449756 0.115651
C16   C     C_3   0.289394 0.160657 0.741587 -0.096400
C17   C     C_R   0.991346 0.190174 0.500773 0.003682
C18   C     C_R   0.092653 0.458757 0.692206 -0.268196
C19   C     C_R   0.961160 0.504573 0.722499 0.081881
C20   C     C_R   0.913562 0.515132 0.797051 -0.125674
C21   C     C_R   0.000326 0.483290 0.842198 -0.002426
C22   C     C_R   0.135063 0.439613 0.811565 -0.147749
C23   C     C_3   0.987771 0.277470 0.270483 0.327166
C24   C     C_R   0.182360 0.428030 0.736863 -0.009895
C25   C     C_R   0.899741 0.428617 0.948388 -0.110875
C26   C     C_R   0.851976 0.440168 0.023262 0.145092
C27   C     C_R   0.861713 0.524090 0.073523 0.042023
C28   C     C_3   0.293879 0.689273 0.720908 0.357359
C29   C     C_R   0.920416 0.594705 0.048044 -0.117000
C30   C     C_R   0.967425 0.583355 0.973124 0.069655
C31   C     C_R   0.955036 0.499220 0.922325 0.040380
C32   C     C_R   0.670459 0.577980 0.184569 -0.011628
C33   C     C_R   0.626461 0.585560 0.259875 0.042421
C34   C     C_3   0.937229 0.185588 0.215823 0.022914
C35   C     C_R   0.854372 0.512639 0.270417 0.045657
C36   C     C_R   0.899901 0.504856 0.196375 -0.121983
C37   C     C_R   0.811611 0.538469 0.153097 0.009027
C38   C     C_R   0.724853 0.557930 0.303014 -0.272794
C39   C     C_3   0.224318 0.762923 0.780848 -0.324130
C40   C     C_3   0.502125 0.296352 0.273999 0.329136
C41   C     C_3   0.493614 0.242898 0.191221 -0.185139
C42   C     C_3   0.830670 0.731054 0.692007 0.438179
C43   C     C_3   0.782482 0.804369 0.760731 -0.161149
C44   C     C_3   0.495337 0.390016 0.278749 -0.290579
C45   C     C_3   0.484690 0.791594 0.357424 0.355330
C46   C     C_3   0.482114 0.145127 0.176881 -0.417185
C47   C     C_3   0.718445 0.880025 0.744731 -0.467482
C48   C     C_3   0.992724 0.274892 0.350219 -0.256713
C49   C     C_3   0.825672 0.124109 0.250273 -0.372635
C50   C     C_3   0.667700 0.794124 0.346614 -0.353210
C51   C     C_3   0.034937 0.661042 0.949183 -0.411798
C52   C     C_3   0.563112 0.608501 0.138843 -0.381923
C53   C     C_3   0.355183 0.628552 0.757026 -0.350739
C54   C     C_3   0.438272 0.879209 0.357682 -0.358666
C55   C     C_3   0.040912 0.727664 0.313158 0.353925
C56   C     C_3   0.080746 0.753037 0.242426 -0.356581
C57   C     C_2   0.704341 0.750875 0.512884 -0.297434
H1    H     H_    0.760068 0.321905 0.699361 0.086922
H2    H     H_    0.687810 0.776040 0.793457 0.100726
H3    H     H_    0.888196 0.830568 0.796809 0.110150
H4    H     H_    0.948108 0.276312 0.668522 -0.041430
H5    H     H_    0.884817 0.268312 0.792474 0.058967
H6    H     H_    0.110019 0.301243 0.252631 0.061542
H7    H     H_    0.869841 0.194103 0.170298 0.123480
H8    H     H_    0.853731 0.160410 0.730006 0.116031
H9    H     H_    0.169138 0.127971 0.752670 0.058804
H10   H     H_    0.446216 0.782290 0.412134 0.081124
H11   H     H_    0.307876 0.882926 0.369568 0.165939
H12   H     H_    0.177821 0.806953 0.754743 0.129523
H13   H     H_    0.502531 0.932228 0.401611 0.074793
H14   H     H_    0.469452 0.890367 0.303061 0.108215
H15   H     H_    0.918326 0.693962 0.308670 -0.031245
H16   H     H_    0.122845 0.681929 0.317211 0.126200
H17   H     H_    0.089637 0.694080 0.194824 0.078760
H18   H     H_    0.197474 0.794733 0.246452 0.150496
H19   H     H_    0.984481 0.788585 0.232315 0.093164
H20   H     H_    0.413685 0.878481 0.605157 0.104738
H21   H     H_    0.388642 0.117792 0.395304 0.085136
H22   H     H_    0.717454 0.682704 0.490656 0.076690
H23   H     H_    0.124752 0.737724 0.813267 0.092710
H24   H     H_    0.097363 0.319422 0.507072 0.063907
H25   H     H_    0.058971 0.961489 0.516991 0.105609
H26   H     H_    0.766386 0.045985 0.497060 0.108443
H27   H     H_    0.999603 0.468583 0.171178 0.095936
H28   H     H_    0.891682 0.364240 0.909987 0.063390
H29   H     H_    0.171340 0.267805 0.740888 -0.046815
H30   H     H_    0.812484 0.550959 0.820644 0.086322
H31   H     H_    0.928068 0.659020 0.086873 0.074069
H32   H     H_    0.206388 0.417576 0.846360 0.065122
H33   H     H_    0.690017 0.563158 0.360227 0.062854
H34   H     H_    0.319703 0.800736 0.819742 0.098975
H35   H     H_    0.133181 0.453070 0.635545 0.072514
H36   H     H_    0.346514 0.191449 0.796079 0.098255
H37   H     H_    0.198717 0.652815 0.681686 0.057997
H38   H     H_    0.523172 0.431964 0.335536 0.091476
H39   H     H_    0.582095 0.407428 0.237410 0.022396
H40   H     H_    0.373632 0.399409 0.264927 0.129581
H41   H     H_    0.598724 0.121684 0.153897 0.114560
H42   H     H_    0.447019 0.125768 0.227675 0.143575
H43   H     H_    0.392240 0.111836 0.133899 0.131323
H44   H     H_    0.955546 0.715454 0.594206 0.190641
H45   H     H_    0.614957 0.287575 0.296330 0.090688
H46   H     H_    0.913474 0.816591 0.633517 0.125615
H47   H     H_    0.817541 0.921312 0.725765 0.128132
H48   H     H_    0.624527 0.857055 0.702882 0.148879
H49   H     H_    0.663779 0.920734 0.796498 0.135969
H50   H     H_    0.058855 0.334843 0.385173 0.110257
H51   H     H_    0.869077 0.267270 0.374723 0.103318
H52   H     H_    0.056556 0.219978 0.350036 0.012320
H53   H     H_    0.138822 0.176590 0.147163 0.161197
H54   H     H_    0.155656 0.144411 0.223317 0.202551
H55   H     H_    0.890989 0.102824 0.289473 0.118142
H56   H     H_    0.602271 0.263243 0.160474 0.095763
H57   H     H_    0.720272 0.155337 0.280096 0.102493
H58   H     H_    0.781828 0.064920 0.206032 0.123105
H59   H     H_    0.704598 0.742142 0.365269 0.042783
H60   H     H_    0.703927 0.784780 0.287365 0.108014
H61   H     H_    0.731005 0.855966 0.380662 0.102943
H62   H     H_    0.114346 0.146209 0.629143 0.133258
H63   H     H_    0.303780 0.166408 0.595371 0.196577
H64   H     H_    0.797441 0.309732 0.005344 0.166868
H65   H     H_    0.669595 0.371566 0.063318 0.166510
H66   H     H_    0.047056 0.720672 0.997014 0.112911
H67   H     H_    0.387334 0.257727 0.167089 0.085773
H68   H     H_    0.156761 0.651560 0.922756 0.117550
H69   H     H_    0.953995 0.671237 0.909362 0.111161
H70   H     H_    0.605777 0.597450 0.080409 0.106000
H71   H     H_    0.439930 0.573416 0.137436 0.136226
H72   H     H_    0.556339 0.678704 0.163599 0.126717
H73   H     H_    0.491185 0.126103 0.675185 0.245159
H74   H     H_    0.322864 0.055973 0.650679 0.174561
H75   H     H_    0.394955 0.572766 0.712735 0.135638
H76   H     H_    0.459360 0.661222 0.792439 0.113920
H77   H     H_    0.258473 0.605909 0.792030 0.047547
H78   H     H_    0.721627 0.697984 0.660305 0.025556
H79   H     H_    0.682032 0.218470 0.769025 0.138610
N1    N     N_3   0.950857 0.763934 0.644792 -0.472943
N2    N     N_3   0.078267 0.142717 0.181670 -0.510796
N3    N     N_3   0.210083 0.194489 0.630063 -0.515402
N4    N     N_3   0.791902 0.367166 0.048475 -0.508814
N5    N     N_3   0.389042 0.095775 0.695811 -0.500907
O1    O     O_2   0.558990 0.288510 0.428270 -0.474577
O2    O     O_2   0.291406 0.561821 0.258842 -0.509811
O3    O     O_3   0.405529 0.725906 0.299353 -0.613761
O4    O     O_3   0.341190 0.396600 0.446070 -0.479329
O5    O     O_3   0.948410 0.543360 0.590820 -0.489334
O6    O     O_2   0.117990 0.459640 0.323300 -0.470723
O7    O     O_3   0.877287 0.332892 0.264825 -0.681077
O8    O     O_2   0.162692 0.811595 0.504395 -0.491954
O9    O     O_3   0.052354 0.801494 0.375066 -0.620148
O10   O     O_3   0.809080 0.340350 0.563320 -0.478985
O11   O     O_2   0.657425 0.188376 0.488399 -0.484397
O12   O     O_3   0.903900 0.676250 0.720383 -0.662506
O13   O     O_3   0.368598 0.268942 0.313008 -0.666634
O14   O     O_3   0.737452 0.200774 0.622450 -0.593171
O15   O     O_2   0.692320 0.540420 0.676730 -0.461376
O16   O     O_3   0.406060 0.383660 0.606030 -0.451972
O17   O     O_2   0.516085 0.447945 0.741455 -0.487662
O18   O     O_3   0.412565 0.285258 0.706448 -0.578617
O19   O     O_2   0.251320 0.711540 0.571760 -0.459782
O20   O     O_3   0.469110 0.603410 0.553990 -0.481980
O21   O     O_3   0.001220 0.659660 0.436740 -0.497119
O22   O     O_3   0.426711 0.725402 0.687040 -0.652300
O23   O     O_3   0.861890 0.456640 0.409240 -0.463873
O24   O     O_3   0.404240 0.616350 0.394030 -0.476121
P1    P     P_3+3 0.391560 0.302240 0.409860 0.973267
P2    P     P_3+3 0.873530 0.566630 0.670640 0.972529
P3    P     P_3+3 0.375520 0.385514 0.698940 0.977093
P4    P     P_3+3 0.418740 0.697770 0.590200 0.979546
P5    P     P_3+3 0.432350 0.622275 0.303155 0.923566
P6    P     P_3+3 0.797926 0.228688 0.541810 0.967285
P7    P     P_3+3 0.928801 0.441408 0.316292 0.939591
P8    P     P_3+3 0.013081 0.771432 0.456517 0.927847

loop_
_geom_bond_atom_site_label_1
_geom_bond_atom_site_label_2
_ccdc_geom_bond_type
O22   P4    S    
C44   H40   S    
C42   H78   S    
C33   P5    S    
O16   P3    S    
O3    P5    S    
H53   N2    S    
Ba2   O19   S    
C6    P8    S    
C56   H17   S    
C47   H48   S    
C1    H5    S    
C25   C31   A    
C13   C17   A    
C52   H72   S    
C26   C27   A    
C10   H26   S    
O1    P1    D    
Ba1   O15   S    
C22   C24   A    
C32   C33   A    
C35   C38   A    
C5    P4    S    
C6    C57   D    
C36   C37   A    
C53   H76   S    
O13   P1    S    
Ba2   O5    S    
C53   H77   S    
C55   O9    S    
O10   P6    S    
C43   H3    S    
C48   H51   S    
C4    H29   S    
O21   P8    S    
Ba1   Ba2   S    
C40   C44   S    
Ba1   P2    S    
C23   C48   S    
C45   H10   S    
C28   H37   S    
C51   H68   S    
C56   H18   S    
C41   H56   S    
C35   P7    S    
C2    C17   A    
C39   H34   S    
O19   P4    D    
C14   C15   A    
C54   H13   S    
C21   C22   A    
C4    O18   S    
C28   C39   S    
C3    H20   S    
O20   P4    S    
C41   C46   S    
Ba2   O23   S    
Ba2   P4    S    
C39   H12   S    
Ba2   O6    S    
C44   H39   S    
C45   O3    S    
C19   C20   A    
C16   H36   S    
O9    P8    S    
H65   N4    S    
C46   H41   S    
C41   H67   S    
C5    C57   S    
C47   H49   S    
C4    C16   S    
H74   N5    S    
C49   H55   S    
O23   P7    S    
C12   O14   S    
C32   C37   A    
H62   N3    S    
Ba1   O16   S    
C23   H6    S    
Ba2   O21   S    
C3    C5    D    
C6    C7    S    
C52   H71   S    
C46   H42   S    
Ba1   P1    S    
C21   C31   S    
Ba2   O4    S    
C48   H50   S    
C38   H33   S    
C23   O7    S    
C14   H21   S    
C55   H15   S    
C45   C50   S    
C40   O13   S    
C17   P6    S    
C35   C36   A    
C51   H69   S    
H44   N1    S    
H46   N1    S    
C7    C9    S    
O12   P2    S    
C34   H7    S    
C29   C30   A    
C10   C13   S    
C43   C47   S    
C29   H31   S    
C46   H43   S    
C27   C37   S    
O5    P2    S    
H54   N2    S    
C1    H79   S    
O6    P7    D    
C4    N3    S    
Ba1   O10   S    
C34   N2    S    
C24   P3    S    
O24   P5    S    
C34   C49   S    
C51   H66   S    
C2    C15   A    
C50   H61   S    
O7    P7    S    
C44   H38   S    
C36   H27   S    
C32   C52   S    
C42   N1    S    
C54   H11   S    
C11   C13   A    
Ba1   O4    S    
C26   N4    S    
C40   C41   S    
O18   P3    S    
C22   H32   S    
C30   C51   S    
C42   C43   S    
C7    C8    S    
C52   H70   S    
C18   H35   S    
C16   N5    S    
C54   H14   S    
O11   P6    D    
C42   O12   S    
C1    H8    S    
C57   H22   S    
C28   O22   S    
C15   P1    S    
C40   H45   S    
Ba2   O20   S    
C9    C10   D    
O15   P2    D    
C47   H47   S    
C1    C12   S    
C9    H25   S    
C53   H75   S    
C12   H1    S    
C28   C53   S    
C49   H57   S    
C30   C31   A    
C55   H16   S    
C33   C38   A    
C3    C8    S    
C27   C29   A    
Ba1   O1    S    
C25   H28   S    
C55   C56   S    
C2    H24   S    
C18   C24   A    
Ba1   O23   S    
H73   N5    S    
C19   P2    S    
C39   H23   S    
H64   N4    S    
C43   H2    S    
C48   H52   S    
C49   H58   S    
C20   H30   S    
C12   H4    S    
O2    P5    D    
O4    P1    S    
C56   H19   S    
C23   C34   S    
C50   H60   S    
O8    P8    D    
C18   C19   A    
Ba1   O20   S    
C11   C14   A    
C25   C26   A    
O17   P3    D    
C20   C21   A    
Ba1   O5    S    
H63   N3    S    
C16   H9    S    
Ba2   O24   S    
O14   P6    S    
C45   C54   S    
C50   H59   S    
