data_mof_unit_34193.cif
_audit_creation_date              2012-12-11T14:36:18-0500
_audit_creation_method            fapswitch 2.2
_symmetry_space_group_name_H-M    P1
_symmetry_Int_Tables_number       1
_space_group_crystal_system       triclinic
_cell_length_a                    13.698516
_cell_length_b                    13.62236
_cell_length_c                    27.46232
_cell_angle_alpha                 91.043934
_cell_angle_beta                  90.27181
_cell_angle_gamma                 59.766517
_cell_volume                      4426.79423455

loop_
_atom_site_label
_atom_site_type_symbol
_atom_type_description
_atom_site_fract_x
_atom_site_fract_y
_atom_site_fract_z
_atom_type_partial_charge
C1    C     C_R   0.619996 0.101045 0.570244 0.547202
C2    C     C_1   0.646710 0.720796 0.659036 0.020199
C3    C     C_3   0.955943 0.578507 0.114611 0.028142
C4    C     C_3   0.044207 0.473149 0.226273 -0.145687
C5    C     C_3   0.913369 0.132787 0.226787 -0.111097
C6    C     C_3   0.173315 0.835561 0.290425 -0.039932
C7    C     C_3   0.242055 0.370172 0.373990 -0.027674
C8    C     C_3   0.512120 0.559925 0.240191 -0.048294
C9    C     C_3   0.647581 0.006875 0.104304 -0.018817
C10   C     C_3   0.928440 0.871207 0.173901 0.031096
C11   C     C_3   0.938324 0.807791 0.291782 -0.063419
C12   C     C_3   0.895321 0.967535 0.388485 -0.053424
C13   C     C_3   0.081789 0.149437 0.735553 -0.125330
C14   C     C_3   0.807169 0.391793 0.711291 -0.027011
C15   C     C_R   0.598492 0.782010 0.568701 0.549809
C16   C     C_3   0.160747 0.065539 0.774292 0.267440
C17   C     C_1   0.091628 0.201247 0.901904 0.087648
C18   C     C_1   0.235112 0.136479 0.618636 0.057168
C19   C     C_3   0.061092 0.250904 0.769617 -0.135033
C20   C     C_3   0.139819 0.165823 0.807515 0.012698
C21   C     C_3   0.163892 0.250164 0.746947 0.293462
C22   C     C_3   0.184803 0.149776 0.713427 -0.036602
C23   C     C_1   0.627457 0.742538 0.616894 0.045717
C24   C     C_3   0.241314 0.166812 0.785431 0.272978
C25   C     C_3   0.264636 0.064435 0.751729 -0.072214
C26   C     C_1   0.116321 0.180546 0.859639 0.104125
C27   C     C_R   0.279930 0.121307 0.570108 0.551469
C28   C     C_1   0.208966 0.143619 0.661021 0.050550
C29   C     C_3   0.628131 0.271875 0.744023 0.210945
C30   C     C_3   0.549224 0.256351 0.778856 0.259189
C31   C     C_1   0.685622 0.204202 0.905391 0.071002
C32   C     C_1   0.636061 0.131863 0.618648 0.047586
C33   C     C_3   0.730150 0.194792 0.776642 0.223604
C34   C     C_3   0.727813 0.556088 0.758491 0.257983
C35   C     C_3   0.650880 0.179953 0.811482 -0.022475
C36   C     C_3   0.749784 0.088445 0.747201 0.249267
C37   C     C_3   0.648892 0.165041 0.714252 -0.091931
C38   C     C_3   0.669921 0.074749 0.782036 0.260528
C39   C     C_R   0.622834 0.099347 0.431419 0.581471
C40   C     C_3   0.568490 0.149689 0.749073 0.195611
C41   C     C_1   0.663971 0.191741 0.863984 0.082003
C42   C     C_1   0.645325 0.149041 0.661212 0.031682
C43   C     C_R   0.729683 0.692657 0.356822 0.210780
C44   C     C_R   0.744165 0.681819 0.305693 0.011431
C45   C     C_3   0.699546 0.637166 0.802925 0.015385
C46   C     C_R   0.770130 0.666379 0.202889 0.064767
C47   C     C_R   0.865371 0.625391 0.233596 0.301673
C48   C     C_R   0.851585 0.629873 0.284341 -0.054452
C49   C     C_R   0.779734 0.651208 0.151790 0.232341
C50   C     C_R   0.686109 0.658369 0.126125 0.000762
C51   C     C_R   0.597775 0.781824 0.428477 0.598761
C52   C     C_R   0.525922 0.779258 0.345163 0.171555
C53   C     C_R   0.539887 0.784202 0.295166 0.009772
C54   C     C_R   0.648805 0.729448 0.275047 -0.017736
C55   C     C_R   0.446490 0.843492 0.264661 -0.129621
C56   C     C_3   0.611494 0.637409 0.736349 -0.102105
C57   C     C_R   0.458254 0.834337 0.214515 -0.115039
C58   C     C_R   0.564783 0.763804 0.193814 -0.000492
C59   C     C_R   0.661536 0.719374 0.223974 -0.055979
C60   C     C_R   0.576863 0.728460 0.144858 0.187305
C61   C     C_R   0.619826 0.743880 0.376811 0.036850
C62   C     C_R   0.193846 0.080643 0.357140 0.248280
C63   C     C_R   0.285309 0.118263 0.429006 0.598673
C64   C     C_R   0.181929 0.078496 0.305814 -0.016416
C65   C     C_R   0.145462 0.092092 0.204158 -0.032226
C66   C     C_R   0.103649 0.038793 0.234119 0.297972
C67   C     C_3   0.666118 0.697203 0.710489 -0.068611
C68   C     C_R   0.134369 0.018798 0.283008 0.298487
C69   C     C_R   0.121704 0.103216 0.154469 0.218095
C70   C     C_R   0.128627 0.187913 0.128655 0.003199
C71   C     C_R   0.284518 0.194366 0.347283 0.204892
C72   C     C_R   0.275968 0.189650 0.296774 -0.021682
C73   C     C_R   0.221056 0.136279 0.275855 -0.100088
C74   C     C_R   0.321533 0.239064 0.267089 -0.083538
C75   C     C_3   0.781672 0.616365 0.732483 0.247007
C76   C     C_R   0.303276 0.247865 0.217245 0.222829
C77   C     C_R   0.239182 0.204023 0.195046 0.012156
C78   C     C_3   0.584889 0.720249 0.779904 0.172175
C79   C     C_R   0.203483 0.142768 0.224891 -0.113846
C80   C     C_R   0.200433 0.226157 0.145927 0.191009
C81   C     C_R   0.249900 0.133752 0.377490 0.014038
C82   C     C_R   0.581812 0.242951 0.366863 0.237497
C83   C     C_R   0.578918 0.263511 0.316146 -0.018240
C84   C     C_R   0.585631 0.299312 0.214570 0.014848
C85   C     C_R   0.519779 0.391205 0.247292 0.333915
C86   C     C_R   0.509376 0.372063 0.296306 0.264371
C87   C     C_3   0.753014 0.698085 0.776615 0.237657
C88   C     C_R   0.593821 0.315225 0.164104 0.222879
C89   C     C_3   0.637518 0.782004 0.753400 -0.113103
C90   C     C_R   0.666471 0.220802 0.134092 -0.003563
C91   C     C_R   0.723882 0.045373 0.352222 0.240621
C92   C     C_R   0.714657 0.060061 0.301717 -0.012657
C93   C     C_R   0.645567 0.170434 0.283554 -0.136838
C94   C     C_R   0.772713 0.965941 0.269395 0.312201
C95   C     C_R   0.768011 0.981757 0.219004 0.287084
C96   C     C_R   0.703086 0.092485 0.200306 -0.030579
C97   C     C_R   0.644733 0.187454 0.232836 -0.130103
C98   C     C_R   0.700972 0.111643 0.149917 0.229255
C99   C     C_1   0.705388 0.593995 0.897856 0.066654
C100  C     C_1   0.704324 0.613794 0.855151 0.077820
C101  C     C_R   0.645817 0.131906 0.383625 0.002588
C102  C     C_R   0.048068 0.236300 0.949968 0.565148
C103  C     C_R   0.713559 0.558481 0.947338 0.551802
C104  C     C_R   0.721485 0.224708 0.951655 0.547517
C105  C     C_R   0.052534 0.241333 0.086692 0.579802
C106  C     C_R   0.707360 0.578850 0.084793 0.560222
C107  C     C_R   0.716672 0.235280 0.089058 0.558064
C108  C     C_3   0.376113 0.418249 0.766913 0.043690
C109  C     C_3   0.563450 0.399408 0.680408 -0.133867
C110  C     C_3   0.613386 0.980486 0.833972 -0.027599
Cl1   Cl    Cl    0.856807 0.723914 0.803540 -0.375394
Cl2   Cl    Cl    0.391646 0.806551 0.365823 -0.521675
Cl3   Cl    Cl    0.101297 0.998718 0.123809 -0.488581
Cl4   Cl    Cl    0.127402 0.031809 0.397620 -0.515626
Cl5   Cl    Cl    0.245128 0.290490 0.102577 -0.485252
Cl6   Cl    Cl    0.349797 0.330502 0.188135 -0.499002
Cl7   Cl    Cl    0.503793 0.448365 0.136467 -0.395780
Cl8   Cl    Cl    0.528429 0.352192 0.412215 -0.490605
Cl9   Cl    Cl    0.395523 0.486766 0.328132 -0.516381
Cl10  Cl    Cl    0.453436 0.790303 0.811667 -0.520646
Cl11  Cl    Cl    0.155140 0.944238 0.793238 -0.361070
Cl12  Cl    Cl    0.332715 0.189669 0.824385 -0.512126
Cl13  Cl    Cl    0.167662 0.371805 0.727652 -0.455755
Cl14  Cl    Cl    0.468831 0.117073 0.723035 -0.610699
Cl15  Cl    Cl    0.883651 0.976523 0.726476 -0.377260
Cl16  Cl    Cl    0.842560 0.211861 0.799720 -0.532236
Cl17  Cl    Cl    0.908592 0.563992 0.697893 -0.453649
Cl18  Cl    Cl    0.848285 0.638058 0.395998 -0.589852
Cl19  Cl    Cl    0.456964 0.767997 0.107703 -0.484169
Cr1   Cr    Cr6+3 0.417550 0.169090 0.500530 1.117996
Cr2   Cr    Cr6+3 0.669180 0.913420 0.499920 1.132951
Cr3   Cr    Cr6+3 0.413260 0.917540 0.499520 1.143672
Cr4   Cr    Cr6+3 0.909170 0.177380 0.020380 1.149727
Cr5   Cr    Cr6+3 0.912710 0.429210 0.018220 1.063321
Cr6   Cr    Cr6+3 0.657170 0.432570 0.019030 1.167903
H1    H     H_    0.981016 0.328477 0.779774 0.220224
H2    H     H_    0.371581 0.377318 0.732254 0.175843
H3    H     H_    0.403400 0.480980 0.760310 0.165746
H4    H     H_    0.289562 0.466105 0.782466 0.226106
H5    H     H_    0.526075 0.490759 0.672529 0.140760
H6    H     H_    0.495535 0.378531 0.674679 0.128883
H7    H     H_    0.633805 0.351599 0.654085 0.121651
H8    H     H_    0.536773 0.997729 0.813548 0.201348
H9    H     H_    0.592277 0.046373 0.862745 0.143550
H10   H     H_    0.643617 0.898815 0.852726 0.171891
H11   H     H_    0.963844 0.568892 0.074401 0.166927
H12   H     H_    0.926082 0.597434 0.306779 0.159547
H13   H     H_    0.967351 0.499109 0.130744 0.145354
H14   H     H_    0.026417 0.590663 0.126959 0.187276
H15   H     H_    0.002979 0.420501 0.223536 0.081769
H16   H     H_    0.081511 0.466613 0.262878 0.131884
H17   H     H_    0.113586 0.438490 0.199405 0.212369
H18   H     H_    0.924440 0.207839 0.233338 0.085256
H19   H     H_    0.867996 0.125709 0.258569 0.133884
H20   H     H_    0.860758 0.152369 0.193835 0.134875
H21   H     H_    0.141286 0.825746 0.254565 0.133410
H22   H     H_    0.166386 0.777569 0.316191 0.179276
H23   H     H_    0.382666 0.876648 0.192649 0.192823
H24   H     H_    0.264289 0.806795 0.286865 0.167023
H25   H     H_    0.169199 0.376095 0.394480 0.136656
H26   H     H_    0.212534 0.413565 0.338577 0.127009
H27   H     H_    0.274702 0.416581 0.395858 0.228327
H28   H     H_    0.594703 0.520151 0.220612 0.096586
H29   H     H_    0.524508 0.568018 0.279804 0.156030
H30   H     H_    0.458732 0.646113 0.226104 0.186400
H31   H     H_    0.576331 0.083902 0.087829 0.151448
H32   H     H_    0.617752 0.981780 0.136905 0.162824
H33   H     H_    0.677164 0.936303 0.077111 0.172149
H34   H     H_    0.363435 0.895419 0.279361 0.154337
H35   H     H_    0.970101 0.795667 0.149306 0.189883
H36   H     H_    0.985338 0.855918 0.204969 0.117300
H37   H     H_    0.920720 0.944484 0.153710 0.214987
H38   H     H_    0.964629 0.760024 0.326202 0.181902
H39   H     H_    0.966338 0.871301 0.293221 0.121849
H40   H     H_    0.982973 0.744957 0.262140 0.167689
H41   H     H_    0.866663 0.023728 0.421462 0.152996
H42   H     H_    0.922665 0.006010 0.360073 0.167868
H43   H     H_    0.970174 0.885772 0.398766 0.182529
H44   H     H_    0.891995 0.377601 0.702384 0.156393
H45   H     H_    0.599334 0.874353 0.747970 0.202718
H46   H     H_    0.746035 0.445222 0.682914 0.113441
H47   H     H_    0.814163 0.307332 0.708867 0.185605
H48   H     H_    0.368091 0.276337 0.282948 0.198767
H49   H     H_    0.550555 0.615640 0.720136 0.167712
H50   H     H_    0.016898 0.140987 0.714555 0.183845
H51   H     H_    0.348030 0.988000 0.743934 0.197119
O1    O     O_R   0.301710 0.195650 0.554160 -0.484185
O2    O     O_R   0.635520 0.542770 0.964420 -0.466189
O3    O     O_R   0.665950 0.325030 0.970100 -0.487282
O4    O     O_R   0.522390 0.158990 0.550460 -0.490941
O5    O     O_R   0.816620 0.158530 0.074540 -0.458737
O6    O     O_R   0.004460 0.188870 0.069750 -0.449685
O7    O     O_R   0.025800 0.341780 0.072300 -0.510255
O8    O     O_R   0.807650 0.528950 0.067500 -0.534948
O9    O     O_R   0.633420 0.550490 0.071810 -0.410296
O10   O     O_R   0.664000 0.332180 0.069640 -0.456129
O11   O     O_3   0.826350 0.346390 0.019210 -0.311432
O12   O     O_R   0.658900 0.818120 0.449760 -0.446530
O13   O     O_R   0.694390 0.003530 0.554040 -0.488891
O14   O     O_R   0.657700 0.819660 0.549320 -0.478076
O15   O     O_R   0.501930 0.803280 0.552920 -0.503308
O16   O     O_R   0.318170 0.023580 0.549580 -0.495832
O17   O     O_R   0.303010 0.193990 0.446760 -0.479631
O18   O     O_R   0.523600 0.157450 0.450900 -0.441983
O19   O     O_R   0.695690 0.001860 0.446640 -0.469128
O20   O     O_3   0.446912 0.338362 0.801117 -0.490579
O21   O     O_3   0.604744 0.379908 0.728489 -0.536223
O22   O     O_3   0.698983 0.969047 0.802056 -0.483769
O23   O     O_R   0.503220 0.801620 0.445520 -0.435978
O24   O     O_3   0.852430 0.676603 0.127023 -0.529378
O25   O     O_3   0.971319 0.587396 0.214223 -0.574061
O26   O     O_3   0.013924 0.027436 0.218900 -0.557338
O27   O     O_3   0.109025 0.948210 0.308938 -0.529986
O28   O     O_3   0.330279 0.256538 0.367111 -0.544602
O29   O     O_3   0.454278 0.500584 0.231071 -0.449049
O30   O     O_3   0.738377 0.024151 0.115723 -0.537894
O31   O     O_3   0.822582 0.886731 0.188587 -0.503821
O32   O     O_3   0.820319 0.856485 0.286613 -0.505166
O33   O     O_3   0.810453 0.945884 0.371120 -0.510802
O34   O     O_R   0.319370 0.022040 0.450020 -0.432039
O35   O     O_3   0.774134 0.437472 0.759184 -0.487802
O36   O     O_3   0.499990 0.000010 0.499990 -0.318592
O37   O     O_R   0.818720 0.150820 0.967160 -0.480464
O38   O     O_R   0.006410 0.181720 0.970200 -0.477094
O39   O     O_R   0.027890 0.334070 0.964920 -0.480869
O40   O     O_R   0.809600 0.521790 0.967960 -0.499972

loop_
_geom_bond_atom_site_label_1
_geom_bond_atom_site_label_2
_ccdc_geom_bond_type
Cr5   O11   S    
C99   C103  S    
C57   H23   S    
C34   C56   S    
C65   C79   A    
C47   O25   S    
C46   C59   A    
C27   O16   A    
C45   C100  S    
C14   O35   S    
C12   H43   S    
C19   C20   S    
C51   C61   S    
C94   O32   S    
C43   C44   A    
C8    O29   S    
C33   C36   S    
C6    H24   S    
C102  O38   A    
C106  O8    A    
C53   C54   A    
C103  O40   A    
C105  O7    A    
C7    H26   S    
C46   C49   A    
C69   Cl3   S    
Cr3   O15   S    
C4    O25   S    
C63   O17   A    
C30   C35   S    
C63   C81   S    
C109  H5    S    
Cr3   O36   S    
C17   C26   T    
Cr5   O40   S    
C9    H31   S    
C19   C21   S    
C3    H14   S    
C90   C107  S    
C62   Cl4   S    
C37   C40   S    
C52   C61   A    
C85   O29   S    
C108  H2    S    
C15   O14   A    
C87   Cl1   S    
C66   C68   A    
C52   Cl2   S    
C58   C60   A    
C5    H19   S    
C30   O20   S    
C48   H12   S    
C29   C33   S    
C6    O27   S    
C67   C89   S    
Cr4   O38   S    
C56   C78   S    
C5    O26   S    
C89   H45   S    
C37   C42   S    
C109  O21   S    
Cr6   O3    S    
C62   C64   A    
C33   C35   S    
Cr6   O10   S    
Cr5   O7    S    
C36   Cl15  S    
C45   C78   S    
C22   C25   S    
C96   C98   A    
C49   O24   S    
C64   C73   A    
C109  H7    S    
C110  H10   S    
C31   C41   T    
C8    H30   S    
C18   C27   S    
C12   O33   S    
C14   H44   S    
C34   O35   S    
C34   C75   S    
C12   H41   S    
C1    O4    A    
C3    O24   S    
C15   C23   S    
C12   H42   S    
C3    H13   S    
C78   C89   S    
C22   C28   S    
C39   O18   A    
C105  O6    A    
C1    O13   A    
C91   C101  A    
C40   Cl14  S    
C24   Cl12  S    
C107  O10   A    
C15   O15   A    
C39   C101  S    
Cr1   O4    S    
C54   C59   A    
C77   C79   A    
C9    O30   S    
C32   C42   T    
C4    H17   S    
C7    H27   S    
C11   H38   S    
C13   H50   S    
C13   C19   S    
C70   C80   A    
Cr5   O39   S    
C20   C24   S    
Cr1   O36   S    
C35   C38   S    
C18   C28   T    
C84   C85   A    
C108  O20   S    
C2    C67   S    
C8    H29   S    
C91   C92   A    
Cr1   O1    S    
C7    H25   S    
C56   H49   S    
C19   H1    S    
C85   C86   A    
Cr6   O9    S    
C70   C105  S    
C1    C32   S    
C95   O31   S    
C33   Cl16  S    
Cr3   O34   S    
C63   O34   A    
C21   Cl13  S    
Cr2   O13   S    
C16   Cl11  S    
C29   C30   S    
C51   O12   A    
C51   O23   A    
C93   C97   A    
C47   C48   A    
C80   Cl5   S    
C9    H32   S    
C16   C20   S    
C96   C97   A    
Cr2   O12   S    
C92   C94   A    
C73   C79   A    
C30   C40   S    
C94   C95   A    
C34   C45   S    
C27   O1    A    
C6    H22   S    
C24   C25   S    
C110  H9    S    
C68   O27   S    
C11   O32   S    
C86   Cl9   S    
C74   C76   A    
C72   C74   A    
C62   C81   A    
C88   C90   A    
C65   C66   A    
C55   C57   A    
C29   C37   S    
C21   C24   S    
C58   C59   A    
C67   C75   S    
C84   C97   A    
C53   C55   A    
C66   O26   S    
Cr2   O19   S    
C64   C68   A    
C17   C102  S    
Cr6   O2    S    
C2    C23   T    
C14   H46   S    
Cr1   O18   S    
C52   C53   A    
Cr4   O5    S    
C77   C80   A    
C75   C87   S    
C16   C25   S    
C4    H16   S    
C78   Cl10  S    
C46   C47   A    
C36   C37   S    
C11   H39   S    
Cr4   O11   S    
C104  O37   A    
C45   C87   S    
C11   H40   S    
C9    H33   S    
C103  O2    A    
C84   C88   A    
C72   C73   A    
C14   H47   S    
C60   Cl19  S    
Cr6   O11   S    
C108  H4    S    
C110  O22   S    
C8    H28   S    
C106  O9    A    
C74   H48   S    
C71   C81   A    
C10   H35   S    
C56   C67   S    
C4    H15   S    
Cr3   O16   S    
C29   O21   S    
C99   C100  T    
Cr4   O37   S    
C50   C60   A    
C31   C104  S    
C110  H8    S    
C87   C89   S    
Cr2   O14   S    
C10   H36   S    
Cr3   O23   S    
C71   C72   A    
C5    H20   S    
C38   C40   S    
C76   C77   A    
C43   C61   A    
C57   C58   A    
C43   Cl18  S    
C20   C26   S    
C38   O22   S    
C71   O28   S    
C65   C69   A    
C104  O3    A    
C39   O19   A    
C36   C38   S    
C92   C93   A    
C76   Cl6   S    
C82   C101  A    
C55   H34   S    
C13   C22   S    
Cr2   O36   S    
C75   Cl17  S    
C102  O39   A    
C91   O33   S    
C69   C70   A    
C35   C41   S    
C7    O28   S    
C25   H51   S    
C98   O30   S    
C5    H18   S    
C44   C54   A    
Cr5   O8    S    
C83   C86   A    
C10   O31   S    
C3    H11   S    
C49   C50   A    
C13   C16   S    
C107  O5    A    
C95   C96   A    
C50   C106  S    
C82   Cl8   S    
C109  H6    S    
C82   C83   A    
C88   Cl7   S    
C21   C22   S    
C10   H37   S    
C90   C98   A    
C6    H21   S    
Cr1   O17   S    
C44   C48   A    
Cr4   O6    S    
C108  H3    S    
C83   C93   A    
