data_mof_unit_49963.cif
_audit_creation_date              2012-12-10T19:07:34-0500
_audit_creation_method            fapswitch 2.2
_symmetry_space_group_name_H-M    P1
_symmetry_Int_Tables_number       1
_space_group_crystal_system       triclinic
_cell_length_a                    10.805564
_cell_length_b                    10.858689
_cell_length_c                    9.604945
_cell_angle_alpha                 89.093604
_cell_angle_beta                  90.367323
_cell_angle_gamma                 92.251119
_cell_volume                      1125.95955844

loop_
_atom_site_label
_atom_site_type_symbol
_atom_type_description
_atom_site_fract_x
_atom_site_fract_y
_atom_site_fract_z
_atom_type_partial_charge
C1    C     C_R   0.500547 0.263168 0.500974 0.801583
C2    C     C_R   0.935813 0.460605 0.617371 0.045855
C3    C     C_3   0.927200 0.337112 0.690718 -0.061547
C4    C     C_3   0.068401 0.340393 0.691368 -0.482622
C5    C     C_R   0.465581 0.058324 0.611068 0.132811
C6    C     C_R   0.509665 0.131601 0.502036 -0.172414
C7    C     C_R   0.567259 0.073215 0.391732 -0.286007
C8    C     C_R   0.574339 0.944090 0.390482 0.454417
C9    C     C_R   0.515754 0.871271 0.498173 -0.245360
C10   C     C_R   0.467043 0.934497 0.608387 0.058968
C11   C     C_3   0.393582 0.918387 0.738656 -0.404324
C12   C     C_R   0.262690 0.499390 0.499856 0.778473
C13   C     C_3   0.392747 0.060120 0.741616 -0.467446
C14   C     C_R   0.581468 0.575030 0.072430 0.368310
C15   C     C_R   0.416198 0.427431 0.072161 0.206731
C16   C     C_R   0.415035 0.432057 0.924046 -0.081597
C17   C     C_R   0.581043 0.575143 0.925385 0.252244
C18   C     C_3   0.718054 0.571569 0.918133 -0.516881
C19   C     C_3   0.719606 0.569831 0.075191 -0.487028
C20   C     C_R   0.505914 0.737492 0.499053 0.877542
C21   C     C_R   0.737454 0.500179 0.500328 0.815797
C22   C     C_R   0.063525 0.462284 0.617615 0.097779
C23   C     C_R   0.129742 0.504426 0.500865 -0.077104
C24   C     C_R   0.066482 0.557103 0.388372 -0.227300
C25   C     C_R   0.937653 0.557321 0.389036 -0.161905
C26   C     C_R   0.871150 0.504360 0.501534 -0.095930
Cu1   Cu    Cu3+1 0.499990 0.499980 0.640670 0.943543
Cu2   Cu    Cu3+1 0.500010 0.500020 0.359330 0.978995
H1    H     H_    0.116127 0.595597 0.299155 0.166175
H2    H     H_    0.447891 0.877123 0.825041 0.225642
H3    H     H_    0.299357 0.097448 0.724975 0.182543
H4    H     H_    0.448334 0.100768 0.828316 0.215077
H5    H     H_    0.348049 0.376407 0.866028 0.150920
H6    H     H_    0.749730 0.484605 0.874014 0.212969
H7    H     H_    0.760370 0.657425 0.871355 0.211421
H8    H     H_    0.752607 0.481989 0.120345 0.199987
H9    H     H_    0.765639 0.654528 0.116260 0.254263
H10   H     H_    0.890616 0.596293 0.300480 0.184819
H11   H     H_    0.887747 0.342780 0.796828 0.161114
H12   H     H_    0.108859 0.349357 0.797593 0.175065
H13   H     H_    0.110826 0.269306 0.626704 0.187579
H14   H     H_    0.608788 0.128317 0.308083 0.214118
H15   H     H_    0.300650 0.874115 0.719502 0.191935
N1    N     N_R   0.500790 0.500930 0.147930 -0.224469
N2    N     N_R   0.500790 0.500890 0.852020 -0.214323
O1    O     O_R   0.500000 0.319640 0.618810 -0.581080
O2    O     O_R   0.500010 0.319680 0.381230 -0.596854
O3    O     O_R   0.319650 0.499970 0.618810 -0.581716
O4    O     O_R   0.319660 0.500010 0.381230 -0.615425
O5    O     O_R   0.499990 0.680320 0.618770 -0.583542
O6    O     O_R   0.500000 0.680360 0.381190 -0.512376
O7    O     O_R   0.680340 0.499990 0.618770 -0.590396
O8    O     O_R   0.680350 0.500030 0.381190 -0.569800
C27   C     C_3   0.322987 0.335842 0.137576 -0.371583
C28   C     C_3   0.344536 0.203377 0.094813 -0.856576
H16   H     H_    0.313594 0.188811 0.985950 0.235908
H17   H     H_    0.443936 0.182258 0.105899 0.274191
H18   H     H_    0.289369 0.138152 0.162288 0.252393
H19   H     H_    0.323590 0.334125 0.250550 0.266817
H20   H     H_    0.228064 0.360641 0.105227 0.172267
C29   C     C_3   0.866466 0.233499 0.602659 -0.343266
C30   C     C_3   0.871661 0.108589 0.677005 -0.792882
H21   H     H_    0.969288 0.083443 0.694243 0.249118
H22   H     H_    0.823735 0.111038 0.778886 0.250368
H23   H     H_    0.824527 0.036851 0.612149 0.257531
H24   H     H_    0.767657 0.253329 0.584358 0.198483
H25   H     H_    0.912255 0.228726 0.499570 0.219919
S1    S     S_3+6 0.666080 0.881838 0.260501 -0.043405
O9    O     O_2   0.739403 0.780156 0.323425 -0.351758
O10   O     O_2   0.582791 0.833047 0.146686 -0.332864
O11   O     O_3   0.764270 0.990869 0.193291 -0.559839
H26   H     H_    0.809078 0.948956 0.119098 0.365952

loop_
_geom_bond_atom_site_label_1
_geom_bond_atom_site_label_2
_ccdc_geom_bond_type
Cu1   O3    S    
C2    C22   A    
C20   O5    A    
C23   C24   A    
Cu2   O2    S    
C11   H15   S    
C6    C7    A    
C25   H10   S    
C4    C22   S    
Cu2   O4    S    
C29   H25   S    
C9    C20   S    
C5    C13   S    
C14   C17   A    
Cu1   O5    S    
C19   H8    S    
C12   O3    A    
C4    H12   S    
C10   C11   S    
Cu1   N2    S    
C28   H16   S    
C28   H17   S    
C12   O4    A    
C3    H11   S    
O11   H26   S    
C2    C26   A    
C27   H20   S    
C24   C25   A    
Cu2   O8    S    
C21   O8    A    
C11   C13   S    
C12   C23   S    
C30   H21   S    
C18   H6    S    
S1    O11   S    
C5    C6    A    
C14   C19   S    
Cu1   O1    S    
C5    C10   A    
C21   C26   S    
Cu2   N1    S    
C15   N1    A    
C8    S1    S    
C20   O6    A    
C2    C3    S    
C27   H19   S    
C3    C29   S    
S1    O9    D    
C17   C18   S    
C29   C30   S    
C16   H5    S    
Cu2   O6    S    
C1    O1    A    
C28   H18   S    
C4    H13   S    
C16   N2    A    
C15   C16   A    
C15   C27   S    
C21   O7    A    
C7    C8    A    
Cu1   O7    S    
C18   H7    S    
C14   N1    A    
C18   C19   S    
C9    C10   A    
C7    H14   S    
Cu1   Cu2   S    
S1    O10   D    
C27   C28   S    
C1    O2    A    
C30   H22   S    
C19   H9    S    
C30   H23   S    
C25   C26   A    
C24   H1    S    
C13   H4    S    
C29   H24   S    
C13   H3    S    
C22   C23   A    
C3    C4    S    
C11   H2    S    
C17   N2    A    
C8    C9    A    
C1    C6    S    
