data_mof_unit_55947.cif
_audit_creation_date              2012-12-11T14:14:35-0500
_audit_creation_method            fapswitch 2.2
_symmetry_space_group_name_H-M    P1
_symmetry_Int_Tables_number       1
_space_group_crystal_system       triclinic
_cell_length_a                    24.478948
_cell_length_b                    18.777193
_cell_length_c                    15.891728
_cell_angle_alpha                 89.955295
_cell_angle_beta                  126.755976
_cell_angle_gamma                 90.0419
_cell_volume                      5852.35507085

loop_
_atom_site_label
_atom_site_type_symbol
_atom_type_description
_atom_site_fract_x
_atom_site_fract_y
_atom_site_fract_z
_atom_type_partial_charge
C1    C     C_R   0.336982 0.391310 0.214489 -0.013094
C2    C     C_R   0.668818 0.640048 0.498731 0.023833
C3    C     C_2   0.909914 0.931056 0.699742 0.984529
C4    C     C_2   0.256597 0.609151 0.304468 0.990528
C5    C     C_2   0.743113 0.608854 0.695542 1.000600
C6    C     C_2   0.756597 0.109151 0.304468 0.990528
C7    C     C_2   0.243113 0.108853 0.695542 1.000600
C8    C     C_R   0.830040 0.137994 0.501706 0.011537
C9    C     C_R   0.168818 0.140048 0.498731 0.023833
C10   C     C_R   0.372404 0.642566 0.166428 0.008404
C11   C     C_R   0.628472 0.641767 0.834956 0.011202
C12   C     C_R   0.872404 0.142566 0.166428 0.008404
C13   C     C_R   0.128472 0.141767 0.834956 0.011202
C14   C     C_2   0.697598 0.730989 0.430821 -0.155114
C15   C     C_2   0.301234 0.727631 0.571189 -0.139942
C16   C     C_2   0.197598 0.230989 0.430821 -0.155114
C17   C     C_R   0.663505 0.391442 0.784983 -0.018443
C18   C     C_2   0.801234 0.227631 0.571189 -0.139942
C19   C     C_2   0.716076 0.684064 0.502359 -0.142416
C20   C     C_2   0.282696 0.681451 0.498654 -0.118285
C21   C     C_2   0.216076 0.184064 0.502359 -0.142416
C22   C     C_2   0.782696 0.181451 0.498654 -0.118285
C23   C     C_2   0.235649 0.296543 0.452584 -0.025471
C24   C     C_2   0.764957 0.294339 0.550901 -0.038450
C25   C     C_2   0.735649 0.796543 0.452584 -0.025471
C26   C     C_2   0.264957 0.794339 0.550901 -0.038450
C27   C     C_2   0.303238 0.309635 0.536456 -0.227396
C28   C     C_R   0.836982 0.891310 0.214489 -0.013094
C29   C     C_2   0.697853 0.308892 0.467424 -0.179020
C30   C     C_2   0.803238 0.809635 0.536456 -0.227396
C31   C     C_2   0.197853 0.808892 0.467424 -0.179020
C32   C     C_2   0.687866 0.295255 0.907033 -0.257899
C33   C     C_2   0.314788 0.294113 0.093976 -0.263762
C34   C     C_2   0.187866 0.795255 0.907033 -0.257899
C35   C     C_2   0.814788 0.794113 0.093976 -0.263762
C36   C     C_2   0.753465 0.276142 0.941559 -0.028054
C37   C     C_2   0.250469 0.272928 0.061908 -0.019043
C38   C     C_2   0.253465 0.776142 0.941559 -0.028054
C39   C     C_R   0.163505 0.891442 0.784983 -0.018443
C40   C     C_2   0.750468 0.772928 0.061908 -0.019043
C41   C     C_2   0.342706 0.683031 0.070868 -0.116719
C42   C     C_2   0.660075 0.680303 0.932983 -0.124268
C43   C     C_2   0.842706 0.183031 0.070868 -0.116719
C44   C     C_2   0.160075 0.180303 0.932983 -0.124268
C45   C     C_R   0.610623 0.402195 0.403808 -0.146390
C46   C     C_R   0.389852 0.402878 0.597190 -0.153053
C47   C     C_R   0.110623 0.902195 0.403808 -0.146390
C48   C     C_R   0.889852 0.902878 0.597190 -0.153053
C49   C     C_2   0.288047 0.725600 0.034516 -0.210865
C50   C     C_R   0.391972 0.615262 0.590320 -0.064386
C51   C     C_2   0.715276 0.722190 0.969158 -0.211112
C52   C     C_2   0.788047 0.225600 0.034516 -0.210865
C53   C     C_2   0.215276 0.222190 0.969158 -0.211112
C54   C     C_R   0.677110 0.387938 0.576986 0.011189
C55   C     C_R   0.322637 0.388476 0.424929 0.010088
C56   C     C_R   0.177110 0.887938 0.576986 0.011189
C57   C     C_R   0.822637 0.888476 0.424929 0.010088
C58   C     C_R   0.572117 0.371132 0.778358 -0.073331
C59   C     C_R   0.428727 0.371288 0.222222 -0.068885
C60   C     C_R   0.072117 0.871132 0.778358 -0.073331
C61   C     C_R   0.607235 0.616787 0.409830 -0.062206
C62   C     C_R   0.928727 0.871288 0.222222 -0.068885
C63   C     C_R   0.360276 0.347885 0.175416 0.095264
C64   C     C_R   0.640898 0.348134 0.824736 0.093363
C65   C     C_R   0.860276 0.847885 0.175416 0.095264
C66   C     C_R   0.140898 0.848134 0.824736 0.093363
C67   C     C_R   0.669445 0.371279 0.483947 0.017394
C68   C     C_R   0.331111 0.372247 0.518618 0.032040
C69   C     C_R   0.169445 0.871279 0.483947 0.017394
C70   C     C_R   0.831111 0.872247 0.518618 0.032040
C71   C     C_R   0.319716 0.612280 0.412116 -0.057880
C72   C     C_R   0.891972 0.115262 0.590320 -0.064386
C73   C     C_R   0.679705 0.613164 0.588178 -0.065303
C74   C     C_R   0.819716 0.112280 0.412116 -0.057880
C75   C     C_R   0.179705 0.113164 0.588178 -0.065303
C76   C     C_R   0.436786 0.615020 0.220468 -0.063610
C77   C     C_R   0.563152 0.615810 0.779300 -0.057191
C78   C     C_R   0.936786 0.115020 0.220468 -0.063610
C79   C     C_R   0.063152 0.115810 0.779300 -0.057191
C80   C     C_R   0.658606 0.615659 0.788876 -0.100757
C81   C     C_R   0.341893 0.616648 0.212073 -0.097228
C82   C     C_R   0.158606 0.115659 0.788876 -0.100757
C83   C     C_R   0.107235 0.116787 0.409830 -0.062206
C84   C     C_R   0.841893 0.116648 0.212073 -0.097228
C85   C     C_2   0.190963 0.348761 0.366957 0.983721
C86   C     C_2   0.810219 0.345238 0.638291 0.977751
C87   C     C_2   0.690963 0.848761 0.366957 0.983721
C88   C     C_2   0.310219 0.845238 0.638291 0.977751
C89   C     C_2   0.360075 0.264320 0.647023 0.876184
C90   C     C_2   0.641915 0.264827 0.357761 0.926657
C91   C     C_2   0.860075 0.764320 0.647023 0.876184
C92   C     C_2   0.141915 0.764827 0.357761 0.926657
C93   C     C_2   0.791386 0.303756 0.896446 1.102177
C94   C     C_R   0.330040 0.637995 0.501706 0.011537
C95   C     C_2   0.214256 0.299591 0.109353 1.090693
C96   C     C_2   0.291386 0.803756 0.896446 1.102177
C97   C     C_2   0.714256 0.799592 0.109353 1.090693
C98   C     C_2   0.376317 0.675880 0.019491 1.109122
C99   C     C_2   0.627791 0.672435 0.986684 1.121510
C100  C     C_2   0.876317 0.175880 0.019491 1.109122
C101  C     C_2   0.127791 0.172435 0.986684 1.121510
C102  C     C_2   0.590458 0.429470 0.300594 0.975557
C103  C     C_2   0.409914 0.431055 0.699742 0.984529
C104  C     C_2   0.090458 0.929470 0.300594 0.975557
H1    H     H_    0.285734 0.413540 0.171298 0.115842
H2    H     H_    0.735559 0.721166 0.924147 0.155720
H3    H     H_    0.767175 0.224535 0.078706 0.156102
H4    H     H_    0.235559 0.221166 0.924147 0.155720
H5    H     H_    0.666847 0.270350 0.943506 0.162394
H6    H     H_    0.335709 0.270389 0.056640 0.162402
H7    H     H_    0.166847 0.770350 0.943506 0.162394
H8    H     H_    0.835709 0.770389 0.056640 0.162402
H9    H     H_    0.715953 0.377258 0.652301 0.158727
H10   H     H_    0.283030 0.377456 0.351289 0.148080
H11   H     H_    0.215953 0.877258 0.652301 0.158727
H12   H     H_    0.713874 0.415780 0.829004 0.119212
H13   H     H_    0.783030 0.877456 0.351289 0.148080
H14   H     H_    0.539870 0.354114 0.800340 0.119978
H15   H     H_    0.461224 0.354890 0.200517 0.119104
H16   H     H_    0.039870 0.854114 0.800340 0.119978
H17   H     H_    0.961224 0.854890 0.200517 0.119104
H18   H     H_    0.474904 0.613742 0.207570 0.174154
H19   H     H_    0.524138 0.616777 0.790662 0.172113
H20   H     H_    0.974904 0.113742 0.207570 0.174154
H21   H     H_    0.024138 0.116778 0.790662 0.172113
H22   H     H_    0.711073 0.620444 0.819788 0.135529
H23   H     H_    0.785734 0.913540 0.171298 0.115842
H24   H     H_    0.289499 0.622167 0.181346 0.135722
H25   H     H_    0.211073 0.120444 0.819788 0.135529
H26   H     H_    0.789499 0.122167 0.181346 0.135722
H27   H     H_    0.409976 0.619805 0.670875 0.132636
H28   H     H_    0.588980 0.622327 0.329293 0.133645
H29   H     H_    0.909976 0.119805 0.670875 0.132636
H30   H     H_    0.088980 0.122327 0.329293 0.133645
H31   H     H_    0.646949 0.725230 0.357203 0.186103
H32   H     H_    0.351242 0.720521 0.645135 0.181906
H33   H     H_    0.146949 0.225230 0.357203 0.186103
H34   H     H_    0.213874 0.915780 0.829004 0.119212
H35   H     H_    0.851242 0.220521 0.645135 0.181906
H36   H     H_    0.160577 0.448535 0.317461 0.355894
H37   H     H_    0.843177 0.443986 0.690838 0.355340
H38   H     H_    0.660577 0.948535 0.317461 0.355894
H39   H     H_    0.343177 0.943986 0.690838 0.355340
H40   H     H_    0.341073 0.291017 0.749418 0.343272
H41   H     H_    0.665420 0.293437 0.262098 0.342766
H42   H     H_    0.841073 0.791017 0.749418 0.343272
H43   H     H_    0.165420 0.793437 0.262098 0.342766
H44   H     H_    0.796471 0.347935 0.792371 0.345702
H45   H     H_    0.760516 0.689341 0.575950 0.228778
H46   H     H_    0.210999 0.345226 0.212248 0.336018
H47   H     H_    0.296471 0.847935 0.792371 0.345702
H48   H     H_    0.710999 0.845226 0.212248 0.336018
H49   H     H_    0.370290 0.696266 0.895181 0.377432
H50   H     H_    0.637667 0.693533 0.115833 0.375486
H51   H     H_    0.870290 0.196266 0.895181 0.377432
H52   H     H_    0.137667 0.193533 0.115833 0.375486
H53   H     H_    0.518364 0.483697 0.170453 0.330338
H54   H     H_    0.482549 0.484450 0.830422 0.330254
H55   H     H_    0.018364 0.983697 0.170453 0.330338
H56   H     H_    0.238989 0.688052 0.424710 0.222984
H57   H     H_    0.982549 0.984450 0.830422 0.330254
H58   H     H_    0.182144 0.662787 0.176987 0.348270
H59   H     H_    0.819469 0.660809 0.823194 0.350638
H60   H     H_    0.682144 0.162787 0.176987 0.348270
H61   H     H_    0.319470 0.160809 0.823194 0.350638
H62   H     H_    0.260516 0.189341 0.575950 0.228778
H63   H     H_    0.738989 0.188052 0.424710 0.222984
H64   H     H_    0.267175 0.724535 0.078706 0.156102
N1    N     N_R   0.389060 0.424180 0.294540 -0.061420
N2    N     N_R   0.374530 0.423490 0.443400 -0.060168
N3    N     N_R   0.125470 0.923490 0.556600 -0.061284
N4    N     N_R   0.874530 0.923490 0.443400 -0.060168
N5    N     N_R   0.555250 0.423100 0.705420 -0.035316
N6    N     N_R   0.444750 0.423100 0.294580 -0.036572
N7    N     N_R   0.055250 0.923100 0.705420 -0.035316
N8    N     N_R   0.944750 0.923100 0.294580 -0.036572
N9    N     N_R   0.375210 0.577180 0.443400 -0.076352
N10   N     N_R   0.624790 0.577180 0.556600 -0.076386
N11   N     N_R   0.875210 0.077180 0.443400 -0.076352
N12   N     N_R   0.610940 0.424180 0.705460 -0.061975
N13   N     N_R   0.124790 0.077180 0.556600 -0.076386
N14   N     N_R   0.445430 0.577570 0.294580 -0.045608
N15   N     N_R   0.554570 0.577570 0.705420 -0.045217
N16   N     N_R   0.945430 0.077570 0.294580 -0.045608
N17   N     N_R   0.054570 0.077570 0.705420 -0.045217
N18   N     N_R   0.611620 0.576500 0.705460 -0.055697
N19   N     N_R   0.388380 0.576500 0.294540 -0.056018
N20   N     N_R   0.111620 0.076500 0.705460 -0.055697
N21   N     N_R   0.888380 0.076500 0.294540 -0.056018
N22   N     N_R   0.421010 0.576890 0.556640 -0.049618
N23   N     N_R   0.889060 0.924180 0.294540 -0.061420
N24   N     N_R   0.578990 0.576890 0.443360 -0.049620
N25   N     N_R   0.921010 0.076890 0.556640 -0.049618
N26   N     N_R   0.078990 0.076890 0.443360 -0.049620
N27   N     N_R   0.110940 0.924180 0.705460 -0.061975
N28   N     N_R   0.579670 0.423790 0.443360 -0.058527
N29   N     N_R   0.420330 0.423790 0.556640 -0.061867
N30   N     N_R   0.079670 0.923790 0.443360 -0.058527
N31   N     N_R   0.920330 0.923790 0.556640 -0.061867
N32   N     N_R   0.625470 0.423490 0.556600 -0.061284
Ni1   Ni    Ni4+2 0.383200 0.500680 0.370150 0.269915
Ni2   Ni    Ni4+2 0.616800 0.500680 0.629850 0.269873
Ni3   Ni    Ni4+2 0.883200 0.000680 0.370150 0.269915
Ni4   Ni    Ni4+2 0.116800 0.000680 0.629850 0.269873
Ni5   Ni    Ni4+2 0.512440 0.500680 0.370150 0.264579
Ni6   Ni    Ni4+2 0.487560 0.500680 0.629850 0.263840
Ni7   Ni    Ni4+2 0.012440 0.000680 0.370150 0.264579
Ni8   Ni    Ni4+2 0.987560 0.000680 0.629850 0.263840
O1    O     O_2   0.147680 0.325953 0.279223 -0.625887
O2    O     O_R   0.348571 0.247944 0.719050 -0.663601
O3    O     O_2   0.619424 0.205091 0.373326 -0.515741
O4    O     O_R   0.654448 0.249397 0.286235 -0.726622
O5    O     O_2   0.885504 0.702009 0.678725 -0.473105
O6    O     O_R   0.848571 0.747944 0.719050 -0.663601
O7    O     O_2   0.119424 0.705091 0.373326 -0.515741
O8    O     O_R   0.154448 0.749397 0.286235 -0.726622
O9    O     O_2   0.851944 0.299425 0.947513 -0.611051
O10   O     O_R   0.761196 0.323218 0.794763 -0.824661
O11   O     O_2   0.153711 0.295715 0.059660 -0.614869
O12   O     O_R   0.195192 0.422047 0.384698 -0.766879
O13   O     O_R   0.246265 0.318479 0.211428 -0.818640
O14   O     O_2   0.351944 0.799425 0.947513 -0.611051
O15   O     O_R   0.261196 0.823218 0.794763 -0.824661
O16   O     O_2   0.653711 0.795715 0.059660 -0.614869
O17   O     O_R   0.746265 0.818479 0.211428 -0.818640
O18   O     O_2   0.437864 0.674060 0.067431 -0.634215
O19   O     O_R   0.338395 0.684460 0.913970 -0.767369
O20   O     O_2   0.566363 0.669944 0.940084 -0.633327
O21   O     O_R   0.666994 0.680665 0.092564 -0.771736
O22   O     O_2   0.937864 0.174060 0.067431 -0.634215
O23   O     O_2   0.852822 0.320939 0.725376 -0.627961
O24   O     O_R   0.838395 0.184460 0.913970 -0.767369
O25   O     O_2   0.066363 0.169944 0.940084 -0.633327
O26   O     O_R   0.166994 0.180665 0.092564 -0.771736
O27   O     O_2   0.621331 0.414261 0.265153 -0.652962
O28   O     O_R   0.534441 0.475211 0.244772 -0.822820
O29   O     O_2   0.378001 0.417399 0.733991 -0.645972
O30   O     O_R   0.466807 0.475544 0.756348 -0.824344
O31   O     O_2   0.121331 0.914261 0.265153 -0.652962
O32   O     O_R   0.034441 0.975211 0.244772 -0.822820
O33   O     O_2   0.878001 0.917400 0.733991 -0.645972
O34   O     O_R   0.808253 0.418605 0.622591 -0.768919
O35   O     O_R   0.966807 0.975544 0.756348 -0.824344
O36   O     O_2   0.237438 0.552443 0.257999 -0.653948
O37   O     O_R   0.223030 0.671482 0.252016 -0.773635
O38   O     O_2   0.761117 0.551915 0.741372 -0.655756
O39   O     O_R   0.778398 0.670277 0.748539 -0.768854
O40   O     O_2   0.737438 0.052443 0.257999 -0.653948
O41   O     O_R   0.723030 0.171482 0.252016 -0.773635
O42   O     O_2   0.261117 0.051915 0.741372 -0.655756
O43   O     O_R   0.278398 0.170277 0.748539 -0.768854
O44   O     O_2   0.647680 0.825953 0.279223 -0.625887
O45   O     O_R   0.695192 0.922047 0.384698 -0.766879
O46   O     O_2   0.352822 0.820939 0.725376 -0.627961
O47   O     O_R   0.308254 0.918605 0.622591 -0.768919
O48   O     O_2   0.385504 0.202009 0.678725 -0.473105

loop_
_geom_bond_atom_site_label_1
_geom_bond_atom_site_label_2
_ccdc_geom_bond_type
C104  O31   D    
C97   O17   S    
C13   C79   A    
C102  O28   S    
C16   C21   D    
N24   Ni5   S    
H51   O24   S    
H59   O39   S    
C16   H33   S    
C25   C87   S    
C5    O38   D    
N28   N32   A    
C59   N6    A    
C34   C66   S    
H40   O2    S    
C55   C68   A    
C71   C94   A    
N21   Ni3   S    
N26   Ni7   S    
C56   C69   A    
N18   Ni2   S    
C95   O13   S    
N16   Ni7   S    
C20   H56   S    
C11   C42   S    
C18   C24   S    
C86   O23   D    
C32   C36   D    
N8    Ni7   S    
C6    O40   D    
C85   O12   S    
C12   C43   S    
N12   Ni2   S    
C51   H2    S    
C17   C64   A    
C90   O3    D    
C43   C52   D    
C14   H31   S    
C35   C65   S    
C60   N7    A    
C54   H9    S    
C3    C48   S    
C58   H14   S    
C54   N32   A    
C37   C95   S    
N4    N31   A    
C93   O9    D    
C3    O33   D    
N7    N27   A    
N3    Ni4   S    
C24   C29   D    
C47   C69   A    
C83   H30   S    
C27   C68   S    
C11   C77   A    
C61   H28   S    
C99   O21   S    
C29   C67   S    
C10   C76   A    
C44   C53   D    
H36   O12   S    
N13   N26   A    
C74   N11   A    
C52   H3    S    
H52   O26   S    
N2    Ni1   S    
C89   O48   D    
C12   C78   A    
C45   C67   A    
N6    Ni5   S    
C95   O11   D    
H55   O32   S    
C47   N30   A    
C92   O8    S    
N5    Ni6   S    
N9    N22   A    
C23   C27   D    
C57   C70   A    
C78   H20   S    
C55   N2    A    
C99   O20   D    
C36   C52   S    
C2    C61   A    
C86   O34   S    
C42   C51   D    
H41   O4    S    
C37   C53   S    
C45   N28   A    
C79   H21   S    
C39   H34   S    
C60   C66   A    
C102  O27   D    
N25   Ni8   S    
H39   O47   S    
C10   C41   S    
C34   H7    S    
N17   Ni8   S    
N29   Ni6   S    
N28   Ni5   S    
N23   Ni3   S    
N7    Ni8   S    
C5    O39   S    
C76   N14   A    
C1    C63   A    
C41   C49   D    
C29   C90   S    
C30   C70   S    
N22   Ni6   S    
C6    C74   S    
C88   O47   S    
H54   O30   S    
C58   C64   A    
C87   O44   D    
C33   C63   S    
C8    C72   A    
C32   H5    S    
C7    O42   D    
C35   C40   D    
C100  O24   S    
C43   C100  S    
C32   C64   S    
C49   H64   S    
H43   O8    S    
C50   H27   S    
N15   N18   A    
C40   C97   S    
C38   C49   S    
C71   N9    A    
C50   C94   A    
N17   N20   A    
C7    C75   S    
N27   Ni4   S    
C48   N31   A    
C12   C84   A    
C2    C19   S    
C39   N27   A    
C13   C82   A    
N20   Ni4   S    
C33   C37   D    
C21   H62   S    
C82   N20   A    
C15   C20   D    
C34   C38   D    
N4    Ni3   S    
H60   O41   S    
C46   C68   A    
C77   H19   S    
C61   N24   A    
N10   N24   A    
C8    C22   S    
C11   C80   A    
C87   O45   S    
N1    N6    A    
C96   O15   S    
C62   N8    A    
C92   O7    D    
C8    C74   A    
C84   N21   A    
C3    O35   S    
C91   O5    D    
C82   H25   S    
C103  O29   D    
H38   O45   S    
C19   H45   S    
H42   O6    S    
C2    C73   A    
C9    C83   A    
C73   N10   A    
C17   N12   A    
C26   C88   S    
C84   H26   S    
H61   O43   S    
N11   Ni3   S    
C16   C23   S    
C96   O14   D    
N10   Ni2   S    
C56   N3    A    
C101  O25   D    
C54   C67   A    
H46   O13   S    
N9    Ni1   S    
C58   N5    A    
C22   H63   S    
C75   N13   A    
C28   N23   A    
C7    O43   S    
C72   N25   A    
C4    O36   D    
C57   H13   S    
C98   O19   S    
N11   N25   A    
C25   C30   D    
C104  O32   S    
C20   C94   S    
C59   H15   S    
C47   C104  S    
C79   N17   A    
C62   C65   A    
C62   H17   S    
N30   Ni7   S    
C18   C22   D    
C26   C31   D    
C14   C19   D    
H49   O19   S    
C48   C70   A    
C30   C91   S    
C46   N29   A    
C6    O41   S    
C88   O46   D    
C44   C101  S    
C28   H23   S    
H53   O28   S    
C89   O2    S    
C15   H32   S    
C55   H10   S    
N3    N30   A    
C40   C51   S    
C46   C103  S    
N19   Ni1   S    
C10   C81   A    
C59   C63   A    
H37   O34   S    
N5    N12   A    
C97   O16   D    
C81   H24   S    
C36   C93   S    
N14   Ni5   S    
C15   C26   S    
C57   N4    A    
H58   O37   S    
C100  O22   D    
C28   C65   A    
C76   H18   S    
H50   O21   S    
C42   C99   S    
C4    C71   S    
C90   O4    S    
C53   H4    S    
C9    C21   S    
C72   H29   S    
C80   H22   S    
C91   O6    S    
C83   N26   A    
C103  O30   S    
C1    N1    A    
N31   Ni8   S    
C39   C66   A    
C56   H11   S    
H47   O15   S    
C27   C89   S    
C78   N16   A    
N14   N19   A    
N2    N29   A    
C14   C25   S    
C5    C73   S    
C18   H35   S    
C50   N22   A    
H44   O10   S    
C4    O37   S    
H57   O35   S    
C45   C102  S    
C60   H16   S    
N1    Ni1   S    
H48   O17   S    
N13   Ni4   S    
C31   C69   S    
C85   O1    D    
N32   Ni2   S    
C31   C92   S    
C23   C85   S    
C38   C96   S    
C101  O26   S    
N15   Ni6   S    
C80   N18   A    
N16   N21   A    
C93   O10   S    
C33   H6    S    
C9    C75   A    
N8    N23   A    
C24   C86   S    
C81   N19   A    
C13   C44   S    
C41   C98   S    
C35   H8    S    
C77   N15   A    
C17   H12   S    
C1    H1    S    
C98   O18   D    
