data_mof_unit_23782.cif
_audit_creation_date              2013-03-05T16:06:22-0500
_audit_creation_method            fapswitch 2.2
_symmetry_space_group_name_H-M    P1
_symmetry_Int_Tables_number       1
_space_group_crystal_system       triclinic
_cell_length_a                    10.907603
_cell_length_b                    9.485416
_cell_length_c                    27.755099
_cell_angle_alpha                 90.012924
_cell_angle_beta                  91.120615
_cell_angle_gamma                 89.534911
_cell_volume                      2870.98620439

loop_
_atom_site_label
_atom_site_type_symbol
_atom_site_description
_atom_site_fract_x
_atom_site_fract_y
_atom_site_fract_z
_atom_type_partial_charge
O1    O     O_R   0.319640 0.618740 0.500000 -0.555468
O2    O     O_R   0.680360 0.381260 0.500000 -0.553243
O3    O     O_R   0.680360 0.618740 0.500000 -0.545735
O4    O     O_R   0.319640 0.381260 0.500000 -0.550178
C1    C     C_R   0.261951 0.500689 0.499390 0.901253
C2    C     C_R   0.737966 0.499246 0.501000 0.900063
O5    O     O_R   0.500020 0.618770 0.430260 -0.606824
O6    O     O_R   0.499980 0.381230 0.569740 -0.550454
O7    O     O_R   0.499980 0.618770 0.569740 -0.596588
O8    O     O_R   0.500020 0.381230 0.430260 -0.535205
C3    C     C_R   0.500409 0.500082 0.407169 0.839726
C4    C     C_R   0.502511 0.500060 0.592661 0.836772
Cu1   Cu    Cu3+1 0.500000 0.640660 0.500000 0.971641
Cu2   Cu    Cu3+1 0.500000 0.359340 0.500000 1.008962
C5    C     C_R   0.406134 0.561248 0.176321 0.630495
C6    C     C_R   0.627673 0.554622 0.822205 0.668017
O9    O     O_2   0.301422 0.571347 0.201102 -0.464508
O10   O     O_2   0.728929 0.575391 0.796194 -0.455011
N1    N     N_R   0.513564 0.534105 0.201061 -0.444139
N2    N     N_R   0.520758 0.520635 0.798484 -0.446825
C7    C     C_R   0.621936 0.517884 0.177841 0.631040
C8    C     C_R   0.415270 0.495641 0.822522 0.578544
C9    C     C_R   0.490713 0.642399 0.280355 -0.185254
C10   C     C_R   0.471458 0.627436 0.720303 -0.180131
C11   C     C_R   0.487624 0.633343 0.330244 -0.296077
C12   C     C_R   0.466145 0.621567 0.670244 -0.282547
C13   C     C_R   0.520948 0.379499 0.325894 0.356486
C14   C     C_R   0.558949 0.387324 0.672421 0.362982
C15   C     C_R   0.531906 0.390847 0.275152 0.418970
C16   C     C_R   0.559434 0.391449 0.723194 0.436166
C17   C     C_R   0.512141 0.522187 0.252679 0.217064
C18   C     C_R   0.518171 0.513336 0.746868 0.196593
C19   C     C_R   0.515864 0.550669 0.101128 -0.113849
C20   C     C_R   0.522537 0.539318 0.898305 -0.109198
C21   C     C_R   0.404836 0.574787 0.125469 -0.156082
C22   C     C_R   0.631367 0.567204 0.873163 -0.176885
C23   C     C_R   0.298626 0.614258 0.098102 0.330539
C24   C     C_R   0.736909 0.611394 0.899835 0.354130
C25   C     C_R   0.624607 0.521857 0.127445 -0.043728
C26   C     C_R   0.414269 0.503013 0.872786 -0.075167
C27   C     C_R   0.502908 0.502930 0.353776 -0.181603
C28   C     C_R   0.508347 0.501615 0.645759 -0.193369
C29   C     C_R   0.409553 0.533160 0.973697 0.007549
C30   C     C_R   0.631312 0.542802 0.026129 0.054255
C31   C     C_R   0.631459 0.567375 0.975512 -0.058937
C32   C     C_R   0.407460 0.564705 0.023621 -0.072648
C33   C     C_R   0.521289 0.546991 0.949147 -0.046142
C34   C     C_R   0.518319 0.553589 0.050339 -0.045444
C35   C     C_R   0.306874 0.478807 0.948069 0.539257
C36   C     C_R   0.737577 0.498298 0.052350 0.509275
C37   C     C_R   0.308352 0.469908 0.897979 -0.176125
C38   C     C_R   0.732818 0.491150 0.103128 -0.249308
O11   O     O_2   0.311655 0.463144 0.797675 -0.527847
O12   O     O_2   0.726973 0.498397 0.203566 -0.542163
C39   C     C_R   0.301020 0.611506 0.047407 0.338823
C40   C     C_R   0.734907 0.615989 0.950562 0.377748
H1    H     H_    0.428251 0.711048 0.650622 0.200000
H2    H     H_    0.472089 0.729391 0.350418 0.188000
H3    H     H_    0.438669 0.720807 0.738636 0.173743
H4    H     H_    0.477070 0.743739 0.263000 0.178657
H5    H     H_    0.226971 0.432408 0.879159 0.223134
H6    H     H_    0.812029 0.456462 0.124042 0.189391
C41   C     C_R   0.063775 0.381943 0.482929 0.345031
C42   C     C_R   0.935934 0.617064 0.518740 0.342196
C43   C     C_R   0.936542 0.376969 0.486826 0.339674
C44   C     C_R   0.063229 0.622191 0.514789 0.342151
C45   C     C_R   0.871813 0.497453 0.502302 -0.376690
C46   C     C_R   0.127977 0.502031 0.498899 -0.370587
C47   C     C_R   0.427830 0.075205 0.468053 0.026290
C48   C     C_R   0.571140 0.924829 0.532332 0.005619
C49   C     C_R   0.571148 0.073839 0.532307 -0.006598
C50   C     C_R   0.428598 0.926168 0.467753 -0.034618
H7    H     H_    0.369375 0.132265 0.442857 0.135258
H8    H     H_    0.627866 0.867971 0.558228 0.138246
H9    H     H_    0.627853 0.129639 0.558160 0.142478
H10   H     H_    0.371813 0.870387 0.441831 0.103542
N3    N     N_R   0.500000 0.852070 0.500000 -0.154972
N4    N     N_R   0.500000 0.147930 0.500000 -0.157914
O13   O     O_3   0.534038 0.249837 0.348312 -0.558948
C51   C     C_3   0.425499 0.172433 0.340634 -0.284780
H11   H     H_    0.410926 0.145117 0.302037 0.202901
H12   H     H_    0.344406 0.230695 0.354219 0.134819
H13   H     H_    0.433722 0.071605 0.360693 0.163487
O14   O     O_3   0.605291 0.269801 0.649349 -0.569879
C52   C     C_3   0.732146 0.288645 0.643192 -0.267967
H14   H     H_    0.781101 0.310030 0.677986 0.205180
H15   H     H_    0.749322 0.374490 0.616947 0.119959
H16   H     H_    0.771366 0.189834 0.628429 0.164784
O15   O     O_3   0.552360 0.273893 0.246289 -0.589013
C53   C     C_3   0.667762 0.212110 0.257539 -0.172822
H17   H     H_    0.657877 0.127531 0.284760 0.190553
H18   H     H_    0.737830 0.289518 0.270140 0.173946
H19   H     H_    0.703265 0.161908 0.224453 0.186728
O16   O     O_3   0.609108 0.281000 0.749784 -0.553881
C54   C     C_3   0.519402 0.175854 0.754179 -0.225619
H20   H     H_    0.493041 0.130596 0.718512 0.182801
H21   H     H_    0.436839 0.216792 0.772683 0.172424
H22   H     H_    0.558370 0.088883 0.776535 0.195945
Cl1   Cl    Cl    0.163468 0.677482 0.125522 -0.495609
Cl2   Cl    Cl    0.872543 0.667691 0.871656 -0.404973
O17   O     O_3   0.207602 0.423788 0.971575 -0.555947
C55   C     C_3   0.236252 0.283751 0.985094 -0.278992
H23   H     H_    0.155104 0.237019 0.002252 0.213299
H24   H     H_    0.258108 0.217577 0.953190 0.181434
H25   H     H_    0.313299 0.279967 0.011958 0.159194
O18   O     O_3   0.834875 0.441491 0.026504 -0.571641
C56   C     C_3   0.948427 0.447361 0.051604 -0.099435
H26   H     H_    0.022103 0.436318 0.025149 0.256593
H27   H     H_    0.962068 0.550400 0.070015 0.224354
H28   H     H_    0.958082 0.357805 0.077212 0.136648
Cl3   Cl    Cl    0.180848 0.696999 0.014486 -0.452609
Cl4   Cl    Cl    0.850163 0.713522 0.981418 -0.441898
O19   O     O_3   0.124997 0.265995 0.464625 -0.559298
C57   C     C_3   0.125598 0.277342 0.413990 -0.274487
H29   H     H_    0.164831 0.178659 0.399168 0.156056
H30   H     H_    0.183920 0.366666 0.402645 0.136724
H31   H     H_    0.031428 0.289098 0.398211 0.194616
O20   O     O_3   0.874700 0.732207 0.537657 -0.561812
C58   C     C_3   0.866811 0.713733 0.587915 -0.249888
H32   H     H_    0.808250 0.622080 0.596618 0.127362
H33   H     H_    0.823416 0.809095 0.603492 0.170061
H34   H     H_    0.959092 0.701544 0.605356 0.189564
O21   O     O_3   0.875335 0.257014 0.471729 -0.534581
C59   C     C_3   0.883071 0.155901 0.509004 -0.192827
H35   H     H_    0.830213 0.061699 0.497711 0.186197
H36   H     H_    0.842731 0.196831 0.542792 0.117109
H37   H     H_    0.979238 0.121287 0.516206 0.175966
O22   O     O_3   0.124553 0.741745 0.530167 -0.540196
C60   C     C_3   0.116477 0.843866 0.493205 -0.193043
H38   H     H_    0.156270 0.803890 0.459143 0.127728
H39   H     H_    0.169657 0.937657 0.504682 0.185120
H40   H     H_    0.020263 0.878870 0.486356 0.176894

loop_
_geom_bond_atom_site_label_1
_geom_bond_atom_site_label_2
_geom_bond_distance
_ccdc_geom_bond_type
C44   C46   1.411108 A    
C41   C43   1.395300 A    
O17   C55   1.411300 S    
C14   O14   1.382544 S    
C54   H20   1.112483 S    
C37   H5    1.083625 S    
C50   H10   1.081176 S    
O3    C2    1.291536 A    
N1    C17   1.437543 S    
O22   C60   1.412103 S    
C15   O15   1.387354 S    
C57   H29   1.108500 S    
C54   H22   1.109262 S    
O21   C59   1.411769 S    
C52   H14   1.113701 S    
C5    N1    1.369178 A    
C19   C25   1.405730 A    
C20   C26   1.410196 A    
C21   C23   1.420525 A    
C10   C12   1.390594 A    
C60   H38   1.113170 S    
C13   O13   1.383543 S    
C43   O21   1.384597 S    
C51   H13   1.108864 S    
C35   O17   1.381103 S    
C7    O12   1.349535 S    
C51   H11   1.110815 S    
C58   H34   1.113531 S    
C13   C15   1.419944 A    
O18   C56   1.410632 S    
C42   O20   1.384296 S    
C55   H25   1.112883 S    
C14   C28   1.414984 A    
O7    Cu1   1.946796 S    
O20   C58   1.410295 S    
C4    C28   1.473960 S    
C31   C40   1.415818 A    
C35   C37   1.393191 A    
C32   C39   1.415042 A    
C48   H8    1.080586 S    
C36   C38   1.412990 A    
C56   H26   1.103455 S    
C47   H7    1.079643 S    
C48   C49   1.413419 A    
C16   C18   1.404904 A    
O3    Cu1   1.976573 S    
C6    N2    1.368704 A    
C60   H40   1.111004 S    
C39   Cl3   1.773964 S    
C58   H33   1.109076 S    
C25   C38   1.399641 A    
Cu1   Cu2   2.668437 S    
C48   N3    1.365621 A    
C56   H27   1.112495 S    
C47   N4    1.364922 A    
O2    C2    1.287937 A    
C1    C46   1.461081 S    
C5    C21   1.417041 A    
C29   C32   1.418086 A    
C8    O11   1.350195 S    
C32   C34   1.409300 A    
C31   C33   1.409339 A    
C9    H4    1.083165 S    
C41   O19   1.383724 S    
Cu1   N3    2.005312 S    
C52   H15   1.112140 S    
C42   C45   1.408798 A    
O14   C52   1.410326 S    
C24   Cl2   1.773093 S    
O8    Cu2   1.946796 S    
C11   C27   1.406182 A    
C29   C35   1.415685 A    
C43   C45   1.409834 A    
C9    C17   1.395416 A    
C12   H1    1.083318 S    
C47   C50   1.413658 A    
O5    C3    1.295337 A    
C10   C18   1.396892 A    
C50   N3    1.365923 A    
C13   C27   1.417789 A    
C53   H18   1.115387 S    
C7    C25   1.400122 A    
O6    C4    1.294383 A    
C8    C26   1.397059 A    
O16   C54   1.409806 S    
C6    O10   1.347085 S    
C55   H24   1.113777 S    
C59   H37   1.110979 S    
C51   H12   1.111300 S    
C2    C45   1.459653 S    
N2    C8    1.363743 A    
C56   H28   1.110745 S    
O1    C1    1.288844 A    
O1    Cu1   1.979930 S    
C11   H2    1.083164 S    
C23   Cl1   1.772447 S    
C30   C31   1.424156 A    
C12   C28   1.404167 A    
C53   H19   1.109387 S    
C59   H36   1.112187 S    
O19   C57   1.409691 S    
N2    C18   1.434001 S    
C52   H16   1.108849 S    
C30   C36   1.417935 A    
C5    O9    1.347480 S    
C41   C46   1.408893 A    
O6    Cu2   1.946703 S    
N1    C7    1.364972 A    
O4    C1    1.291350 A    
C57   H30   1.112834 S    
C58   H32   1.112338 S    
C54   H21   1.112611 S    
C26   C37   1.399946 A    
C22   C24   1.422452 A    
C15   C17   1.406515 A    
C38   H6    1.080542 S    
C6    C22   1.419150 A    
C49   H9    1.079534 S    
C53   H17   1.109474 S    
C10   H3    1.083037 S    
C14   C16   1.409668 A    
C19   C21   1.415218 A    
C44   O22   1.384391 S    
C3    C27   1.482971 S    
C20   C22   1.415503 A    
Cu2   N4    2.005313 S    
O4    Cu2   1.976573 S    
C55   H23   1.108907 S    
O2    Cu2   1.979930 S    
O7    C4    1.293257 A    
C57   H31   1.113496 S    
O8    C3    1.297000 A    
O13   C51   1.410771 S    
C23   C39   1.408030 A    
O5    Cu1   1.946703 S    
C9    C11   1.388439 A    
C24   C40   1.409207 A    
C16   O16   1.382495 S    
C36   O18   1.396998 S    
C19   C34   1.410697 A    
C20   C33   1.413321 A    
O15   C53   1.413566 S    
C29   C33   1.414928 A    
C40   Cl4   1.773744 S    
C49   N4    1.365432 A    
C30   C34   1.418217 A    
C42   C44   1.396192 A    
C59   H35   1.109166 S    
C60   H39   1.109252 S    
