data_mof_unit_30159.cif
_audit_creation_date              2012-12-11T15:17:49-0500
_audit_creation_method            fapswitch 2.2
_symmetry_space_group_name_H-M    P1
_symmetry_Int_Tables_number       1
_space_group_crystal_system       triclinic
_cell_length_a                    15.76579
_cell_length_b                    15.765794
_cell_length_c                    34.542763
_cell_angle_alpha                 89.99994
_cell_angle_beta                  90.000052
_cell_angle_gamma                 120.000222
_cell_volume                      7435.63936899

loop_
_atom_site_label
_atom_site_type_symbol
_atom_type_description
_atom_site_fract_x
_atom_site_fract_y
_atom_site_fract_z
_atom_type_partial_charge
C1    C     C_R   0.578601 0.441330 0.554984 0.553668
C2    C     C_R   0.558670 0.137271 0.554984 0.553667
C3    C     C_R   0.862728 0.421399 0.554984 0.553666
C4    C     C_R   0.441330 0.578601 0.054984 0.553667
C5    C     C_R   0.137272 0.558670 0.054984 0.553667
C6    C     C_R   0.421399 0.862728 0.054984 0.553667
C7    C     C_R   0.988572 0.500803 0.711678 0.348433
C8    C     C_R   0.499192 0.487774 0.711677 0.348433
C9    C     C_R   0.512226 0.011419 0.711677 0.348434
C10   C     C_R   0.500809 0.988583 0.211676 0.348433
C11   C     C_R   0.487773 0.499194 0.211677 0.348432
C12   C     C_R   0.011422 0.512227 0.211677 0.348432
C13   C     C_R   0.001190 0.435120 0.853529 -0.110665
C14   C     C_R   0.564879 0.566078 0.853528 -0.110665
C15   C     C_R   0.433923 0.998802 0.853528 -0.110665
C16   C     C_R   0.435121 0.001201 0.353527 -0.110665
C17   C     C_R   0.566075 0.564879 0.353528 -0.110665
C18   C     C_R   0.998805 0.433926 0.353528 -0.110665
C19   C     C_R   0.032336 0.445039 0.892025 0.089435
C20   C     C_R   0.554960 0.587302 0.892024 0.089437
C21   C     C_R   0.412699 0.967659 0.892024 0.089436
C22   C     C_R   0.445039 0.032343 0.392024 0.089437
C23   C     C_R   0.587300 0.554960 0.392024 0.089436
C24   C     C_R   0.967661 0.412701 0.392024 0.089436
C25   C     C_R   0.083562 0.618168 0.889257 -0.162597
C26   C     C_R   0.381833 0.465393 0.889257 -0.162597
C27   C     C_R   0.534607 0.916440 0.889257 -0.162597
C28   C     C_R   0.618166 0.083558 0.389257 -0.162597
C29   C     C_R   0.465393 0.381832 0.389257 -0.162597
C30   C     C_R   0.916439 0.534607 0.389257 -0.162597
C31   C     C_R   0.052266 0.607564 0.850976 -0.130664
C32   C     C_R   0.392436 0.444703 0.850976 -0.130663
C33   C     C_R   0.555297 0.947734 0.850976 -0.130663
C34   C     C_R   0.607563 0.052266 0.350976 -0.130663
C35   C     C_R   0.444703 0.392436 0.350976 -0.130663
C36   C     C_R   0.947732 0.555297 0.350976 -0.130664
C37   C     C_R   0.015467 0.517050 0.832236 0.015058
C38   C     C_R   0.482949 0.498422 0.832235 0.015058
C39   C     C_R   0.501579 0.984527 0.832235 0.015059
C40   C     C_R   0.517051 0.015474 0.332235 0.015059
C41   C     C_R   0.498421 0.482949 0.332235 0.015058
C42   C     C_R   0.984529 0.501580 0.332235 0.015058
C43   C     C_R   0.078881 0.538543 0.909483 0.060921
C44   C     C_R   0.461458 0.540340 0.909483 0.060919
C45   C     C_R   0.459661 0.921118 0.909483 0.060920
C46   C     C_R   0.538542 0.078882 0.409483 0.060919
C47   C     C_R   0.540339 0.461457 0.409483 0.060920
C48   C     C_R   0.921118 0.459661 0.409483 0.060920
C49   C     C_R   0.577828 0.442317 0.445598 0.574439
C50   C     C_R   0.557682 0.135510 0.445598 0.574438
C51   C     C_R   0.864490 0.422172 0.445598 0.574439
C52   C     C_R   0.442317 0.577828 0.945598 0.574439
C53   C     C_R   0.135510 0.557683 0.945598 0.574440
C54   C     C_R   0.422172 0.864490 0.945598 0.574438
C55   C     C_R   0.916783 0.455054 0.591657 0.023577
C56   C     C_R   0.544945 0.461729 0.591657 0.023577
C57   C     C_R   0.538270 0.083216 0.591657 0.023577
C58   C     C_R   0.455056 0.916785 0.091657 0.023577
C59   C     C_R   0.461729 0.544945 0.091657 0.023577
C60   C     C_R   0.083216 0.538270 0.091657 0.023577
C61   C     C_R   0.945950 0.395730 0.611131 -0.127389
C62   C     C_R   0.604266 0.550222 0.611130 -0.127390
C63   C     C_R   0.449778 0.054044 0.611130 -0.127390
C64   C     C_R   0.395736 0.945958 0.111130 -0.127390
C65   C     C_R   0.550221 0.604267 0.111130 -0.127390
C66   C     C_R   0.054047 0.449779 0.111131 -0.127389
C67   C     C_R   0.974962 0.414171 0.649704 -0.116663
C68   C     C_R   0.585823 0.560794 0.649702 -0.116663
C69   C     C_R   0.439206 0.025029 0.649702 -0.116663
C70   C     C_R   0.414179 0.974974 0.149702 -0.116663
C71   C     C_R   0.560793 0.585825 0.149703 -0.116663
C72   C     C_R   0.025033 0.439207 0.149703 -0.116663
C73   C     C_R   0.975679 0.492467 0.669388 0.035158
C74   C     C_R   0.507529 0.483214 0.669388 0.035157
C75   C     C_R   0.516786 0.024315 0.669388 0.035157
C76   C     C_R   0.492472 0.975686 0.169387 0.035157
C77   C     C_R   0.483214 0.507530 0.169388 0.035158
C78   C     C_R   0.024317 0.516786 0.169388 0.035158
C79   C     C_R   0.955380 0.557149 0.648864 -0.116720
C80   C     C_R   0.442850 0.398230 0.648864 -0.116721
C81   C     C_R   0.601769 0.044619 0.648863 -0.116720
C82   C     C_R   0.557151 0.955381 0.148864 -0.116721
C83   C     C_R   0.398231 0.442849 0.148863 -0.116720
C84   C     C_R   0.044618 0.601768 0.148863 -0.116720
C85   C     C_R   0.926002 0.538493 0.610255 -0.129727
C86   C     C_R   0.461507 0.387507 0.610255 -0.129727
C87   C     C_R   0.612492 0.073999 0.610255 -0.129727
C88   C     C_R   0.538493 0.926000 0.110255 -0.129727
C89   C     C_R   0.387508 0.461507 0.110255 -0.129727
C90   C     C_R   0.073998 0.612491 0.110255 -0.129727
C91   C     C_R   0.000937 0.509766 0.790013 0.349557
C92   C     C_R   0.490232 0.491177 0.790013 0.349555
C93   C     C_R   0.508824 0.999055 0.790013 0.349557
C94   C     C_R   0.509768 0.000947 0.290012 0.349556
C95   C     C_R   0.491175 0.490232 0.290013 0.349555
C96   C     C_R   0.999058 0.508826 0.290013 0.349555
Cr1   Cr    Cr6+3 0.522350 0.263930 0.500020 1.030604
Cr2   Cr    Cr6+3 0.736070 0.258420 0.500020 1.030604
Cr3   Cr    Cr6+3 0.741580 0.477650 0.500020 1.030604
Cr4   Cr    Cr6+3 0.263930 0.522350 0.000020 1.030604
Cr5   Cr    Cr6+3 0.258420 0.736070 0.000020 1.030604
Cr6   Cr    Cr6+3 0.477650 0.741580 0.000020 1.030604
H1    H     H_    0.940504 0.331454 0.597370 0.133282
H2    H     H_    0.668541 0.609054 0.597368 0.133281
H3    H     H_    0.390946 0.059488 0.597368 0.133281
H4    H     H_    0.331461 0.940516 0.097368 0.133281
H5    H     H_    0.609054 0.668543 0.097369 0.133281
H6    H     H_    0.059492 0.390947 0.097369 0.133282
H7    H     H_    0.904561 0.585851 0.595806 0.129291
H8    H     H_    0.414151 0.318706 0.595806 0.129291
H9    H     H_    0.681292 0.095443 0.595806 0.129291
H10   H     H_    0.585848 0.904554 0.095807 0.129292
H11   H     H_    0.318708 0.414150 0.095806 0.129291
H12   H     H_    0.095440 0.681291 0.095806 0.129291
H13   H     H_    0.992183 0.364184 0.664577 0.139728
H14   H     H_    0.635809 0.628005 0.664575 0.139730
H15   H     H_    0.371995 0.007804 0.664575 0.139730
H16   H     H_    0.364194 0.992200 0.164575 0.139730
H17   H     H_    0.628004 0.635811 0.164576 0.139729
H18   H     H_    0.007810 0.371997 0.164576 0.139729
H19   H     H_    0.956419 0.618769 0.663176 0.139340
H20   H     H_    0.381232 0.337648 0.663176 0.139341
H21   H     H_    0.662350 0.043582 0.663176 0.139341
H22   H     H_    0.618768 0.956416 0.163176 0.139341
H23   H     H_    0.337649 0.381231 0.163176 0.139340
H24   H     H_    0.043580 0.662349 0.163176 0.139340
H25   H     H_    0.969753 0.363806 0.839908 0.136135
H26   H     H_    0.636192 0.605958 0.839906 0.136133
H27   H     H_    0.394043 0.030235 0.839906 0.136133
H28   H     H_    0.363808 0.969769 0.339905 0.136133
H29   H     H_    0.605955 0.636193 0.339906 0.136134
H30   H     H_    0.030240 0.394047 0.339907 0.136134
H31   H     H_    0.117863 0.690580 0.902047 0.138386
H32   H     H_    0.309421 0.427278 0.902048 0.138385
H33   H     H_    0.572721 0.882143 0.902048 0.138384
H34   H     H_    0.690577 0.117854 0.402048 0.138384
H35   H     H_    0.427279 0.309420 0.402047 0.138384
H36   H     H_    0.882140 0.572719 0.402047 0.138385
H37   H     H_    0.062711 0.671747 0.835434 0.146019
H38   H     H_    0.328253 0.390963 0.835434 0.146018
H39   H     H_    0.609037 0.937290 0.835434 0.146018
H40   H     H_    0.671745 0.062708 0.335434 0.146018
H41   H     H_    0.390963 0.328253 0.335434 0.146019
H42   H     H_    0.937288 0.609035 0.335434 0.146019
N1    N     N_R   0.990026 0.429925 0.770771 -0.225411
N2    N     N_R   0.570064 0.560119 0.770769 -0.225410
N3    N     N_R   0.439883 0.009947 0.770769 -0.225409
N4    N     N_R   0.429939 0.990061 0.270769 -0.225409
N5    N     N_R   0.560113 0.570068 0.270770 -0.225410
N6    N     N_R   0.009959 0.439890 0.270770 -0.225410
N7    N     N_R   0.983657 0.425405 0.732406 -0.224125
N8    N     N_R   0.574582 0.558268 0.732403 -0.224127
N9    N     N_R   0.441734 0.016317 0.732404 -0.224126
N10   N     N_R   0.425420 0.983692 0.232403 -0.224127
N11   N     N_R   0.558263 0.574587 0.232404 -0.224125
N12   N     N_R   0.016329 0.441740 0.232405 -0.224125
N13   N     N_R   0.999112 0.580646 0.730885 -0.224531
N14   N     N_R   0.419358 0.418459 0.730885 -0.224532
N15   N     N_R   0.581539 0.000897 0.730885 -0.224531
N16   N     N_R   0.580641 0.999099 0.230885 -0.224532
N17   N     N_R   0.418462 0.419355 0.230885 -0.224531
N18   N     N_R   0.000891 0.581536 0.230885 -0.224532
N19   N     N_R   0.005882 0.585336 0.769317 -0.222985
N20   N     N_R   0.414669 0.420540 0.769317 -0.222984
N21   N     N_R   0.579458 0.994127 0.769317 -0.222983
N22   N     N_R   0.585329 0.005869 0.269317 -0.222983
N23   N     N_R   0.420543 0.414666 0.269317 -0.222983
N24   N     N_R   0.994120 0.579455 0.269316 -0.222984
O1    O     O_R   0.498680 0.159540 0.541860 -0.518697
O2    O     O_R   0.840460 0.339140 0.541860 -0.518697
O3    O     O_R   0.660860 0.501320 0.541860 -0.518697
O4    O     O_R   0.159540 0.498680 0.041860 -0.518697
O5    O     O_R   0.339140 0.840460 0.041860 -0.518696
O6    O     O_R   0.501320 0.660860 0.041860 -0.518697
O7    O     O_R   0.532760 0.358060 0.540030 -0.507063
O8    O     O_R   0.641940 0.174700 0.540030 -0.507063
O9    O     O_R   0.825300 0.467240 0.540030 -0.507063
O10   O     O_R   0.358060 0.532760 0.040030 -0.507063
O11   O     O_R   0.174700 0.641940 0.040030 -0.507062
O12   O     O_R   0.467240 0.825300 0.040030 -0.507064
O13   O     O_R   0.498590 0.161190 0.456930 -0.477369
O14   O     O_R   0.838810 0.337400 0.456930 -0.477369
O15   O     O_R   0.662600 0.501410 0.456930 -0.477370
O16   O     O_R   0.161190 0.498590 0.956930 -0.477370
O17   O     O_R   0.337400 0.838810 0.956930 -0.477369
O18   O     O_R   0.501410 0.662600 0.956930 -0.477370
O19   O     O_R   0.532680 0.359580 0.461300 -0.518957
O20   O     O_R   0.640420 0.173100 0.461300 -0.518956
O21   O     O_R   0.826900 0.467320 0.461300 -0.518957
O22   O     O_R   0.359580 0.532680 0.961300 -0.518957
O23   O     O_R   0.173100 0.640420 0.961300 -0.518957
O24   O     O_R   0.467320 0.826900 0.961300 -0.518957
O25   O     O_3   0.666667 0.333333 0.499990 -0.253519
O26   O     O_3   0.333333 0.666667 0.999990 -0.253519
N25   N     N_3   0.019775 0.360705 0.912685 -0.602709
H43   H     H_    0.055955 0.330909 0.897376 0.229936
H44   H     H_    0.945076 0.308766 0.912973 0.227815
N26   N     N_3   0.639294 0.659078 0.912683 -0.602707
H45   H     H_    0.669086 0.725054 0.897375 0.229935
H46   H     H_    0.691237 0.636322 0.912970 0.227814
N27   N     N_3   0.340923 0.980217 0.912683 -0.602706
H47   H     H_    0.363680 0.054916 0.912970 0.227814
H48   H     H_    0.274947 0.944032 0.897375 0.229935
N28   N     N_3   0.360706 0.019786 0.412683 -0.602706
H49   H     H_    0.330916 0.055973 0.397374 0.229935
H50   H     H_    0.308761 0.945088 0.412969 0.227814
N29   N     N_3   0.659075 0.639294 0.412684 -0.602706
H51   H     H_    0.725052 0.669087 0.397375 0.229935
H52   H     H_    0.636318 0.691237 0.412971 0.227814
N30   N     N_3   0.980221 0.340927 0.412684 -0.602706
H53   H     H_    0.054920 0.363685 0.412971 0.227814
H54   H     H_    0.944038 0.274950 0.397376 0.229935

loop_
_geom_bond_atom_site_label_1
_geom_bond_atom_site_label_2
_ccdc_geom_bond_type
C25   C31   A    
C91   N19   A    
C26   C32   A    
C30   H36   S    
C17   H29   S    
Cr6   O12   S    
N27   H47   S    
C6    C58   S    
C18   H30   S    
Cr3   O9    S    
C91   N1    A    
C51   O14   A    
C8    N14   A    
C25   C43   A    
C2    C57   S    
C14   H26   S    
C7    C73   S    
C80   H20   S    
C27   C33   A    
C19   N25   S    
C79   H19   S    
C28   C46   A    
C17   C23   A    
N4    N10   A    
C29   C47   A    
C18   C24   A    
C30   C48   A    
C61   H1    S    
C1    C56   S    
C83   H23   S    
C32   H38   S    
C85   H7    S    
C18   C42   A    
C55   C85   A    
Cr3   O3    S    
C27   C45   A    
C9    N15   A    
C68   C74   A    
C38   C92   S    
C11   N17   A    
Cr1   O1    S    
N17   N23   A    
C59   C89   A    
Cr1   O25   S    
C67   H13   S    
C5    O11   A    
C1    O7    A    
C80   C86   A    
C11   C77   S    
C2    O8    A    
C49   O15   A    
Cr5   O5    S    
C43   C53   S    
C48   C51   S    
C66   C72   A    
C63   C69   A    
C39   C93   S    
C54   O17   A    
C12   C78   S    
Cr4   O16   S    
Cr6   O24   S    
C96   N24   A    
C57   C87   A    
C93   N3    A    
N26   H45   S    
C95   N5    A    
C64   C70   A    
C63   H3    S    
C25   H31   S    
C20   N26   S    
N13   N19   A    
C13   C37   A    
C51   O21   A    
C11   N11   A    
C6    O12   A    
C44   C52   S    
C12   N18   A    
C93   N21   A    
C74   C80   A    
Cr4   O4    S    
C84   H24   S    
N27   H48   S    
C94   N22   A    
C84   C90   A    
C12   N12   A    
Cr5   O17   S    
Cr6   O26   S    
C82   H22   S    
C20   C44   A    
C19   C43   A    
C46   C50   S    
C57   C63   A    
C21   C45   A    
C36   C42   A    
C68   H14   S    
C58   C64   A    
C83   C89   A    
C89   H11   S    
C23   C47   A    
C37   C91   S    
C26   C44   A    
N29   H51   S    
C24   C48   A    
C14   C20   A    
C60   C90   A    
C47   C49   S    
C53   O16   A    
C76   C82   A    
Cr1   O7    S    
Cr3   O21   S    
C24   N30   S    
C75   C81   A    
C13   C19   A    
C52   O22   A    
C86   H8    S    
C94   N4    A    
C33   H39   S    
C65   C71   A    
C92   N2    A    
C1    O3    A    
C62   H2    S    
N15   N21   A    
Cr2   O25   S    
C58   C88   A    
C88   H10   S    
Cr2   O14   S    
Cr6   O18   S    
C26   H32   S    
C13   H25   S    
C21   N27   S    
Cr5   O11   S    
C14   C38   A    
Cr2   O8    S    
C61   C67   A    
C56   C86   A    
N16   N22   A    
C15   H27   S    
C15   C21   A    
C66   H6    S    
C96   N6    A    
C72   H18   S    
C8    C74   S    
C73   C79   A    
C49   O19   A    
C33   C39   A    
C64   H4    S    
C53   O23   A    
C15   C39   A    
N1    N7    A    
C35   C41   A    
C54   O24   A    
C16   C40   A    
C60   C66   A    
C7    N7    A    
C67   C73   A    
N30   H54   S    
C22   C46   A    
N28   H50   S    
C45   C54   S    
C32   C38   A    
C71   H17   S    
C70   C76   A    
C9    N9    A    
N18   N24   A    
Cr4   O26   S    
C50   O13   A    
C31   H37   S    
C22   N28   S    
C52   O18   A    
C10   N16   A    
C40   C94   S    
C71   C77   A    
C16   H28   S    
Cr5   O26   S    
Cr1   O19   S    
C29   C35   A    
N5    N11   A    
C34   H40   S    
C16   C22   A    
C5    C60   S    
C23   N29   S    
C28   H34   S    
C10   C76   S    
Cr4   O10   S    
Cr4   O22   S    
C77   C83   A    
C4    O10   A    
Cr5   O23   S    
C95   N23   A    
C50   O20   A    
N26   H46   S    
C3    O2    A    
Cr1   O13   S    
C7    N13   A    
C6    O5    A    
N14   N20   A    
Cr6   O6    S    
C29   H35   S    
Cr3   O25   S    
C3    C55   S    
C30   C36   A    
C42   C96   S    
C27   H33   S    
C3    O9    A    
C59   C65   A    
C10   N10   A    
C81   C87   A    
C92   N20   A    
C41   C95   S    
C8    N8    A    
N2    N8    A    
C82   C88   A    
C55   C61   A    
C4    C59   S    
C69   H15   S    
C4    O6    A    
C79   C85   A    
C69   C75   A    
C56   C62   A    
C62   C68   A    
C90   H12   S    
C36   H42   S    
N3    N9    A    
C17   C41   A    
C78   C84   A    
C81   H21   S    
C2    O1    A    
C28   C34   A    
N25   H43   S    
Cr2   O2    S    
C31   C37   A    
C70   H16   S    
C87   H9    S    
N28   H49   S    
N30   H53   S    
C72   C78   A    
N29   H52   S    
C5    O4    A    
C34   C40   A    
N6    N12   A    
Cr3   O15   S    
C9    C75   S    
Cr2   O20   S    
C65   H5    S    
C35   H41   S    
N25   H44   S    
