data_mof_unit_13811.cif
_audit_creation_date              2012-12-10T20:34:51-0500
_audit_creation_method            fapswitch 2.2
_symmetry_space_group_name_H-M    P1
_symmetry_Int_Tables_number       1
_space_group_crystal_system       triclinic
_cell_length_a                    10.642632
_cell_length_b                    10.672786
_cell_length_c                    9.858742
_cell_angle_alpha                 90.005225
_cell_angle_beta                  89.879806
_cell_angle_gamma                 89.924407
_cell_volume                      1119.81688798

loop_
_atom_site_label
_atom_site_type_symbol
_atom_type_description
_atom_site_fract_x
_atom_site_fract_y
_atom_site_fract_z
_atom_type_partial_charge
C1    C     C_R   0.503266 0.259934 0.500026 0.958006
C2    C     C_3   0.878651 0.494980 0.500748 0.054286
C3    C     C_3   0.928042 0.615317 0.430843 -0.472927
C4    C     C_3   0.927174 0.377400 0.422409 0.099768
C5    C     C_R   0.520586 0.063847 0.623169 0.167101
C6    C     C_R   0.522167 0.128454 0.500582 -0.067540
C7    C     C_R   0.548118 0.064676 0.379298 -0.156124
C8    C     C_R   0.548941 0.935160 0.379380 -0.208885
C9    C     C_R   0.523468 0.871358 0.500683 -0.105910
C10   C     C_R   0.521181 0.936096 0.623221 0.132048
C11   C     C_3   0.430011 0.928694 0.738552 -0.471746
C12   C     C_R   0.257717 0.498965 0.500298 0.907215
C13   C     C_3   0.429360 0.070731 0.738483 -0.483385
C14   C     C_R   0.438878 0.407926 0.071495 0.220772
C15   C     C_R   0.569715 0.583950 0.071845 -0.132690
C16   C     C_R   0.569719 0.583966 0.927797 -0.136311
C17   C     C_R   0.438663 0.408078 0.928852 0.219528
C18   C     C_3   0.301363 0.381050 0.924261 -0.519812
C19   C     C_3   0.301920 0.380025 0.078107 -0.498904
C20   C     C_R   0.503862 0.740017 0.499999 0.874777
C21   C     C_R   0.742286 0.498848 0.500138 0.893428
C22   C     C_3   0.070910 0.488191 0.648646 -0.386879
C23   C     C_3   0.928418 0.491889 0.648888 -0.359765
C24   C     C_3   0.071929 0.616722 0.433796 -0.466933
C25   C     C_3   0.073367 0.379340 0.419239 0.098023
C26   C     C_3   0.121351 0.494964 0.500814 0.056755
H1    H     H_    0.106444 0.568704 0.709357 0.173785
H2    H     H_    0.893740 0.383108 0.315617 0.115407
H3    H     H_    0.108320 0.625671 0.328254 0.185616
H4    H     H_    0.895512 0.619533 0.323653 0.185335
H5    H     H_    0.559520 0.113734 0.283870 0.169788
H6    H     H_    0.560725 0.886089 0.283982 0.164579
H7    H     H_    0.338396 0.887028 0.708663 0.213433
H8    H     H_    0.473220 0.887796 0.831119 0.203691
H9    H     H_    0.337382 0.111670 0.708559 0.234887
H10   H     H_    0.472125 0.112016 0.831036 0.204293
H11   H     H_    0.624028 0.653267 0.126136 0.142237
H12   H     H_    0.103139 0.400429 0.698625 0.217727
H13   H     H_    0.624022 0.653296 0.873277 0.145383
H14   H     H_    0.246432 0.460280 0.881689 0.213196
H15   H     H_    0.280871 0.287950 0.879088 0.211120
H16   H     H_    0.246502 0.458012 0.123196 0.212125
H17   H     H_    0.282963 0.286031 0.122135 0.222007
H18   H     H_    0.891832 0.408802 0.704516 0.221301
H19   H     H_    0.896380 0.576808 0.705003 0.175141
H20   H     H_    0.104938 0.700076 0.491550 0.198112
H21   H     H_    0.891109 0.700112 0.483455 0.197420
H22   H     H_    0.102506 0.390925 0.311507 0.106773
N1    N     N_R   0.499150 0.499140 0.142800 -0.107950
N2    N     N_R   0.499150 0.499180 0.857150 -0.107020
O1    O     O_R   0.500020 0.316790 0.614690 -0.610062
O2    O     O_R   0.500000 0.316760 0.385350 -0.613992
O3    O     O_R   0.314800 0.500000 0.614670 -0.624393
O4    O     O_R   0.314790 0.499960 0.385330 -0.626211
O5    O     O_R   0.500000 0.683240 0.614650 -0.624474
O6    O     O_R   0.499980 0.683210 0.385310 -0.627235
O7    O     O_R   0.685210 0.500040 0.614670 -0.622864
O8    O     O_R   0.685200 0.500000 0.385330 -0.630734
Zn1   Zn    Zn3+2 0.500010 0.500020 0.653130 0.953403
Zn2   Zn    Zn3+2 0.499990 0.499980 0.346870 0.954058
Br1   Br    Br    0.155580 0.222880 0.476226 -0.532781
Br2   Br    Br    0.852496 0.222117 0.493000 -0.506994

loop_
_geom_bond_atom_site_label_1
_geom_bond_atom_site_label_2
_ccdc_geom_bond_type
C17   N2    A    
C3    H4    S    
C2    C4    S    
C21   O7    A    
C6    C7    A    
C23   H19   S    
O5    Zn1   S    
C11   C13   S    
C9    C10   A    
C9    C20   S    
C5    C13   S    
C12   O3    A    
C14   C17   A    
C19   H16   S    
C20   O6    A    
C24   H20   S    
C2    C21   S    
C17   C18   S    
O3    Zn1   S    
C21   O8    A    
C25   Br1   S    
C4    C25   S    
O6    Zn2   S    
C1    O1    A    
C25   H22   S    
C3    C24   S    
N1    Zn2   S    
C20   O5    A    
N2    Zn1   S    
C3    H21   S    
C4    H2    S    
C19   H17   S    
C13   H9    S    
C2    C3    S    
C22   H1    S    
C15   N1    A    
C5    C6    A    
C16   N2    A    
C1    O2    A    
O7    Zn1   S    
C14   N1    A    
O1    Zn1   S    
C10   C11   S    
C16   H13   S    
O8    Zn2   S    
C1    C6    S    
C22   H12   S    
C4    Br2   S    
C11   H7    S    
C7    H5    S    
C13   H10   S    
C18   C19   S    
C22   C26   S    
C18   H15   S    
C12   C26   S    
C2    C23   S    
C7    C8    A    
C18   H14   S    
C22   C23   S    
C15   H11   S    
O4    Zn2   S    
O2    Zn2   S    
C5    C10   A    
C25   C26   S    
C24   H3    S    
C14   C19   S    
C11   H8    S    
C12   O4    A    
C23   H18   S    
C15   C16   A    
C24   C26   S    
C8    C9    A    
C8    H6    S    
