data_mof_unit_32250.cif
_audit_creation_date              2012-12-11T14:01:28-0500
_audit_creation_method            fapswitch 2.2
_symmetry_space_group_name_H-M    P1
_symmetry_Int_Tables_number       1
_space_group_crystal_system       triclinic
_cell_length_a                    19.221948
_cell_length_b                    10.979093
_cell_length_c                    18.961758
_cell_angle_alpha                 90.006317
_cell_angle_beta                  90.310517
_cell_angle_gamma                 89.975146
_cell_volume                      4001.62179804

loop_
_atom_site_label
_atom_site_type_symbol
_atom_type_description
_atom_site_fract_x
_atom_site_fract_y
_atom_site_fract_z
_atom_type_partial_charge
C1    C     C_R   0.272655 0.042937 0.852919 0.548255
C2    C     C_R   0.004143 0.666335 0.947121 0.177639
C3    C     C_3   0.326805 0.923263 0.069230 -0.131967
C4    C     C_R   0.498429 0.175451 0.020855 0.225918
C5    C     C_R   0.504014 0.166307 0.947150 0.177579
C6    C     C_2   0.248210 0.559463 0.910181 0.300739
C7    C     C_2   0.749971 0.577080 0.081292 0.286227
C8    C     C_2   0.748207 0.059448 0.910170 0.300729
C9    C     C_2   0.249991 0.077049 0.081320 0.288108
C10   C     C_2   0.250046 0.601322 0.083790 0.238759
C11   C     C_2   0.746753 0.595539 0.919089 0.275567
C12   C     C_2   0.750047 0.101337 0.083795 0.238818
C13   C     C_R   0.727195 0.044267 0.148359 0.567532
C14   C     C_2   0.246776 0.095530 0.919095 0.274806
C15   C     C_2   0.278574 0.532713 0.033648 0.311678
C16   C     C_2   0.708960 0.525352 0.962845 0.294630
C17   C     C_2   0.778562 0.032728 0.033645 0.311886
C18   C     C_2   0.209034 0.025314 0.962872 0.293999
C19   C     C_2   0.288845 0.587883 0.965021 -0.022184
C20   C     C_2   0.696895 0.569122 0.035040 -0.032556
C21   C     C_2   0.788820 0.087907 0.965017 -0.022331
C22   C     C_2   0.196938 0.069119 0.035047 -0.031437
C23   C     C_2   0.493318 0.827779 0.576266 0.273369
C24   C     C_R   0.772650 0.542938 0.852919 0.545967
C25   C     C_2   0.485871 0.839577 0.412659 0.242506
C26   C     C_2   0.992962 0.328687 0.576189 0.274672
C27   C     C_2   0.983758 0.339065 0.411807 0.248976
C28   C     C_2   0.475531 0.744292 0.456545 0.188278
C29   C     C_2   0.452884 0.765997 0.528975 0.172023
C30   C     C_2   0.975821 0.244576 0.456806 0.194828
C31   C     C_2   0.952619 0.266926 0.528877 0.189728
C32   C     C_2   0.243306 0.555703 0.588749 0.261423
C33   C     C_2   0.739935 0.635561 0.433142 0.287975
C34   C     C_2   0.742718 0.062793 0.587611 0.263682
C35   C     C_R   0.227193 0.544259 0.148355 0.568085
C36   C     C_2   0.254773 0.065013 0.417142 0.299442
C37   C     C_2   0.246166 0.596914 0.416391 0.239441
C38   C     C_2   0.744485 0.616334 0.589939 0.281691
C39   C     C_2   0.749062 0.103907 0.412612 0.249290
C40   C     C_2   0.258035 0.080880 0.576899 0.284877
C41   C     C_R   0.472381 0.821959 0.852595 0.590869
C42   C     C_R   0.530441 0.823554 0.145355 0.580429
C43   C     C_R   0.972392 0.321962 0.852586 0.589299
C44   C     C_R   0.030454 0.323554 0.145344 0.580472
C45   C     C_2   0.211815 0.542248 0.468458 -0.004139
C46   C     C_R   0.500596 0.071271 0.063378 0.326755
C47   C     C_2   0.791567 0.669187 0.547916 0.012135
C48   C     C_2   0.713161 0.059313 0.466546 0.022343
C49   C     C_2   0.308774 0.053543 0.531254 0.001456
C50   C     C_2   0.205172 0.602006 0.536065 0.337381
C51   C     C_2   0.774503 0.710799 0.477159 0.321810
C52   C     C_2   0.713500 0.121220 0.533223 0.324128
C53   C     C_2   0.308251 0.098589 0.459002 0.307486
C54   C     C_R   0.260021 0.631072 0.847386 0.515868
C55   C     C_R   0.738344 0.637670 0.148452 0.570066
C56   C     C_R   0.760018 0.131061 0.847378 0.516077
C57   C     C_R   0.520531 0.052816 0.916898 0.346605
C58   C     C_R   0.238348 0.137664 0.148460 0.559828
C59   C     C_R   0.272199 0.046760 0.648975 0.521496
C60   C     C_R   0.730024 0.053460 0.346131 0.509521
C61   C     C_R   0.771220 0.549771 0.650630 0.543142
C62   C     C_R   0.229269 0.551375 0.347884 0.505635
C63   C     C_R   0.470468 0.823584 0.648458 0.650751
C64   C     C_R   0.528369 0.824253 0.350591 0.607935
C65   C     C_R   0.970383 0.323688 0.648420 0.651116
C66   C     C_R   0.027894 0.324312 0.350413 0.612669
C67   C     C_R   0.259477 0.632678 0.648942 0.585055
C68   C     C_R   0.000656 0.571278 0.063340 0.326900
C69   C     C_R   0.728393 0.678252 0.361912 0.566808
C70   C     C_R   0.759266 0.132982 0.649423 0.583470
C71   C     C_R   0.240029 0.134568 0.352804 0.545241
C72   C     C_R   0.506961 0.836566 0.071240 -0.005646
C73   C     C_R   0.505844 0.830340 0.922973 0.040282
C74   C     C_R   0.007006 0.336571 0.071214 -0.005205
C75   C     C_R   0.005892 0.330349 0.922944 0.040444
C76   C     C_R   0.507425 0.951146 0.032614 -0.112072
C77   C     C_R   0.511685 0.944972 0.957538 -0.073223
C78   C     C_R   0.007488 0.451153 0.032581 -0.111979
C79   C     C_R   0.020589 0.552830 0.916861 0.346436
C80   C     C_R   0.011745 0.444980 0.957503 -0.073134
C81   C     C_R   0.507714 0.721643 0.961831 0.209818
C82   C     C_R   0.500914 0.725173 0.034547 0.190343
C83   C     C_R   0.007784 0.221653 0.961800 0.210011
C84   C     C_R   0.000981 0.225177 0.034517 0.190493
C85   C     C_3   0.112712 0.725081 0.504931 -0.066411
C86   C     C_3   0.866953 0.843718 0.464345 -0.095096
C87   C     C_3   0.633607 0.270404 0.507065 -0.064597
C88   C     C_3   0.398597 0.234467 0.485561 -0.094795
C89   C     C_3   0.437531 0.108564 0.163755 -0.021848
C90   C     C_R   0.998514 0.675467 0.020823 0.226015
C91   C     C_3   0.536462 0.125286 0.799688 -0.022011
C92   C     C_3   0.937529 0.608470 0.163674 -0.023126
C93   C     C_3   0.036198 0.625053 0.799572 -0.020702
C94   C     C_3   0.353939 0.376025 0.038451 -0.046135
C95   C     C_3   0.635217 0.361866 0.967985 -0.060276
C96   C     C_3   0.853954 0.876055 0.038247 -0.046780
C97   C     C_3   0.135337 0.861797 0.967973 -0.059975
C98   C     C_3   0.189961 0.406892 0.850556 -0.042006
C99   C     C_3   0.826804 0.423353 0.069034 -0.131662
C100  C     C_3   0.689975 0.906859 0.850522 -0.041505
Cr1   Cr    Cr6+3 0.230530 0.836340 0.748870 1.067807
Cr2   Cr    Cr6+3 0.614360 0.677860 0.250770 1.068753
Cr3   Cr    Cr6+3 0.885640 0.177860 0.749230 1.053758
Cr4   Cr    Cr6+3 0.114360 0.177860 0.250770 1.062915
Cr5   Cr    Cr6+3 0.769470 0.836340 0.251130 1.039307
Cr6   Cr    Cr6+3 0.730530 0.336340 0.748870 1.058698
Cr7   Cr    Cr6+3 0.269470 0.336340 0.251130 1.059242
Cr8   Cr    Cr6+3 0.387420 0.989430 0.750820 1.005069
Cr9   Cr    Cr6+3 0.612580 0.989430 0.249180 1.088939
Cr10  Cr    Cr6+3 0.887420 0.489430 0.750820 1.012118
Cr11  Cr    Cr6+3 0.112580 0.489430 0.249180 1.082767
Cr12  Cr    Cr6+3 0.385640 0.677860 0.749230 1.050700
H1    H     H_    0.185149 0.455732 0.460550 0.098426
H2    H     H_    0.520950 0.556087 0.054445 0.325696
H3    H     H_    0.979243 0.053354 0.948368 0.320924
H4    H     H_    0.021041 0.056101 0.054417 0.325505
H5    H     H_    0.077704 0.648921 0.520478 0.132065
H6    H     H_    0.119914 0.726492 0.446844 0.156912
H7    H     H_    0.086620 0.811460 0.519729 0.153969
H8    H     H_    0.897881 0.763980 0.446070 0.119549
H9    H     H_    0.878974 0.865120 0.520346 0.136988
H10   H     H_    0.883196 0.923447 0.432513 0.168107
H11   H     H_    0.592865 0.209590 0.529365 0.101958
H12   H     H_    0.846318 0.671923 0.562204 0.071512
H13   H     H_    0.634493 0.263131 0.448618 0.145956
H14   H     H_    0.619053 0.365400 0.520421 0.180410
H15   H     H_    0.431914 0.172755 0.517642 0.122946
H16   H     H_    0.362093 0.286165 0.519621 0.164015
H17   H     H_    0.433368 0.301630 0.459932 0.157651
H18   H     H_    0.295472 0.735968 0.379182 0.314848
H19   H     H_    0.648135 0.579636 0.611704 0.327372
H20   H     H_    0.807113 0.227751 0.370785 0.313553
H21   H     H_    0.169495 0.153867 0.599320 0.327089
H22   H     H_    0.297828 0.420896 0.626288 0.318657
H23   H     H_    0.681454 0.977484 0.461289 0.117631
H24   H     H_    0.703937 0.473291 0.412140 0.343978
H25   H     H_    0.780888 0.915230 0.628678 0.307415
H26   H     H_    0.175941 0.955648 0.401850 0.335428
H27   H     H_    0.411988 0.018768 0.169628 0.108092
H28   H     H_    0.405375 0.173279 0.133029 0.185991
H29   H     H_    0.443166 0.147208 0.217530 0.145747
H30   H     H_    0.549833 0.085529 0.747703 0.111894
H31   H     H_    0.567830 0.209667 0.805289 0.174936
H32   H     H_    0.479625 0.144421 0.798451 0.169054
H33   H     H_    0.911978 0.518654 0.169429 0.110935
H34   H     H_    0.355680 0.007743 0.549420 0.081875
H35   H     H_    0.905403 0.673283 0.132986 0.186629
H36   H     H_    0.943124 0.646952 0.217491 0.136404
H37   H     H_    0.049247 0.584969 0.747594 0.113038
H38   H     H_    0.067602 0.709445 0.804823 0.176010
H39   H     H_    0.979371 0.644277 0.798624 0.168507
H40   H     H_    0.003384 0.853857 0.021545 0.304313
H41   H     H_    0.956540 0.814111 0.921327 0.311925
H42   H     H_    0.503322 0.353830 0.021551 0.304333
H43   H     H_    0.456241 0.313952 0.921428 0.312094
H44   H     H_    0.381680 0.409407 0.086343 0.168211
H45   H     H_    0.326200 0.662266 0.961670 0.073774
H46   H     H_    0.379377 0.411112 0.990093 0.069817
H47   H     H_    0.357991 0.275659 0.037051 0.219882
H48   H     H_    0.593890 0.415465 0.941071 0.172932
H49   H     H_    0.628880 0.364939 0.026135 0.148232
H50   H     H_    0.630547 0.265438 0.951630 0.221910
H51   H     H_    0.881910 0.909879 0.085907 0.167324
H52   H     H_    0.879149 0.910705 0.989658 0.070154
H53   H     H_    0.858016 0.775694 0.037136 0.219943
H54   H     H_    0.094038 0.915397 0.941011 0.173305
H55   H     H_    0.128931 0.864894 0.026115 0.147697
H56   H     H_    0.644683 0.597383 0.049157 0.082201
H57   H     H_    0.130689 0.765363 0.951620 0.222195
H58   H     H_    0.208914 0.756307 0.110828 0.325645
H59   H     H_    0.800280 0.743841 0.906275 0.324099
H60   H     H_    0.708962 0.256344 0.110859 0.326481
H61   H     H_    0.300277 0.243856 0.906267 0.324219
H62   H     H_    0.154555 0.328324 0.858417 0.172223
H63   H     H_    0.240754 0.371148 0.831887 0.078528
H64   H     H_    0.167261 0.465473 0.808644 0.143828
H65   H     H_    0.806488 0.374569 0.022320 0.221459
H66   H     H_    0.806034 0.387825 0.119778 0.120330
H67   H     H_    0.826158 0.162316 0.961669 0.073750
H68   H     H_    0.882309 0.403891 0.070166 0.118779
H69   H     H_    0.654565 0.828328 0.858383 0.172571
H70   H     H_    0.740761 0.871104 0.831840 0.077120
H71   H     H_    0.667274 0.965437 0.808615 0.144533
H72   H     H_    0.306637 0.874405 0.022477 0.221639
H73   H     H_    0.305883 0.887812 0.119926 0.118170
H74   H     H_    0.382304 0.903812 0.070574 0.119223
H75   H     H_    0.482228 0.570570 0.476235 0.326804
H76   H     H_    0.371658 0.664232 0.512072 0.368168
H77   H     H_    0.987748 0.072596 0.479077 0.319466
H78   H     H_    0.144731 0.097462 0.049125 0.082882
H79   H     H_    0.873209 0.160551 0.512820 0.361810
H80   H     H_    0.428440 0.955525 0.463199 0.325254
H81   H     H_    0.573912 0.855866 0.515467 0.335499
H82   H     H_    0.921398 0.452049 0.460447 0.336564
H83   H     H_    0.071717 0.363699 0.513955 0.330410
H84   H     H_    0.479148 0.553359 0.948398 0.320961
O1    O     O_R   0.215090 0.709860 0.828130 -0.492754
O2    O     O_R   0.543740 0.718170 0.330000 -0.471448
O3    O     O_R   0.956260 0.218170 0.670000 -0.494040
O4    O     O_R   0.043740 0.218170 0.330000 -0.464908
O5    O     O_R   0.320940 0.626760 0.674370 -0.488229
O6    O     O_R   0.679060 0.626760 0.325630 -0.518691
O7    O     O_R   0.820940 0.126760 0.674370 -0.485813
O8    O     O_R   0.179060 0.126760 0.325630 -0.517999
O9    O     O_3   0.334530 0.834540 0.749640 -0.263891
O10   O     O_3   0.665470 0.834540 0.250360 -0.296959
O11   O     O_3   0.834530 0.334540 0.749640 -0.259741
O12   O     O_R   0.784910 0.709860 0.171870 -0.509261
O13   O     O_3   0.165470 0.334540 0.250360 -0.283001
O14   O     O_R   0.236990 0.958390 0.823710 -0.465116
O15   O     O_R   0.763010 0.958390 0.176290 -0.495840
O16   O     O_R   0.736990 0.458390 0.823710 -0.467484
O17   O     O_R   0.263010 0.458390 0.176290 -0.493560
O18   O     O_R   0.332380 0.074750 0.830850 -0.550122
O19   O     O_R   0.667620 0.074750 0.169150 -0.488406
O20   O     O_R   0.832380 0.574750 0.830850 -0.552571
O21   O     O_R   0.167620 0.574750 0.169150 -0.489728
O22   O     O_R   0.445800 0.917770 0.825070 -0.499079
O23   O     O_R   0.715090 0.209860 0.828130 -0.492958
O24   O     O_R   0.554200 0.917770 0.174930 -0.453520
O25   O     O_R   0.945800 0.417770 0.825070 -0.500847
O26   O     O_R   0.054200 0.417770 0.174930 -0.454163
O27   O     O_R   0.456410 0.716580 0.829970 -0.465308
O28   O     O_R   0.543590 0.716580 0.170030 -0.461409
O29   O     O_R   0.956410 0.216580 0.829970 -0.465425
O30   O     O_R   0.043590 0.216580 0.170030 -0.463113
O31   O     O_R   0.321080 0.625290 0.822650 -0.545943
O32   O     O_R   0.678920 0.625290 0.177350 -0.531556
O33   O     O_R   0.821080 0.125290 0.822650 -0.546112
O34   O     O_R   0.284910 0.209860 0.171870 -0.513150
O35   O     O_R   0.178920 0.125290 0.177350 -0.539281
O36   O     O_R   0.214930 0.711450 0.668160 -0.487236
O37   O     O_R   0.785070 0.711450 0.331840 -0.503892
O38   O     O_R   0.714930 0.211450 0.668160 -0.499549
O39   O     O_R   0.285070 0.211450 0.331840 -0.466590
O40   O     O_R   0.236850 0.959870 0.675420 -0.477177
O41   O     O_R   0.763150 0.959870 0.324580 -0.494148
O42   O     O_R   0.736850 0.459870 0.675420 -0.481860
O43   O     O_R   0.263150 0.459870 0.324580 -0.498491
O44   O     O_R   0.332230 0.076350 0.670880 -0.559018
O45   O     O_R   0.445660 0.919250 0.676780 -0.518391
O46   O     O_R   0.667770 0.076350 0.329120 -0.533232
O47   O     O_R   0.832230 0.576350 0.670880 -0.558025
O48   O     O_R   0.167770 0.576350 0.329120 -0.533134
O49   O     O_3   0.512661 0.611100 0.927196 -0.702021
O50   O     O_3   0.487618 0.618622 0.070870 -0.701419
O51   O     O_3   0.012743 0.111114 0.927162 -0.701684
O52   O     O_3   0.987693 0.118617 0.070834 -0.702411
O53   O     O_3   0.177428 0.719219 0.540319 -0.503758
O54   O     O_3   0.794834 0.826004 0.454326 -0.562992
O55   O     O_3   0.699859 0.245893 0.536260 -0.495536
O56   O     O_R   0.554340 0.919250 0.323220 -0.478759
O57   O     O_3   0.362843 0.169144 0.432445 -0.548215
O58   O     O_3   0.277909 0.708715 0.425683 -0.676340
O59   O     O_3   0.674264 0.620198 0.573417 -0.664790
O60   O     O_3   0.788649 0.208492 0.418251 -0.687300
O61   O     O_3   0.198318 0.141922 0.556640 -0.664234
O62   O     O_3   0.274033 0.442177 0.581433 -0.750197
O63   O     O_3   0.723151 0.517817 0.453288 -0.666333
O64   O     O_3   0.761188 0.941443 0.582660 -0.723613
O65   O     O_3   0.209401 0.975209 0.440085 -0.652016
O66   O     O_3   0.504198 0.095053 0.134884 -0.499291
O67   O     O_R   0.945660 0.419250 0.676780 -0.507427
O68   O     O_3   0.555023 0.040418 0.852409 -0.568224
O69   O     O_3   0.004215 0.595051 0.134846 -0.499970
O70   O     O_3   0.055053 0.540484 0.852357 -0.569094
O71   O     O_3   0.997153 0.786521 0.055270 -0.726930
O72   O     O_3   0.997668 0.768055 0.905165 -0.778183
O73   O     O_3   0.497085 0.286516 0.055290 -0.725916
O74   O     O_3   0.497368 0.267987 0.905193 -0.778494
O75   O     O_3   0.283275 0.407703 0.041087 -0.515709
O76   O     O_3   0.701102 0.402407 0.947559 -0.575199
O77   O     O_3   0.783296 0.907723 0.041105 -0.515506
O78   O     O_R   0.054340 0.419250 0.323220 -0.485761
O79   O     O_3   0.201244 0.902347 0.947626 -0.575600
O80   O     O_3   0.229794 0.718991 0.068274 -0.772630
O81   O     O_3   0.766213 0.711063 0.940327 -0.684626
O82   O     O_3   0.729806 0.219018 0.068291 -0.772699
O83   O     O_3   0.266208 0.211076 0.940317 -0.684646
O84   O     O_3   0.196912 0.470322 0.915183 -0.515309
O85   O     O_3   0.817252 0.549593 0.061494 -0.611348
O86   O     O_3   0.696931 0.970260 0.915159 -0.515451
O87   O     O_3   0.317274 0.049484 0.061566 -0.611158
O88   O     O_3   0.489431 0.625901 0.435555 -0.681330
O89   O     O_R   0.456260 0.718170 0.670000 -0.489312
O90   O     O_3   0.390201 0.716331 0.550398 -0.677044
O91   O     O_3   0.993956 0.126951 0.437784 -0.691627
O92   O     O_3   0.890401 0.215642 0.550384 -0.665155
O93   O     O_3   0.467101 0.957761 0.429328 -0.700822
O94   O     O_3   0.556717 0.882223 0.562027 -0.723746
O95   O     O_3   0.960410 0.455897 0.426573 -0.733469
O96   O     O_3   0.055893 0.384745 0.561880 -0.745855

loop_
_geom_bond_atom_site_label_1
_geom_bond_atom_site_label_2
_ccdc_geom_bond_type
C14   O83   S    
C86   O54   S    
C23   C29   D    
C57   O68   S    
C85   O53   S    
Cr11  O48   S    
C64   O2    A    
H84   O49   S    
C92   H36   S    
C59   O40   A    
C14   C18   D    
C48   H23   S    
C93   H37   S    
C31   O92   S    
C7    C55   S    
C72   C76   A    
C23   O94   S    
C6    O84   S    
C8    C56   S    
C46   C76   A    
C37   C62   S    
C24   O16   A    
Cr2   O28   S    
Cr5   O10   S    
Cr9   O56   S    
C85   H6    S    
C4    C46   A    
C34   C52   D    
C25   C28   D    
C15   C19   S    
C55   O12   A    
C5    O74   S    
C29   O90   S    
C54   O1    A    
C67   O5    A    
C61   O42   A    
C88   H17   S    
C26   O96   S    
C28   C29   S    
C43   O25   A    
C42   O28   A    
C6    C19   D    
Cr12  O9    S    
C99   H65   S    
C88   H15   S    
C42   O24   A    
C10   C15   D    
Cr2   O2    S    
C74   C84   A    
Cr6   O42   S    
C30   C31   S    
C98   H62   S    
Cr1   O1    S    
C9    C22   D    
C98   H64   S    
C39   C60   S    
C97   H54   S    
C63   O45   A    
C52   O55   S    
C35   O21   A    
C11   C24   S    
C70   O7    A    
C79   O70   S    
C97   H57   S    
C9    O87   S    
C2    C90   A    
C9    C58   S    
C70   O38   A    
Cr11  O78   S    
C85   H7    S    
C51   O54   S    
C69   O37   A    
Cr6   O16   S    
C58   O35   A    
C18   O79   S    
C40   C59   S    
C64   O56   A    
C89   O66   S    
H83   O96   S    
C75   C83   A    
Cr8   O44   S    
H80   O93   S    
C89   H27   S    
C12   C17   D    
C86   H10   S    
C68   C90   A    
C10   C35   S    
C2    C79   A    
C71   O39   A    
C22   H78   S    
H42   O73   S    
C100  H70   S    
C3    H72   S    
C34   C70   S    
H79   O92   S    
H59   O81   S    
C36   C71   S    
C33   C69   S    
C91   H30   S    
Cr8   O22   S    
C23   C63   S    
C38   O59   S    
C1    O14   A    
C45   C50   S    
H58   O80   S    
C69   O6    A    
C94   H46   S    
Cr12  O31   S    
C65   O3    A    
C27   C30   D    
C68   C78   A    
C96   O77   S    
Cr4   O4    S    
C83   O51   S    
C93   H38   S    
C65   O67   A    
C53   O57   S    
Cr4   O13   S    
C6    C54   S    
C15   O75   S    
C3    H73   S    
C73   C81   A    
C16   O76   S    
H82   O95   S    
C41   O22   A    
C91   H31   S    
H40   O71   S    
C43   C75   S    
C71   O8    A    
C20   H56   S    
C82   O50   S    
Cr12  O5    S    
C95   H48   S    
C19   H45   S    
H4    O52   S    
C1    C14   S    
C95   O76   S    
H41   O72   S    
C76   C77   A    
C99   H66   S    
C95   H50   S    
C10   O80   S    
Cr6   O11   S    
H20   O60   S    
Cr8   O9    S    
Cr4   O35   S    
C47   C51   S    
C39   O60   S    
C97   H55   S    
Cr7   O43   S    
C94   H47   S    
C81   C82   A    
C62   O43   A    
C96   H52   S    
C25   O93   S    
Cr11  O26   S    
C55   O32   A    
Cr8   O45   S    
Cr10  O20   S    
Cr11  O13   S    
C66   O4    A    
C58   O34   A    
C81   O49   S    
C100  H71   S    
C40   C49   D    
C8    O86   S    
C11   C16   D    
C89   H29   S    
C83   C84   A    
Cr7   O17   S    
H26   O65   S    
C21   H67   S    
C16   C20   S    
C89   H28   S    
C2    O72   S    
C33   O63   S    
C86   H9    S    
Cr2   O32   S    
C8    C21   D    
C68   O69   S    
C78   C80   A    
C34   O64   S    
Cr1   O40   S    
Cr3   O3    S    
C12   C13   S    
C85   H5    S    
C100  H69   S    
Cr2   O10   S    
C32   C50   D    
Cr10  O67   S    
C36   C53   D    
C50   O53   S    
Cr1   O9    S    
C32   C67   S    
Cr7   O13   S    
C92   O69   S    
H18   O58   S    
Cr4   O8    S    
C25   C64   S    
C41   O27   A    
C46   O66   S    
H76   O90   S    
C67   O36   A    
C37   O58   S    
H77   O91   S    
Cr9   O24   S    
C30   O91   S    
C72   C82   A    
Cr12  O27   S    
Cr6   O23   S    
C93   H39   S    
C44   O26   A    
Cr12  O89   S    
C37   C45   D    
Cr4   O30   S    
C3    H74   S    
C12   O82   S    
Cr3   O29   S    
C87   H13   S    
H43   O74   S    
Cr10  O47   S    
Cr5   O12   S    
C91   H32   S    
C75   C80   A    
H25   O64   S    
C4    O73   S    
C28   O88   S    
Cr7   O39   S    
Cr5   O41   S    
Cr6   O38   S    
C92   H33   S    
C18   C22   S    
C26   C65   S    
Cr5   O37   S    
C61   O47   A    
Cr3   O11   S    
C4    C5    A    
Cr9   O19   S    
C7    O85   S    
H81   O94   S    
C17   O77   S    
H75   O88   S    
H3    O51   S    
C62   O48   A    
C88   O57   S    
C93   O70   S    
Cr1   O14   S    
C33   C51   D    
Cr3   O33   S    
C60   O46   A    
C49   H34   S    
Cr5   O15   S    
C96   H51   S    
C5    C57   A    
C84   O52   S    
C36   O65   S    
C38   C61   S    
C57   C77   A    
C95   H49   S    
C59   O44   A    
C87   O55   S    
C99   H68   S    
C88   H16   S    
C44   C74   S    
C98   O84   S    
C87   H11   S    
C98   H63   S    
C24   O20   A    
C13   O19   A    
C47   H12   S    
H2    O50   S    
H24   O63   S    
C38   C47   D    
Cr9   O46   S    
C49   C53   S    
C94   O75   S    
H21   O61   S    
C32   O62   S    
H22   O62   S    
C11   O81   S    
C56   O33   A    
C90   O71   S    
Cr1   O36   S    
H19   O59   S    
C87   H14   S    
Cr2   O6    S    
Cr9   O10   S    
Cr10  O11   S    
Cr3   O7    S    
C54   O31   A    
C99   O85   S    
C66   O78   A    
C63   O89   A    
C13   O15   A    
C41   C73   S    
C79   C80   A    
C97   O79   S    
C45   H1    S    
C26   C31   D    
C3    O87   S    
C94   H44   S    
C7    C20   D    
C74   C78   A    
Cr7   O34   S    
C100  O86   S    
C1    O18   A    
C27   C66   S    
C92   H35   S    
C73   C77   A    
C96   H53   S    
C40   O61   S    
C86   H8    S    
C60   O41   A    
Cr11  O21   S    
C27   O95   S    
C42   C72   S    
C48   C52   S    
Cr10  O25   S    
C44   O30   A    
C35   O17   A    
C56   O23   A    
H60   O82   S    
C91   O68   S    
C43   O29   A    
Cr8   O18   S    
C39   C48   D    
H61   O83   S    
C17   C21   S    
