data_mof_unit_41233.cif
_audit_creation_date              2012-10-26T21:05:40-0400
_audit_creation_method            fapswitch 2.2
_symmetry_space_group_name_H-M    P1
_symmetry_Int_Tables_number       1
_space_group_crystal_system       triclinic
_cell_length_a                    13.020632
_cell_length_b                    9.087582
_cell_length_c                    7.781335
_cell_angle_alpha                 89.963065
_cell_angle_beta                  96.455653
_cell_angle_gamma                 89.978147
_cell_volume                      914.896218813

loop_
_atom_site_label
_atom_site_type_symbol
_atom_type_description
_atom_site_fract_x
_atom_site_fract_y
_atom_site_fract_z
_atom_type_partial_charge
C1    C     C_R   0.499904 0.220022 0.500010 0.568244
C2    C     C_R   0.867304 0.591767 0.690229 -0.041803
C3    C     C_R   0.132371 0.570804 0.553238 0.250950
C4    C     C_R   0.867356 0.433400 0.435691 0.244975
C5    C     C_R   0.029023 0.535580 0.571953 0.010888
C6    C     C_R   0.976506 0.434005 0.454452 -0.045982
C7    C     C_1   0.499825 0.065381 0.500009 0.008151
C8    C     C_1   0.499807 0.934617 0.499925 0.003105
C9    C     C_2   0.810293 0.670827 0.817311 0.626081
C10   C     C_2   0.203569 0.261087 0.260355 0.628097
C11   C     C_2   0.987398 0.202426 0.274834 0.635581
C12   C     C_R   0.499845 0.779976 0.499940 0.560916
C13   C     C_2   0.033071 0.680009 0.851065 0.690951
C14   C     C_R   0.300506 0.495913 0.467567 0.528344
C15   C     C_R   0.700103 0.503425 0.532595 0.608600
C16   C     C_R   0.813470 0.510099 0.554049 0.008258
C17   C     C_R   0.188422 0.482003 0.448766 -0.039590
C18   C     C_R   0.034242 0.338681 0.356419 0.023939
C19   C     C_R   0.975644 0.604291 0.699939 0.051932
C20   C     C_R   0.140659 0.364090 0.353287 0.000943
Cu1   Cu    Cu3+1 0.500010 0.500000 0.669080 1.107282
Cu2   Cu    Cu3+1 0.499990 0.500000 0.330920 1.122645
H1    H     H_    0.844364 0.388499 0.192434 0.355606
H2    H     H_    0.232402 0.732429 0.567741 0.334690
H3    H     H_    0.704061 0.824746 0.858036 0.350006
H4    H     H_    0.281018 0.225284 0.054039 0.348436
H5    H     H_    0.901261 0.020998 0.301104 0.364155
H6    H     H_    0.145799 0.667576 0.050997 0.350788
N1    N     N_1   0.499980 0.500000 0.076820 -0.055322
N2    N     N_1   0.500020 0.500000 0.923180 -0.058963
O1    O     O_R   0.500000 0.288400 0.642760 -0.503753
O2    O     O_3   0.175639 0.696611 0.631555 -0.635357
O3    O     O_2   0.826847 0.641498 0.971363 -0.497860
O4    O     O_R   0.738123 0.779085 0.759948 -0.665221
O5    O     O_2   0.223256 0.138187 0.319137 -0.499400
O6    O     O_R   0.238897 0.304661 0.105062 -0.613767
O7    O     O_2   0.999783 0.171453 0.125590 -0.439526
O8    O     O_R   0.929099 0.109922 0.369882 -0.614872
O9    O     O_2   0.011070 0.806326 0.887030 -0.425210
O10   O     O_R   0.112699 0.605759 0.951359 -0.617743
O11   O     O_R   0.500000 0.711600 0.357240 -0.505047
O12   O     O_R   0.500000 0.288400 0.357240 -0.491805
O13   O     O_R   0.500000 0.711600 0.642760 -0.495377
O14   O     O_R   0.349000 0.500000 0.619590 -0.477034
O15   O     O_R   0.651000 0.500000 0.380410 -0.446794
O16   O     O_R   0.348990 0.500000 0.334020 -0.484267
O17   O     O_R   0.651010 0.500000 0.665980 -0.497760
O18   O     O_3   0.811023 0.364780 0.297537 -0.631112

loop_
_geom_bond_atom_site_label_1
_geom_bond_atom_site_label_2
_ccdc_geom_bond_type
C4    C16   A    
C11   O8    S    
H2    O2    S    
C11   C18   S    
N1    N2    T    
C5    C19   A    
Cu2   N1    S    
Cu1   O14   S    
C2    C16   A    
Cu1   N2    S    
C14   O14   A    
C15   O17   A    
H3    O4    S    
C8    C12   S    
C17   C20   A    
C7    C8    T    
C14   O16   A    
Cu1   O13   S    
Cu1   Cu2   S    
C9    O3    D    
Cu1   O1    S    
C14   C17   S    
Cu2   O12   S    
C5    C6    A    
H4    O6    S    
Cu2   O16   S    
C9    O4    S    
C3    C17   A    
C12   O13   A    
C18   C20   A    
C3    O2    S    
C6    C18   A    
C10   O5    D    
C13   O9    D    
Cu2   O11   S    
H6    O10   S    
H5    O8    S    
C15   C16   S    
C1    O12   A    
C1    O1    A    
Cu2   O15   S    
C12   O11   A    
C4    C6    A    
C4    O18   S    
C11   O7    D    
C13   C19   S    
C13   O10   S    
C10   O6    S    
H1    O18   S    
Cu1   O17   S    
C2    C19   A    
C1    C7    S    
C2    C9    S    
C10   C20   S    
C3    C5    A    
C15   O15   A    
