data_mof_unit_28237.cif
_audit_creation_date              2012-12-10T18:52:19-0500
_audit_creation_method            fapswitch 2.2
_symmetry_space_group_name_H-M    P1
_symmetry_Int_Tables_number       1
_space_group_crystal_system       triclinic
_cell_length_a                    15.741355
_cell_length_b                    10.657603
_cell_length_c                    9.970659
_cell_angle_alpha                 90.073159
_cell_angle_beta                  90.025637
_cell_angle_gamma                 94.068552
_cell_volume                      1668.51163914

loop_
_atom_site_label
_atom_site_type_symbol
_atom_type_description
_atom_site_fract_x
_atom_site_fract_y
_atom_site_fract_z
_atom_type_partial_charge
C1    C     C_R   0.510159 0.261397 0.499872 0.898292
C2    C     C_R   0.441923 0.423211 0.071686 0.199024
C3    C     C_R   0.338191 0.499143 0.499945 0.886007
C4    C     C_R   0.661809 0.500857 0.500055 0.886004
C5    C     C_3   0.966704 0.394254 0.555904 0.002717
C6    C     C_3   0.033296 0.605744 0.444096 0.002717
C7    C     C_3   0.023217 0.399184 0.428764 -0.258633
C8    C     C_3   0.976783 0.600814 0.571235 -0.258633
C9    C     C_1   0.249374 0.498752 0.499871 -0.168926
C10   C     C_1   0.750625 0.501247 0.500129 -0.168927
C11   C     C_3   0.027490 0.492636 0.625929 0.000726
C12   C     C_R   0.489842 0.738604 0.500128 0.898292
C13   C     C_3   0.972510 0.507363 0.374070 0.000726
C14   C     C_3   0.083312 0.499090 0.499868 0.085081
C15   C     C_3   0.916687 0.500908 0.500132 0.085081
C16   C     C_1   0.174167 0.498646 0.499826 -0.037348
C17   C     C_1   0.825833 0.501353 0.500173 -0.037348
C18   C     C_R   0.516419 0.061704 0.376853 0.141834
C19   C     C_R   0.483585 0.938298 0.623146 0.141832
C20   C     C_1   0.928579 0.278554 0.617485 0.175057
C21   C     C_1   0.071421 0.721444 0.382515 0.175058
C22   C     C_1   0.940843 0.515822 0.236077 0.181937
C23   C     C_R   0.482488 0.937813 0.377254 0.141207
C24   C     C_1   0.059157 0.484177 0.763923 0.181938
C25   C     C_3   0.552622 0.117684 0.247372 -0.824869
C26   C     C_3   0.447383 0.882320 0.752628 -0.824867
C27   C     C_3   0.445193 0.881220 0.248558 -0.820222
C28   C     C_3   0.554817 0.118780 0.751439 -0.820222
C29   C     C_3   0.624321 0.662447 0.143530 -0.810604
C30   C     C_3   0.375683 0.337544 0.856471 -0.810597
C31   C     C_3   0.624617 0.661758 0.856896 -0.812168
C32   C     C_3   0.375383 0.338242 0.143104 -0.812172
C33   C     C_R   0.517518 0.062189 0.622744 0.141208
C34   C     C_R   0.477747 0.872509 0.500276 -0.159030
C35   C     C_R   0.522257 0.127493 0.499723 -0.159030
C36   C     C_R   0.558068 0.576873 0.071911 0.198671
C37   C     C_R   0.441933 0.423125 0.928089 0.198676
C38   C     C_R   0.558077 0.576789 0.928314 0.199026
H1    H     H_    0.043409 0.317307 0.370946 0.161834
H2    H     H_    0.396881 0.802592 0.269173 0.251644
H3    H     H_    0.410966 0.952366 0.192754 0.226584
H4    H     H_    0.503869 0.151767 0.816372 0.244465
H5    H     H_    0.589053 0.047636 0.807232 0.226584
H6    H     H_    0.603123 0.197415 0.730822 0.251645
H7    H     H_    0.621837 0.760978 0.109593 0.196992
H8    H     H_    0.615756 0.668292 0.251204 0.291309
H9    H     H_    0.688816 0.630540 0.124198 0.232673
H10   H     H_    0.378177 0.239013 0.890401 0.196991
H11   H     H_    0.311186 0.369438 0.875812 0.232667
H12   H     H_    0.956591 0.682691 0.629054 0.161834
H13   H     H_    0.384242 0.331708 0.748795 0.291311
H14   H     H_    0.615549 0.668382 0.749376 0.291385
H15   H     H_    0.623133 0.760229 0.891732 0.197537
H16   H     H_    0.688876 0.628617 0.875313 0.231112
H17   H     H_    0.384451 0.331617 0.250624 0.291385
H18   H     H_    0.311124 0.371384 0.124687 0.231111
H19   H     H_    0.376866 0.239771 0.108267 0.197540
H20   H     H_    0.601271 0.196180 0.266918 0.250997
H21   H     H_    0.586200 0.046201 0.190862 0.225878
H22   H     H_    0.501142 0.150609 0.183531 0.245281
H23   H     H_    0.398735 0.803821 0.733084 0.250999
H24   H     H_    0.498863 0.849401 0.816472 0.245279
H25   H     H_    0.413802 0.953804 0.809133 0.225875
H26   H     H_    0.496143 0.848221 0.183635 0.244470
N1    N     N_R   0.499980 0.499970 0.857200 -0.115313
N2    N     N_R   0.500020 0.500030 0.142800 -0.115312
N3    N     N_1   0.898475 0.187398 0.666024 -0.199048
N4    N     N_1   0.101525 0.812600 0.333975 -0.199048
N5    N     N_1   0.915848 0.522508 0.127352 -0.193668
N6    N     N_1   0.084152 0.477491 0.872647 -0.193667
O1    O     O_R   0.499990 0.316750 0.614620 -0.622560
O2    O     O_R   0.500010 0.683250 0.385380 -0.622562
O3    O     O_R   0.500000 0.316780 0.385290 -0.622698
O4    O     O_R   0.500000 0.683220 0.614710 -0.622698
O5    O     O_R   0.376780 0.499970 0.614640 -0.620337
O6    O     O_R   0.623220 0.500030 0.385360 -0.620335
O7    O     O_R   0.376780 0.500000 0.385310 -0.620223
O8    O     O_R   0.623220 0.500000 0.614690 -0.620225
Zn1   Zn    Zn3+2 0.500000 0.499980 0.653120 0.927400
Zn2   Zn    Zn3+2 0.500000 0.500020 0.346880 0.927399

loop_
_geom_bond_atom_site_label_1
_geom_bond_atom_site_label_2
_ccdc_geom_bond_type
C30   H13   S    
N1    Zn1   S    
C12   O4    A    
C20   N3    T    
C31   H14   S    
O1    Zn1   S    
C24   N6    T    
C5    C20   S    
C29   C36   S    
C1    O1    A    
C29   H9    S    
C30   H10   S    
C26   H23   S    
C5    C11   S    
C11   C14   S    
C36   N2    A    
C10   C17   T    
C11   C24   S    
C2    C32   S    
C19   C26   S    
C7    C14   S    
C37   N1    A    
C25   H22   S    
C23   C27   S    
C3    O5    A    
C18   C35   A    
C22   N5    T    
C12   O2    A    
C18   C25   S    
C32   H19   S    
C4    O6    A    
C18   C23   A    
C19   C33   A    
C5    C7    S    
O8    Zn1   S    
C6    C8    S    
C6    C21   S    
C28   H6    S    
C30   C37   S    
C29   H7    S    
C26   H25   S    
C4    O8    A    
C3    C9    S    
C6    C14   S    
C27   H3    S    
C38   N1    A    
C27   H2    S    
C23   C34   A    
C31   H15   S    
C12   C34   S    
C30   H11   S    
C28   C33   S    
C8    C15   S    
O4    Zn1   S    
C13   C15   S    
C21   N4    T    
C14   C16   S    
C25   H20   S    
C4    C10   S    
C3    O7    A    
C8    H12   S    
C1    C35   S    
O7    Zn2   S    
C15   C17   S    
C32   H17   S    
C9    C16   T    
O6    Zn2   S    
C2    N2    A    
C19   C34   A    
N2    Zn2   S    
C28   H5    S    
C31   C38   S    
C29   H8    S    
C1    O3    A    
C36   C38   A    
C26   H24   S    
O2    Zn2   S    
C6    C13   S    
C2    C37   A    
C8    C11   S    
C28   H4    S    
C33   C35   A    
O3    Zn2   S    
C13   C22   S    
C31   H16   S    
C5    C15   S    
C27   H26   S    
C7    C13   S    
C7    H1    S    
C25   H21   S    
O5    Zn1   S    
C32   H18   S    
