data_mof_unit_35288.cif
_audit_creation_date              2012-12-10T19:27:26-0500
_audit_creation_method            fapswitch 2.2
_symmetry_space_group_name_H-M    P1
_symmetry_Int_Tables_number       1
_space_group_crystal_system       triclinic
_cell_length_a                    23.373099
_cell_length_b                    10.499264
_cell_length_c                    9.749332
_cell_angle_alpha                 89.166129
_cell_angle_beta                  89.780879
_cell_angle_gamma                 90.433929
_cell_volume                      2392.14885377

loop_
_atom_site_label
_atom_site_type_symbol
_atom_type_description
_atom_site_fract_x
_atom_site_fract_y
_atom_site_fract_z
_atom_type_partial_charge
C1    C     C_R   0.501386 0.257892 0.501171 1.045206
C2    C     C_R   0.498521 0.742115 0.498815 1.045961
C3    C     C_R   0.239571 0.451504 0.374759 0.361298
C4    C     C_R   0.761349 0.533074 0.371224 0.369070
C5    C     C_R   0.298669 0.462574 0.376531 -0.262792
C6    C     C_R   0.702112 0.526902 0.373760 -0.192791
C7    C     C_R   0.327229 0.485866 0.499941 -0.136214
C8    C     C_R   0.672938 0.508375 0.498433 -0.144516
C9    C     C_R   0.296214 0.495170 0.622714 -0.287199
C10   C     C_R   0.703583 0.497333 0.621375 -0.350619
C11   C     C_R   0.236367 0.487881 0.621298 0.484356
C12   C     C_R   0.763470 0.499185 0.619219 0.488271
C13   C     C_R   0.208540 0.464937 0.496796 0.148705
C14   C     C_R   0.791867 0.519008 0.493752 0.140030
C15   C     C_3   0.510402 0.035731 0.630259 0.268442
C16   C     C_3   0.489304 0.964347 0.369586 0.266525
C17   C     C_3   0.549994 0.954751 0.540941 0.322667
C18   C     C_3   0.449677 0.045375 0.458891 0.321150
C19   C     C_3   0.497989 0.876713 0.496005 -0.402503
C20   C     C_3   0.501735 0.123321 0.503893 -0.401972
C21   C     C_3   0.458034 0.957624 0.584761 0.258522
C22   C     C_3   0.541651 0.042455 0.415147 0.257099
C23   C     C_R   0.389405 0.497069 0.500209 0.945146
C24   C     C_R   0.610625 0.501928 0.499688 0.946438
C25   C     C_3   0.450652 0.534289 0.048859 -0.210625
C26   C     C_3   0.549345 0.465719 0.951134 -0.204643
C27   C     C_3   0.462160 0.422743 0.953913 0.491149
C28   C     C_3   0.537818 0.577280 0.046049 0.494843
C29   C     C_3   0.488894 0.612519 0.949552 -0.123820
C30   C     C_3   0.511084 0.387458 0.050432 -0.123534
C31   C     C_R   0.884150 0.621466 0.489640 0.643050
C32   C     C_R   0.116272 0.361975 0.491762 0.646233
C33   C     C_R   0.877002 0.394257 0.484016 0.585570
C34   C     C_R   0.123379 0.589332 0.485529 0.584280
C35   C     C_R   0.936695 0.382984 0.479017 -0.139960
C36   C     C_R   0.063731 0.600705 0.480187 -0.136269
C37   C     C_R   0.970190 0.495534 0.482183 -0.072652
C38   C     C_R   0.030239 0.488055 0.482685 -0.073952
C39   C     C_R   0.943752 0.615733 0.484688 -0.076634
C40   C     C_R   0.056681 0.367793 0.485470 -0.078742
C41   C     C_R   0.963865 0.263485 0.469804 0.497700
C42   C     C_R   0.036637 0.720485 0.471221 0.497519
C43   C     C_R   0.023285 0.256651 0.479283 -0.253056
C44   C     C_R   0.977171 0.727040 0.479679 -0.258196
H1    H     H_    0.409154 0.562286 0.094800 0.179253
H2    H     H_    0.590840 0.437684 0.905209 0.172428
H3    H     H_    0.480007 0.707193 0.902445 0.231185
H4    H     H_    0.519964 0.292776 0.097526 0.231147
H5    H     H_    0.042963 0.163737 0.478576 0.206352
H6    H     H_    0.957504 0.819976 0.479407 0.206790
H7    H     H_    0.322093 0.453152 0.281149 0.211553
H8    H     H_    0.679085 0.536309 0.278035 0.234396
H9    H     H_    0.318282 0.509228 0.718780 0.201003
H10   H     H_    0.681221 0.486054 0.718279 0.182129
N1    N     N_R   0.852567 0.511785 0.489447 -0.320745
N2    N     N_R   0.147829 0.471701 0.491831 -0.321124
N3    N     N_3   0.499960 0.500030 0.863290 -0.137335
N4    N     N_3   0.500040 0.499970 0.136710 -0.136808
O1    O     O_R   0.500000 0.313960 0.616610 -0.564764
O2    O     O_R   0.500000 0.686040 0.383390 -0.563478
O3    O     O_R   0.500030 0.313950 0.383350 -0.593625
O4    O     O_R   0.499970 0.686050 0.616650 -0.593717
O5    O     O_R   0.416140 0.499970 0.616650 -0.588979
O6    O     O_R   0.583860 0.500030 0.383350 -0.593877
O7    O     O_R   0.416170 0.499960 0.383400 -0.637953
O8    O     O_R   0.583830 0.500040 0.616600 -0.632627
O9    O     O_2   0.857739 0.735191 0.494689 -0.546523
O10   O     O_2   0.142683 0.248188 0.497831 -0.545343
O11   O     O_2   0.843242 0.289389 0.485021 -0.525360
O12   O     O_2   0.157110 0.694232 0.485848 -0.527657
Zn1   Zn    Zn3+2 0.499980 0.500010 0.655740 1.047975
Zn2   Zn    Zn3+2 0.500020 0.499990 0.344260 1.048274
O13   O     O_3   0.932870 0.152413 0.451151 -0.559434
C45   C     C_3   0.928908 0.131072 0.308554 0.087327
H11   H     H_    0.971022 0.100506 0.267334 0.122629
H12   H     H_    0.914779 0.218057 0.251215 0.152616
C46   C     C_3   0.884963 0.026709 0.282475 -0.654903
H13   H     H_    0.842658 0.054288 0.324431 0.288543
H14   H     H_    0.880822 0.011716 0.170420 0.197037
H15   H     H_    0.898503 0.936213 0.331763 0.259558
O14   O     O_3   0.067838 0.832063 0.454162 -0.556595
C47   C     C_3   0.071071 0.860972 0.312148 0.097210
H16   H     H_    0.029372 0.898544 0.275414 0.124086
H17   H     H_    0.082663 0.775977 0.250623 0.146242
C48   C     C_3   0.117129 0.961703 0.286364 -0.676519
H18   H     H_    0.159221 0.926113 0.322058 0.277185
H19   H     H_    0.120002 0.984224 0.174898 0.199381
H20   H     H_    0.106687 0.049951 0.341678 0.269568
Cl1   Cl    Cl    0.409968 0.316653 0.886506 -0.474596
Cl2   Cl    Cl    0.589678 0.684312 0.113103 -0.481006
Cl3   Cl    Cl    0.204894 0.425990 0.217580 -0.619372
Cl4   Cl    Cl    0.796789 0.554209 0.212923 -0.600344
O15   O     O_3   0.203660 0.497115 0.739863 -0.589993
C49   C     C_3   0.217532 0.609091 0.811858 0.133876
H21   H     H_    0.228165 0.691026 0.741779 0.166892
H22   H     H_    0.254219 0.590691 0.881451 0.174250
C50   C     C_3   0.166302 0.647036 0.898433 -0.706438
H23   H     H_    0.154261 0.568178 0.970212 0.290872
H24   H     H_    0.177035 0.732901 0.958650 0.209583
H25   H     H_    0.129325 0.668747 0.830982 0.250634
O16   O     O_3   0.795661 0.487664 0.737992 -0.589349
C51   C     C_3   0.780690 0.375150 0.811624 0.124818
H26   H     H_    0.769469 0.294648 0.742830 0.147981
H27   H     H_    0.744013 0.394085 0.881167 0.170091
C52   C     C_3   0.831406 0.333652 0.898324 -0.705519
H28   H     H_    0.844116 0.410991 0.968683 0.291865
H29   H     H_    0.819758 0.247523 0.960073 0.209481
H30   H     H_    0.868251 0.311027 0.830831 0.248916
O17   O     O_3   0.601353 0.893073 0.577251 -0.566370
C53   C     C_3   0.640903 0.981117 0.631150 0.148655
H31   H     H_    0.633143 0.991160 0.742890 0.203101
H32   H     H_    0.638759 0.076983 0.580881 0.151261
C54   C     C_3   0.701117 0.930410 0.611120 -0.675740
H33   H     H_    0.710315 0.920163 0.499972 0.280365
H34   H     H_    0.732750 0.997538 0.655447 0.208864
H35   H     H_    0.705350 0.836010 0.662933 0.265195
O18   O     O_3   0.398532 0.107991 0.422561 -0.569022
C55   C     C_3   0.358679 0.020658 0.368783 0.149293
H36   H     H_    0.358498 0.927259 0.424483 0.157818
H37   H     H_    0.368157 0.004904 0.258698 0.204322
C56   C     C_3   0.299026 0.076790 0.379406 -0.670069
H38   H     H_    0.297132 0.168421 0.321246 0.269041
H39   H     H_    0.267150 0.009637 0.336176 0.205636
H40   H     H_    0.288129 0.093937 0.488556 0.279973
Cl5   Cl    Cl    0.522926 0.084008 0.802479 -0.463249
Cl6   Cl    Cl    0.477179 0.915877 0.197264 -0.459986
Cl7   Cl    Cl    0.403151 0.896829 0.695934 -0.530576
Cl8   Cl    Cl    0.596690 0.103065 0.304322 -0.516200

loop_
_geom_bond_atom_site_label_1
_geom_bond_atom_site_label_2
_ccdc_geom_bond_type
C33   N1    A    
C34   N2    A    
O15   C49   S    
C18   C21   S    
O13   C45   S    
C36   C42   A    
O6    Zn2   S    
C28   N4    S    
O14   C47   S    
C46   H13   S    
C31   O9    S    
C52   H29   S    
O16   C51   S    
C45   H12   S    
C29   H3    S    
C30   H4    S    
C28   C29   S    
C35   C37   A    
C1    O1    A    
C2    O2    A    
C48   H20   S    
O2    Zn2   S    
C51   C52   S    
C3    Cl3   S    
C53   H31   S    
C56   H40   S    
C8    C24   S    
C55   H36   S    
C40   C43   A    
C45   C46   S    
C21   Cl7   S    
C34   O12   S    
C18   C20   S    
C3    C13   A    
C33   O11   S    
C32   O10   S    
C54   H35   S    
C4    Cl4   S    
C11   O15   S    
C23   O5    A    
C14   N1    S    
C24   O6    A    
C27   C30   S    
C41   C43   A    
C51   H26   S    
C42   O14   S    
C42   C44   A    
C23   O7    A    
C35   C41   A    
C50   H24   S    
C50   H23   S    
C53   H32   S    
C46   H14   S    
C25   C29   S    
C15   C20   S    
C52   H30   S    
C45   H11   S    
C48   H19   S    
C4    C6    A    
C27   N3    S    
C5    C7    A    
C43   H5    S    
C6    C8    A    
C49   C50   S    
C48   H18   S    
C17   O17   S    
C55   C56   S    
C49   H22   S    
C37   C38   A    
C22   Cl8   S    
O8    Zn1   S    
C53   C54   S    
N3    Zn1   S    
C51   H27   S    
C9    C11   A    
C18   O18   S    
C56   H38   S    
C10   C12   A    
O3    Zn2   S    
C16   C18   S    
C29   N3    S    
C26   C30   S    
C47   H17   S    
C9    H9    S    
C25   N4    S    
C20   C22   S    
C17   C19   S    
C47   C48   S    
C25   H1    S    
C50   H25   S    
C54   H33   S    
C46   H15   S    
C44   H6    S    
C15   C17   S    
C1    C20   S    
C16   C22   S    
C19   C21   S    
C2    C19   S    
O5    Zn1   S    
C3    C5    A    
C1    O3    A    
C39   C44   A    
C24   O8    A    
C25   C27   S    
O7    Zn2   S    
C52   H28   S    
C26   C28   S    
C17   C22   S    
C6    H8    S    
C13   N2    S    
C36   C38   A    
C12   C14   A    
C12   O16   S    
C37   C39   A    
O18   C55   S    
C38   C40   A    
C11   C13   A    
N4    Zn2   S    
C16   C19   S    
C7    C23   S    
C30   N4    S    
C33   C35   A    
C31   C39   A    
O4    Zn1   S    
C27   Cl1   S    
C34   C36   A    
C32   C40   A    
C4    C14   A    
C49   H21   S    
C10   H10   S    
C26   N3    S    
C55   H37   S    
C56   H39   S    
C26   H2    S    
C41   O13   S    
C7    C9    A    
C15   C21   S    
C8    C10   A    
C47   H16   S    
C15   Cl5   S    
C5    H7    S    
C28   Cl2   S    
C31   N1    A    
O17   C53   S    
C16   Cl6   S    
C32   N2    A    
C2    O4    A    
O1    Zn1   S    
C54   H34   S    
