data_mof_unit_68377.cif
_audit_creation_date              2012-12-11T14:27:18-0500
_audit_creation_method            fapswitch 2.2
_symmetry_space_group_name_H-M    P1
_symmetry_Int_Tables_number       1
_space_group_crystal_system       triclinic
_cell_length_a                    8.537182
_cell_length_b                    15.315877
_cell_length_c                    15.343558
_cell_angle_alpha                 97.022972
_cell_angle_beta                  100.571678
_cell_angle_gamma                 97.804826
_cell_volume                      1931.47429582

loop_
_atom_site_label
_atom_site_type_symbol
_atom_type_description
_atom_site_fract_x
_atom_site_fract_y
_atom_site_fract_z
_atom_type_partial_charge
Ba1   Ba    Ba6+2 0.154720 0.543770 0.458160 1.771651
Ba2   Ba    Ba6+2 0.655440 0.456220 0.541760 1.764706
C1    C     C_3   0.539598 0.814468 0.166394 0.389033
C2    C     C_R   0.892682 0.796566 0.523627 0.077642
C3    C     C_R   0.079670 0.233438 0.519680 -0.334197
C4    C     C_3   0.008176 0.760314 0.225642 0.457309
C5    C     C_R   0.172020 0.176396 0.562805 -0.062193
C6    C     C_R   0.095931 0.089633 0.570306 0.367661
C7    C     C_R   0.943322 0.050514 0.513568 0.003142
C8    C     C_R   0.855169 0.111203 0.468260 -0.129330
C9    C     C_R   0.870315 0.955936 0.503329 0.021857
C10   C     C_R   0.698745 0.929962 0.467032 -0.063185
C11   C     C_R   0.613600 0.998559 0.433688 0.493483
C12   C     C_3   0.513038 0.766711 0.245635 0.248019
C13   C     C_R   0.698796 0.079488 0.422614 0.049417
C14   C     C_R   0.963557 0.886548 0.525584 -0.036194
C15   C     C_R   0.728512 0.773860 0.485587 -0.257868
C16   C     C_3   0.062291 0.815922 0.157247 -0.222042
C17   C     C_R   0.919677 0.204578 0.474635 0.023100
C18   C     C_R   0.247203 0.441920 0.762800 -0.223635
C19   C     C_R   0.148482 0.415660 0.821283 0.007623
C20   C     C_R   0.213467 0.425550 0.913978 -0.122816
C21   C     C_R   0.377490 0.463169 0.950352 0.026235
C22   C     C_R   0.469381 0.495917 0.888693 -0.087321
C23   C     C_3   0.551890 0.744078 0.750373 0.539393
C24   C     C_R   0.403835 0.486753 0.795899 -0.002558
C25   C     C_R   0.612232 0.511282 0.086365 -0.099503
C26   C     C_R   0.673078 0.534648 0.178851 0.054046
C27   C     C_R   0.413694 0.477071 0.209646 0.010223
C28   C     C_3   0.654300 0.319584 0.265649 0.284984
C29   C     C_R   0.351333 0.455126 0.116019 -0.127085
C30   C     C_R   0.446765 0.476639 0.051700 0.019128
C31   C     C_R   0.570894 0.525543 0.239525 -0.097558
C32   C     C_3   0.529922 0.258234 0.192083 0.312109
C33   C     C_3   0.140042 0.668146 0.737268 0.535180
C34   C     C_3   0.586870 0.830707 0.820850 0.476910
C35   C     C_3   0.194033 0.697349 0.841431 0.161346
C36   C     C_3   0.185446 0.274328 0.332247 0.271074
C37   C     C_3   0.092931 0.182722 0.288657 -0.314597
C38   C     C_3   0.916629 0.232731 0.837622 0.547562
C39   C     C_3   0.911549 0.232984 0.936946 0.307168
C40   C     C_3   0.443957 0.280529 0.780155 0.328886
C41   C     C_3   0.491028 0.267015 0.877449 -0.224295
C42   C     C_R   0.628868 0.836302 0.459607 0.012516
H1    H     H_    0.470675 0.694798 0.219917 -0.064922
H2    H     H_    0.031078 0.148936 0.335334 0.056379
H3    H     H_    0.175797 0.139871 0.264490 0.160541
H4    H     H_    0.631490 0.774257 0.292083 -0.014644
H5    H     H_    0.455994 0.747340 0.692063 -0.000685
H6    H     H_    0.706390 0.869654 0.821734 0.133287
H7    H     H_    0.422241 0.810735 0.119685 0.016258
H8    H     H_    0.964242 0.851285 0.129391 0.190901
H9    H     H_    0.042998 0.247564 0.828785 -0.030553
H10   H     H_    0.787891 0.205808 0.942951 0.142624
H11   H     H_    0.940497 0.302378 0.972236 -0.021544
H12   H     H_    0.466614 0.203943 0.220881 0.067628
H13   H     H_    0.315309 0.288315 0.766896 -0.030311
H14   H     H_    0.523078 0.340938 0.771008 0.054991
H15   H     H_    0.396113 0.282676 0.914630 0.120250
H16   H     H_    0.604996 0.311999 0.910412 0.116566
H17   H     H_    0.112282 0.730383 0.256500 0.089316
H18   H     H_    0.506638 0.197155 0.881887 0.228016
H19   H     H_    0.675843 0.704459 0.475418 0.095559
H20   H     H_    0.093063 0.901932 0.545852 0.179231
H21   H     H_    0.134112 0.301693 0.520764 0.057807
H22   H     H_    0.635247 0.122236 0.383405 0.150134
H23   H     H_    0.442127 0.297096 0.159686 0.001908
H24   H     H_    0.696422 0.523013 0.043039 0.092086
H25   H     H_    0.131942 0.408126 0.956785 0.056660
H26   H     H_    0.229643 0.419449 0.095433 0.115391
H27   H     H_    0.587924 0.535017 0.911612 0.120522
H28   H     H_    0.198023 0.433584 0.691663 0.028770
H29   H     H_    0.170336 0.866020 0.187505 0.160397
H30   H     H_    0.092229 0.771659 0.101916 0.083739
H31   H     H_    0.590743 0.351957 0.314078 -0.008414
H32   H     H_    0.718975 0.373147 0.236930 -0.022426
H33   H     H_    0.833835 0.309322 0.114865 0.348734
H34   H     H_    0.247581 0.666061 0.708717 -0.072674
H35   H     H_    0.074579 0.545966 0.658210 0.130298
H36   H     H_    0.927030 0.581276 0.702214 0.284994
H37   H     H_    0.134336 0.767118 0.950958 0.157767
H38   H     H_    0.101253 0.815155 0.858770 0.290216
H39   H     H_    0.273631 0.642982 0.953909 0.195771
H40   H     H_    0.092618 0.592668 0.894798 0.222388
H41   H     H_    0.843070 0.992275 0.156544 0.369232
H42   H     H_    0.743638 0.859018 0.650568 0.314588
H43   H     H_    0.609656 0.962439 0.698122 0.391759
H44   H     H_    0.382209 0.859462 0.964737 0.319674
H45   H     H_    0.313394 0.737421 0.852409 0.102920
H46   H     H_    0.814980 0.186541 0.655528 0.329344
H47   H     H_    0.199422 0.186026 0.123140 0.367238
H48   H     H_    0.254294 0.103078 0.415257 0.317637
H49   H     H_    0.255281 0.113340 0.806298 0.416766
H50   H     H_    0.048247 0.866871 0.327378 0.236727
H51   H     H_    0.925359 0.778474 0.342577 0.150005
H52   H     H_    0.664080 0.635502 0.327815 0.106156
H53   H     H_    0.543302 0.572051 0.366537 0.222365
H54   H     H_    0.098660 0.315823 0.353524 0.046842
H55   H     H_    0.277459 0.267985 0.391453 0.046603
H56   H     H_    0.619874 0.779465 0.130404 0.084565
H57   H     H_    0.001035 0.190410 0.230723 0.217232
N1    N     N_3   0.048239 0.578161 0.716533 -0.490033
N2    N     N_3   0.092019 0.753588 0.881564 -0.380454
N3    N     N_3   0.208022 0.620648 0.888569 -0.502718
N4    N     N_3   0.954230 0.816634 0.294274 -0.449502
N5    N     N_3   0.631752 0.567956 0.330527 -0.456544
O1    O     O_2   0.174040 0.723040 0.553850 -0.480646
O2    O     O_2   0.849537 0.462926 0.816512 -0.475583
O3    O     O_3   0.817818 0.293032 0.805078 -0.647408
O4    O     O_3   0.901550 0.609570 0.550800 -0.479398
O5    O     O_3   0.408230 0.452130 0.390190 -0.500353
O6    O     O_2   0.675480 0.547140 0.721810 -0.379273
O7    O     O_3   0.513600 0.668124 0.790315 -0.626611
O8    O     O_2   0.510883 0.180171 0.561022 -0.379855
O9    O     O_3   0.464468 0.206776 0.722387 -0.473911
O10   O     O_3   0.370320 0.665070 0.388210 -0.512244
O11   O     O_2   0.279013 0.814071 0.433736 -0.402444
O12   O     O_3   0.262611 0.309547 0.268568 -0.637732
O13   O     O_3   0.055368 0.731220 0.698089 -0.491720
O14   O     O_3   0.393878 0.800460 0.286010 -0.581130
O15   O     O_2   0.134800 0.452800 0.278160 -0.455381
O16   O     O_3   0.937630 0.618610 0.340820 -0.493031
O17   O     O_2   0.009882 0.553569 0.180723 -0.491803
O18   O     O_2   0.731418 0.149386 0.143260 -0.211891
O19   O     O_2   0.494587 0.159188 0.031828 -0.186972
O20   O     O_3   0.728205 0.295902 0.072370 -0.600496
O21   O     O_2   0.507577 0.986673 0.210956 -0.203523
O22   O     O_2   0.752607 0.938835 0.286900 -0.403067
O23   O     O_3   0.877285 0.696074 0.179352 -0.611219
O24   O     O_3   0.733775 0.963998 0.123050 -0.338437
O25   O     O_2   0.827260 0.700504 0.779641 -0.273110
O26   O     O_2   0.680021 0.675643 0.622797 -0.377846
O27   O     O_3   0.819735 0.838054 0.696710 -0.505606
O28   O     O_2   0.285066 0.866852 0.767701 -0.282260
O29   O     O_2   0.490407 0.990364 0.848310 -0.136785
O30   O     O_3   0.505532 0.921694 0.683747 -0.497596
O31   O     O_2   0.562614 0.728713 0.957047 -0.355279
O32   O     O_2   0.781603 0.853291 0.981222 -0.218940
O33   O     O_3   0.495277 0.889346 0.985029 -0.384692
O34   O     O_2   0.636250 0.276900 0.446120 -0.468511
O35   O     O_2   0.912682 0.053374 0.809424 -0.142369
O36   O     O_2   0.657147 0.108301 0.788294 -0.224869
O37   O     O_3   0.824911 0.125044 0.666638 -0.501324
O38   O     O_2   0.952406 0.080978 0.003165 -0.160622
O39   O     O_2   0.177822 0.153454 0.945397 -0.265526
O40   O     O_3   0.127570 0.225314 0.096158 -0.544561
O41   O     O_2   0.311735 0.945058 0.333390 -0.288299
O42   O     O_2   0.342850 0.976012 0.497694 -0.287945
O43   O     O_3   0.365700 0.104823 0.405566 -0.548871
O44   O     O_2   0.066546 0.971316 0.691097 -0.180452
O45   O     O_3   0.908740 0.390420 0.449120 -0.498132
O46   O     O_2   0.332947 0.033722 0.667786 -0.161659
O47   O     O_3   0.182551 0.132524 0.756987 -0.518341
O48   O     O_3   0.439970 0.334920 0.611710 -0.530288
O49   O     O_3   0.766360 0.268978 0.303033 -0.625859
O50   O     O_3   0.402050 0.547860 0.609740 -0.475025
O51   O     O_3   0.872650 0.381380 0.659100 -0.473488
P1    P     P_3+3 0.004160 0.709210 0.580280 1.163687
P2    P     P_3+3 0.305010 0.425580 0.290930 0.979597
P3    P     P_3+3 0.879875 0.595460 0.221969 0.969146
P4    P     P_3+3 0.806120 0.290780 0.419650 0.980715
P5    P     P_3+3 0.927455 0.386340 0.776281 0.926069
P6    P     P_3+3 0.420861 0.780629 0.397535 1.066275
P7    P     P_3+3 0.496011 0.561334 0.725962 1.076781
P8    P     P_3+3 0.392319 0.221610 0.612069 1.123020
S1    S     S_3+6 0.622356 0.211241 0.107453 -0.016057
S2    S     S_3+6 0.633562 0.928941 0.200123 0.003658
S3    S     S_3+6 0.724898 0.738382 0.709230 -0.099821
S4    S     S_3+6 0.459593 0.905525 0.783119 0.005681
S5    S     S_3+6 0.607045 0.821900 0.938314 -0.006924
S6    S     S_3+6 0.826969 0.125854 0.776110 0.040122
S7    S     S_3+6 0.045254 0.168998 0.994186 -0.001874
S8    S     S_3+6 0.403774 0.002149 0.417571 -0.058491
S9    S     S_3+6 0.167614 0.051581 0.671592 0.040408

loop_
_geom_bond_atom_site_label_1
_geom_bond_atom_site_label_2
_ccdc_geom_bond_type
C22   H27   S    
H50   N4    S    
C32   H12   S    
O40   S7    S    
O32   S5    D    
O10   P6    S    
C33   O13   S    
O35   S6    D    
C36   H54   S    
C33   N1    S    
C40   H14   S    
C1    S2    S    
C5    C6    A    
C27   P2    S    
O11   P6    D    
C11   S8    S    
Ba2   O6    S    
C34   S4    S    
C4    H17   S    
Ba1   P1    S    
C33   C35   S    
C22   C24   A    
O3    P5    S    
O13   P1    S    
C36   C37   S    
H41   O24   S    
C6    S9    S    
O17   P3    D    
C27   C31   A    
C26   P3    S    
Ba2   P4    S    
O33   S5    S    
Ba1   Ba2   S    
C17   P4    S    
O5    P2    S    
Ba1   O16   S    
C39   H11   S    
C25   H24   S    
H51   N4    S    
O14   P6    S    
C1    H56   S    
C29   H26   S    
C2    P1    S    
C6    C7    A    
O45   P4    S    
O28   S4    D    
O22   S2    D    
H38   N2    S    
O48   P8    S    
C42   P6    S    
O30   S4    S    
O9    P8    S    
C7    C8    A    
C20   H25   S    
H46   O37   S    
O4    P1    S    
C41   H15   S    
O46   S9    D    
O29   S4    D    
C5    P8    S    
O39   S7    D    
C16   H30   S    
C19   C20   A    
O12   P2    S    
C4    O23   S    
O6    P7    D    
O24   S2    S    
C40   H13   S    
C37   H57   S    
C12   H1    S    
C23   H5    S    
C23   S3    S    
C4    C16   S    
C39   S7    S    
Ba2   O5    S    
H39   N3    S    
C28   C32   S    
C16   H8    S    
Ba1   P2    S    
C3    H21   S    
O27   S3    S    
C3    C5    A    
C1    H7    S    
C12   H4    S    
O34   P4    D    
C13   H22   S    
O2    P5    D    
O47   S9    S    
O49   P4    S    
H36   N1    S    
C2    C14   A    
Ba1   O50   S    
H44   O33   S    
C23   O7    S    
Ba1   O4    S    
C28   H32   S    
C9    C14   A    
H42   O27   S    
C29   C30   A    
C8    C17   A    
C21   C22   A    
H35   N1    S    
C18   C19   A    
C7    C9    A    
O31   S5    D    
C1    C12   S    
C41   H16   S    
Ba1   O1    S    
C37   H2    S    
O18   S1    D    
C2    C15   A    
O23   P3    S    
O21   S2    D    
C28   O49   S    
Ba1   O10   S    
O25   S3    D    
C16   H29   S    
C12   O14   S    
C11   C13   A    
H40   N3    S    
C40   C41   S    
H53   N5    S    
H48   O43   S    
O1    P1    D    
C34   H6    S    
O8    P8    D    
C37   H3    S    
H37   N2    S    
Ba2   O45   S    
H52   N5    S    
Ba2   O4    S    
Ba2   O50   S    
C19   P5    S    
O44   S9    D    
C25   C30   A    
H43   O30   S    
C31   N5    S    
O26   S3    D    
C36   H55   S    
O20   S1    S    
C32   H23   S    
C26   C31   A    
C35   N3    S    
C35   N2    S    
C9    C10   A    
O41   S8    D    
C38   O3    S    
C3    C17   A    
O38   S7    D    
C33   H34   S    
C34   S5    S    
O42   S8    D    
C35   H45   S    
C8    C13   A    
Ba2   O34   S    
C21   C30   S    
H49   O47   S    
O19   S1    D    
C15   C42   A    
O37   S6    S    
C10   C42   A    
C15   H19   S    
O7    P7    S    
C28   H31   S    
Ba2   O48   S    
C18   C24   A    
Ba2   O51   S    
C24   P7    S    
C4    N4    S    
Ba1   O45   S    
O43   S8    S    
C38   S6    S    
Ba1   O15   S    
C39   H10   S    
C23   C34   S    
C36   O12   S    
C40   O9    S    
C10   C11   A    
O50   P7    S    
C27   C29   A    
C38   H9    S    
O15   P2    D    
C25   C26   A    
O16   P3    S    
C20   C21   A    
C18   H28   S    
C38   C39   S    
C14   H20   S    
C32   S1    S    
O51   P5    S    
H47   O40   S    
Ba1   O5    S    
H33   O20   S    
C41   H18   S    
O36   S6    D    
