data_mof_unit_40489.cif
_audit_creation_date              2012-12-10T17:46:02-0500
_audit_creation_method            fapswitch 2.2
_symmetry_space_group_name_H-M    P1
_symmetry_Int_Tables_number       1
_space_group_crystal_system       triclinic
_cell_length_a                    15.072156
_cell_length_b                    13.709681
_cell_length_c                    27.741802
_cell_angle_alpha                 89.962999
_cell_angle_beta                  90.473945
_cell_angle_gamma                 89.728761
_cell_volume                      5732.15032508

loop_
_atom_site_label
_atom_site_type_symbol
_atom_type_description
_atom_site_fract_x
_atom_site_fract_y
_atom_site_fract_z
_atom_type_partial_charge
C1    C     C_R   0.328776 0.499985 0.502114 0.856065
C2    C     C_R   0.671069 0.499896 0.498112 0.846887
C3    C     C_R   0.514059 0.444258 0.103349 -0.085655
C4    C     C_R   0.512747 0.474416 0.899389 -0.086256
C5    C     C_R   0.439616 0.408423 0.128300 -0.155522
C6    C     C_R   0.581617 0.524848 0.875261 -0.146563
C7    C     C_R   0.364258 0.377362 0.101466 0.380538
C8    C     C_R   0.649442 0.569786 0.903448 0.386152
C9    C     C_R   0.590137 0.471312 0.129837 -0.020023
C10   C     C_R   0.442298 0.433552 0.872430 -0.017573
C11   C     C_R   0.494679 0.500747 0.354469 -0.322044
C12   C     C_R   0.508138 0.498659 0.645973 -0.321868
C13   C     C_R   0.442452 0.417298 0.974222 0.078206
C14   C     C_R   0.589973 0.485835 0.028129 0.076531
C15   C     C_R   0.586263 0.500934 0.977456 -0.011851
C16   C     C_R   0.440709 0.414474 0.025536 -0.009873
C17   C     C_R   0.513812 0.464377 0.950483 0.088156
C18   C     C_R   0.514742 0.448292 0.052187 0.088781
C19   C     C_R   0.374951 0.374831 0.945619 -0.176172
C20   C     C_R   0.667025 0.506064 0.055721 -0.179293
C21   C     C_R   0.374828 0.383331 0.895873 -0.101421
C22   C     C_R   0.667069 0.498395 0.105626 -0.088761
C23   C     C_R   0.498700 0.500030 0.407481 0.980318
C24   C     C_R   0.503084 0.499742 0.592655 0.951457
C25   C     C_R   0.366420 0.380459 0.051128 -0.260115
C26   C     C_R   0.651269 0.555348 0.953312 -0.262733
C27   C     C_R   0.814595 0.432757 0.467149 0.436958
C28   C     C_R   0.185047 0.566745 0.534087 0.391320
C29   C     C_R   0.767538 0.499947 0.496097 -0.170275
C30   C     C_R   0.232045 0.498890 0.505426 -0.203487
C31   C     C_R   0.812542 0.566898 0.524928 -0.168611
C32   C     C_R   0.186579 0.428232 0.479023 -0.092596
C33   C     C_R   0.904525 0.566675 0.527049 0.084761
C34   C     C_R   0.094624 0.427872 0.477256 0.068556
C35   C     C_R   0.952968 0.497437 0.500457 -0.057782
C36   C     C_R   0.046274 0.497885 0.503355 -0.060687
C37   C     C_R   0.908153 0.428432 0.470786 0.045403
C38   C     C_R   0.091180 0.567766 0.532463 0.045638
C39   C     C_R   0.948070 0.634336 0.556273 -0.271589
C40   C     C_R   0.051010 0.358661 0.448922 -0.254118
C41   C     C_R   0.040882 0.635785 0.559531 0.473950
C42   C     C_R   0.958234 0.358048 0.445148 0.472074
C43   C     C_R   0.434159 0.793550 0.522847 0.143395
C44   C     C_R   0.567353 0.206578 0.478490 0.168638
C45   C     C_R   0.565698 0.792781 0.477095 0.137447
C46   C     C_R   0.432768 0.207277 0.521473 0.166450
C47   C     C_R   0.444664 0.406117 0.179271 0.604502
C48   C     C_R   0.578743 0.527463 0.824071 0.664959
C49   C     C_R   0.567282 0.896199 0.475561 -0.143082
C50   C     C_R   0.428750 0.104066 0.520606 -0.102149
C51   C     C_R   0.432475 0.897069 0.524269 -0.106939
C52   C     C_R   0.571261 0.103187 0.479127 -0.141944
C53   C     C_R   0.499913 0.948402 0.499899 -0.003920
C54   C     C_R   0.499977 0.051769 0.499871 -0.005190
C55   C     C_R   0.635197 0.948195 0.451406 0.317390
C56   C     C_R   0.356511 0.052509 0.540651 0.239864
C57   C     C_R   0.364444 0.950173 0.548224 0.216185
C58   C     C_R   0.643263 0.050514 0.458854 0.304936
C59   C     C_R   0.587027 0.471863 0.180341 0.672619
C60   C     C_R   0.441107 0.442357 0.822223 0.623451
C61   C     C_R   0.556835 0.553895 0.278006 0.343045
C62   C     C_R   0.455476 0.562754 0.722973 0.349898
C63   C     C_R   0.561953 0.548635 0.328915 0.266409
C64   C     C_R   0.451724 0.561194 0.672018 0.252144
C65   C     C_R   0.418317 0.467792 0.329584 0.306098
C66   C     C_R   0.565502 0.433141 0.670860 0.261546
C67   C     C_R   0.415449 0.474700 0.279119 0.370979
C68   C     C_R   0.560645 0.425655 0.721276 0.331319
C69   C     C_R   0.494637 0.493861 0.253424 -0.051887
C70   C     C_R   0.507672 0.492367 0.747438 0.011526
Cu1   Cu    Cu3+1 0.500000 0.597420 0.500000 1.040200
Cu2   Cu    Cu3+1 0.500000 0.402580 0.500000 1.065202
H1    H     H_    0.775353 0.618448 0.546632 0.178538
H2    H     H_    0.223262 0.374630 0.458437 0.232530
H3    H     H_    0.909480 0.686504 0.576803 0.163403
H4    H     H_    0.089533 0.305080 0.429243 0.178136
H5    H     H_    0.381953 0.751392 0.538849 0.206823
H6    H     H_    0.616867 0.248606 0.459980 0.188745
H7    H     H_    0.617799 0.749999 0.461047 0.201648
H8    H     H_    0.383415 0.249773 0.540112 0.184039
H9    H     H_    0.321201 0.349677 0.875749 0.203960
H10   H     H_    0.727150 0.516695 0.125266 0.206400
H11   H     H_    0.321791 0.332254 0.960329 0.162396
H12   H     H_    0.729235 0.526012 0.039614 0.164432
H13   H     H_    0.306886 0.358992 0.032589 0.184284
H14   H     H_    0.702690 0.591770 0.973334 0.185479
N1    N     N_R   0.507559 0.460313 0.203411 -0.434702
N2    N     N_R   0.508407 0.488755 0.799276 -0.446554
N3    N     N_R   0.500000 0.743810 0.500000 -0.235835
N4    N     N_R   0.500000 0.256190 0.500000 -0.221371
O1    O     O_R   0.370260 0.582280 0.500010 -0.582707
O2    O     O_R   0.629740 0.417720 0.499990 -0.553011
O3    O     O_R   0.629740 0.582280 0.499990 -0.604931
O4    O     O_R   0.370260 0.417720 0.500010 -0.576610
O5    O     O_R   0.500020 0.582260 0.430260 -0.536863
O6    O     O_R   0.499980 0.417740 0.569740 -0.556587
O7    O     O_R   0.499980 0.582260 0.569740 -0.549461
O8    O     O_R   0.500020 0.417740 0.430260 -0.576261
O9    O     O_2   0.393738 0.343484 0.203930 -0.379803
O10   O     O_2   0.645565 0.566159 0.798649 -0.416499
O11   O     O_2   0.373759 0.403725 0.796265 -0.484146
O12   O     O_2   0.663165 0.479678 0.205773 -0.476739
S1    S     S_3+6 0.322686 0.428992 0.361304 0.058929
O13   O     O_2   0.346771 0.344784 0.393590 -0.258478
O14   O     O_2   0.290284 0.512382 0.391685 -0.348941
O15   O     O_3   0.240468 0.392522 0.324111 -0.401891
H15   H     H_    0.197693 0.447574 0.322922 0.386165
S2    S     S_3+6 0.645926 0.361547 0.639819 0.110690
O16   O     O_2   0.601388 0.273643 0.618393 -0.202359
O17   O     O_2   0.686457 0.420394 0.600084 -0.323794
O18   O     O_3   0.728072 0.323355 0.676775 -0.389582
H16   H     H_    0.760924 0.383278 0.685565 0.371310
O19   O     O_3   0.082717 0.702891 0.589011 -0.582828
H17   H     H_    0.037767 0.744555 0.604995 0.351156
O20   O     O_3   0.916117 0.288732 0.417060 -0.600304
H18   H     H_    0.960918 0.245192 0.402192 0.333762
S3    S     S_3+6 0.702301 0.887026 0.407920 0.068622
O21   O     O_2   0.776389 0.833983 0.433550 -0.256155
O22   O     O_2   0.647031 0.814442 0.380547 -0.249390
O23   O     O_3   0.744822 0.965305 0.367648 -0.435185
H19   H     H_    0.784124 0.925021 0.347183 0.390248
S4    S     S_3+6 0.253225 0.114445 0.549733 0.061433
O24   O     O_2   0.256121 0.166459 0.597377 -0.218505
O25   O     O_2   0.238050 0.188610 0.510513 -0.322561
O26   O     O_3   0.166691 0.037513 0.548964 -0.385990
H20   H     H_    0.163575 0.012982 0.515414 0.359506
S5    S     S_3+6 0.296714 0.890783 0.591648 0.097574
O27   O     O_2   0.221414 0.841274 0.565897 -0.171141
O28   O     O_2   0.349936 0.815430 0.618736 -0.235604
O29   O     O_3   0.255401 0.969450 0.632250 -0.386452
H21   H     H_    0.307795 0.993287 0.650452 0.363834
S6    S     S_3+6 0.746597 0.110637 0.449480 0.100554
O30   O     O_2   0.743377 0.162315 0.401692 -0.196496
O31   O     O_2   0.762125 0.184095 0.488854 -0.240102
O32   O     O_3   0.832264 0.031617 0.450476 -0.434796
H22   H     H_    0.884842 0.071156 0.442222 0.386803
O33   O     O_3   0.333424 0.478277 0.256806 -0.589948
H23   H     H_    0.338448 0.519385 0.227529 0.351305
O34   O     O_3   0.608984 0.352662 0.744007 -0.621266
H24   H     H_    0.591907 0.347239 0.778224 0.339500
S7    S     S_3+6 0.262128 0.341966 0.128008 0.100568
O35   O     O_2   0.272552 0.242154 0.149809 -0.144918
O36   O     O_2   0.236172 0.412934 0.166738 -0.222231
O37   O     O_3   0.179964 0.337686 0.086626 -0.491920
H25   H     H_    0.166110 0.406774 0.079089 0.354745
S8    S     S_3+6 0.731337 0.649800 0.879961 0.104758
O38   O     O_2   0.796512 0.592145 0.850619 -0.162307
O39   O     O_2   0.688226 0.726106 0.848483 -0.196521
O40   O     O_3   0.787608 0.706321 0.924447 -0.491404
H26   H     H_    0.746081 0.756292 0.936967 0.357517
O41   O     O_3   0.392788 0.618972 0.646432 -0.650363
H27   H     H_    0.338351 0.627642 0.665692 0.396987
O42   O     O_3   0.629404 0.592849 0.354816 -0.660875
H28   H     H_    0.679041 0.607467 0.332886 0.390325
S9    S     S_3+6 0.395820 0.653588 0.755541 0.081219
O43   O     O_2   0.302819 0.618093 0.763278 -0.240600
O44   O     O_2   0.438267 0.674442 0.803607 -0.249626
O45   O     O_3   0.392368 0.757957 0.723628 -0.448186
H29   H     H_    0.348499 0.799680 0.740340 0.396039
S10   S     S_3+6 0.596749 0.661902 0.249871 0.067899
O46   O     O_2   0.695796 0.656797 0.244255 -0.231857
O47   O     O_2   0.553553 0.676855 0.201369 -0.273472
O48   O     O_3   0.571811 0.757677 0.285168 -0.453217
H30   H     H_    0.600669 0.814284 0.269709 0.397476
O49   O     O_3   0.771182 0.373300 0.434433 -0.601648
H31   H     H_    0.714734 0.404565 0.424229 0.315270
O50   O     O_3   0.228952 0.630594 0.564371 -0.602658
H32   H     H_    0.286349 0.601436 0.574284 0.340669

loop_
_geom_bond_atom_site_label_1
_geom_bond_atom_site_label_2
_ccdc_geom_bond_type
C66   C68   A    
O49   H31   S    
S9    O44   D    
C8    C26   A    
C14   C18   A    
C35   C36   A    
C70   N2    S    
C60   N2    A    
O32   H22   S    
C39   C41   A    
Cu2   O8    S    
C53   C54   A    
S2    O16   D    
C67   C69   A    
Cu1   O7    S    
C33   C39   A    
C6    C48   A    
C2    C29   S    
C34   C40   A    
C22   H10   S    
C35   C37   A    
O19   H17   S    
C11   C63   A    
S3    O22   D    
C32   H2    S    
C12   C64   A    
C49   C53   A    
C9    C22   A    
C31   H1    S    
Cu1   O5    S    
O15   H15   S    
O20   H18   S    
C47   O9    S    
C62   S9    S    
C62   C70   A    
C3    C18   A    
C37   C42   A    
C61   C63   A    
C62   C64   A    
S1    O13   D    
C28   O50   S    
S7    O35   D    
O18   H16   S    
S2    O17   D    
S6    O30   D    
C65   C67   A    
O41   H27   S    
C48   N2    A    
C51   C57   A    
C39   H3    S    
C45   N3    A    
C69   N1    S    
Cu2   O4    S    
C44   C52   A    
C40   C42   A    
C1    O1    A    
S3    O23   S    
S9    O45   S    
C19   H11   S    
C25   H13   S    
C52   C54   A    
S8    O39   D    
C10   C21   A    
C48   O10   S    
C13   C19   A    
C64   O41   S    
C24   O7    A    
C5    C47   A    
S10   O48   S    
C14   C20   A    
C63   O42   S    
C38   C41   A    
C4    C6    A    
S7    O37   S    
C66   S2    S    
O50   H32   S    
C5    C7    A    
C1    O4    A    
C15   C26   A    
C6    C8    A    
C49   C55   A    
C12   C66   A    
C50   C56   A    
C40   H4    S    
C9    C59   A    
C32   C34   A    
C10   C60   A    
C44   H6    S    
S5    O28   D    
C3    C9    A    
S8    O40   S    
Cu2   N4    S    
Cu1   N3    S    
C28   C38   A    
C26   H14   S    
C24   O6    A    
C31   C33   A    
C45   C49   A    
S1    O14   D    
C16   C18   A    
C50   C54   A    
C2    O2    A    
C45   H7    S    
C52   C58   A    
C27   O49   S    
C46   N4    A    
C4    C17   A    
C68   C70   A    
C21   H9    S    
C20   H12   S    
O26   H20   S    
C61   S10   S    
C56   C57   A    
C20   C22   A    
S4    O25   D    
C60   O11   S    
C7    S7    S    
C44   N4    A    
O23   H19   S    
S8    O38   D    
C55   S3    S    
C61   C69   A    
C16   C25   A    
C15   C17   A    
C46   C50   A    
C19   C21   A    
C59   O12   S    
C2    O3    A    
C8    S8    S    
C41   O19   S    
O37   H25   S    
C3    C5    A    
C56   S4    S    
C57   S5    S    
O34   H24   S    
S5    O27   D    
Cu1   O3    S    
C43   H5    S    
O33   H23   S    
C12   C24   S    
C7    C25   A    
S2    O18   S    
C13   C17   A    
S10   O46   D    
S4    O26   S    
S7    O36   D    
O29   H21   S    
C13   C16   A    
S5    O29   S    
C28   C30   A    
C29   C31   A    
S3    O21   D    
C36   C38   A    
C30   C32   A    
C43   C51   A    
O45   H29   S    
C27   C29   A    
C27   C37   A    
S6    O32   S    
Cu2   O2    S    
C11   C23   S    
C1    C30   S    
C33   C35   A    
C23   O5    A    
S1    O15   S    
C34   C36   A    
C43   N3    A    
C67   O33   S    
C59   N1    A    
O48   H30   S    
C58   S6    S    
Cu2   O6    S    
C42   O20   S    
Cu1   Cu2   S    
C23   O8    A    
Cu1   O1    S    
S6    O31   D    
C55   C58   A    
S9    O43   D    
S4    O24   D    
C65   S1    S    
C14   C15   A    
C68   O34   S    
C46   H8    S    
C51   C53   A    
O42   H28   S    
O40   H26   S    
C4    C10   A    
C11   C65   A    
S10   O47   D    
C47   N1    A    
