data_mof_unit_32182.cif
_audit_creation_date              2012-12-11T14:58:40-0500
_audit_creation_method            fapswitch 2.2
_symmetry_space_group_name_H-M    P1
_symmetry_Int_Tables_number       1
_space_group_crystal_system       triclinic
_cell_length_a                    11.069881
_cell_length_b                    11.212461
_cell_length_c                    18.784375
_cell_angle_alpha                 89.430885
_cell_angle_beta                  89.751331
_cell_angle_gamma                 59.228708
_cell_volume                      2003.18745738

loop_
_atom_site_label
_atom_site_type_symbol
_atom_type_description
_atom_site_fract_x
_atom_site_fract_y
_atom_site_fract_z
_atom_type_partial_charge
C1    C     C_R   0.352597 0.783162 0.400923 0.585682
C2    C     C_R   0.247497 0.438976 0.195718 -0.189496
C3    C     C_R   0.242945 0.431459 0.269218 -0.067061
C4    C     C_R   0.389683 0.356916 0.385236 0.560732
C5    C     C_R   0.874720 0.704943 0.389705 0.190887
C6    C     C_R   0.860432 0.628582 0.335274 -0.026042
C7    C     C_R   0.972502 0.549826 0.289164 0.233044
C8    C     C_R   0.105752 0.532562 0.304471 -0.004045
C9    C     C_R   0.373435 0.344546 0.306255 0.036021
C10   C     C_R   0.915446 0.304246 0.307829 0.197513
C11   C     C_R   0.955495 0.277291 0.237316 -0.110585
C12   C     C_R   0.619494 0.180283 0.140010 -0.032040
C13   C     C_R   0.857289 0.338812 0.182222 -0.010615
C14   C     C_R   0.718473 0.441218 0.197342 0.262229
C15   C     C_R   0.673869 0.457045 0.267729 0.067575
C16   C     C_R   0.719844 0.413439 0.395305 0.555985
C17   C     C_R   0.771223 0.388087 0.323013 -0.003004
C18   C     C_R   0.426697 0.882195 0.300575 0.171967
C19   C     C_R   0.416074 0.901094 0.225356 0.164176
C20   C     C_R   0.288344 0.938890 0.191117 0.028734
C21   C     C_R   0.171688 0.957499 0.232724 0.040726
C22   C     C_R   0.184398 0.942684 0.307358 0.118685
C23   C     C_R   0.359867 0.337390 0.157776 -0.012107
C24   C     C_R   0.319167 0.878180 0.337995 0.059049
C25   C     C_R   0.451079 0.316082 0.717871 -0.116438
C26   C     C_R   0.431140 0.310605 0.790190 0.060987
C27   C     C_R   0.303661 0.329108 0.814288 0.047920
C28   C     C_R   0.344086 0.764920 0.604835 0.612407
C29   C     C_R   0.193574 0.359582 0.766660 -0.183183
C30   C     C_R   0.213896 0.364986 0.693934 -0.175971
C31   C     C_R   0.344267 0.339359 0.669845 0.006791
C32   C     C_R   0.723218 0.472832 0.733073 0.183364
C33   C     C_R   0.740252 0.454351 0.806739 0.021284
C34   C     C_R   0.500165 0.261756 0.264285 0.062274
C35   C     C_R   0.823925 0.321088 0.834580 -0.036363
C36   C     C_R   0.876423 0.203381 0.789637 0.214347
C37   C     C_R   0.864827 0.220847 0.716181 0.211372
C38   C     C_R   0.787686 0.355991 0.687550 -0.025737
C39   C     C_R   0.242821 0.765291 0.722460 0.102403
C40   C     C_R   0.370983 0.350937 0.596094 0.552734
C41   C     C_R   0.241884 0.782330 0.795753 0.096930
C42   C     C_R   0.304304 0.852851 0.823648 0.070712
C43   C     C_R   0.375703 0.899808 0.778303 0.039145
C44   C     C_R   0.375149 0.883738 0.704897 0.070316
C45   C     C_R   0.492815 0.259215 0.188994 -0.024458
C46   C     C_R   0.314421 0.811917 0.677611 0.114516
C47   C     C_R   0.912231 0.315112 0.111272 0.523250
C48   C     C_R   0.328941 0.294918 0.090732 0.580092
C49   C     C_R   0.271274 0.960032 0.112418 0.613271
C50   C     C_R   0.884215 0.308000 0.904981 0.592376
C51   C     C_R   0.294479 0.289065 0.885917 0.597672
C52   C     C_R   0.756487 0.380646 0.611708 0.552407
C53   C     C_R   0.275409 0.897953 0.897262 0.626897
C54   C     C_R   0.812755 0.025262 0.030675 -0.159908
C55   C     C_R   0.717570 0.165798 0.021207 -0.046046
C56   C     C_R   0.096323 0.648187 0.335857 0.165531
C57   C     C_R   0.627658 0.245745 0.075621 0.228488
C58   C     C_R   0.989394 0.724463 0.386308 0.206284
C59   C     C_R   0.715859 0.033749 0.147743 0.298878
C60   C     C_R   0.815072 0.959179 0.094609 0.309356
Cr1   Cr    Cr6+3 0.601770 0.606860 0.505860 1.080012
Cr2   Cr    Cr6+3 0.291380 0.601660 0.495070 1.041949
Cr3   Cr    Cr6+3 0.606880 0.291510 0.499120 1.057130
Cr4   Cr    Cr6+3 0.062440 0.063090 0.008210 1.015171
Cr5   Cr    Cr6+3 0.062880 0.375170 0.998920 1.051724
Cr6   Cr    Cr6+3 0.374700 0.061720 0.992470 1.091586
H1    H     H_    0.760790 0.636476 0.325625 0.186583
H2    H     H_    0.718452 0.151737 0.262545 0.215644
H3    H     H_    0.706033 0.740223 0.439314 0.387451
H4    H     H_    0.022366 0.450636 0.200918 0.337510
H5    H     H_    0.980252 0.280764 0.406741 0.347897
H6    H     H_    0.671972 0.516590 0.100019 0.373502
H7    H     H_    0.497027 0.640922 0.262744 0.270087
H8    H     H_    0.475754 0.507097 0.252090 0.229807
H9    H     H_    0.594240 0.893959 0.310604 0.355385
H10   H     H_    0.616628 0.788283 0.209188 0.381175
H11   H     H_    0.954917 0.066169 0.215500 0.209644
H12   H     H_    0.066408 0.218781 0.224843 0.136626
H13   H     H_    0.030576 0.896242 0.208622 0.286327
H14   H     H_    0.970948 0.781483 0.063360 0.314447
H15   H     H_    0.970490 0.044025 0.327872 0.240343
H16   H     H_    0.071805 0.018917 0.398122 0.259690
H17   H     H_    0.557837 0.367270 0.835262 0.237838
H18   H     H_    0.631297 0.193321 0.824627 0.228788
H19   H     H_    0.646630 0.671865 0.734517 0.315706
H20   H     H_    0.705507 0.637479 0.847213 0.236275
H21   H     H_    0.560953 0.620271 0.843517 0.241831
H22   H     H_    0.887522 0.063931 0.853506 0.320096
H23   H     H_    0.550061 0.302586 0.699180 0.146933
H24   H     H_    0.949465 0.128323 0.626869 0.322347
H25   H     H_    0.064618 0.760157 0.705240 0.257378
H26   H     H_    0.211598 0.602731 0.717730 0.229812
H27   H     H_    0.002481 0.780417 0.486305 0.245317
H28   H     H_    0.904298 0.914283 0.430336 0.258379
H29   H     H_    0.075013 0.766121 0.828816 0.252058
H30   H     H_    0.234681 0.617679 0.837266 0.228060
H31   H     H_    0.557799 0.898060 0.794730 0.210123
H32   H     H_    0.414510 0.057770 0.782046 0.245581
H33   H     H_    0.382414 0.047593 0.662533 0.232659
H34   H     H_    0.095228 0.371655 0.785455 0.140077
H35   H     H_    0.541866 0.899338 0.670616 0.249972
H36   H     H_    0.493556 0.435780 0.103602 0.357624
H37   H     H_    0.169404 0.699733 0.250074 0.215715
H38   H     H_    0.283448 0.625115 0.314661 0.251238
H39   H     H_    0.620424 0.008313 0.226531 0.351855
H40   H     H_    0.130164 0.386773 0.656894 0.137614
H41   H     H_    0.883358 0.967423 0.987599 0.108504
H42   H     H_    0.711318 0.214342 0.970360 0.167497
H43   H     H_    0.157384 0.518868 0.166792 0.183971
H44   H     H_    0.646686 0.256972 0.326219 0.253222
N1    N     N_3   0.635591 0.185187 0.298275 -0.570515
N2    N     N_3   0.451088 0.961480 0.806546 -0.575277
N3    N     N_3   0.436328 0.939731 0.657309 -0.597442
N4    N     N_3   0.179060 0.698782 0.305269 -0.544860
N5    N     N_3   0.528212 0.543115 0.283048 -0.651382
N6    N     N_3   0.045526 0.978823 0.198116 -0.566515
N7    N     N_3   0.065735 0.972499 0.351354 -0.532629
N8    N     N_3   0.540135 0.284685 0.839506 -0.616085
N9    N     N_3   0.668430 0.569211 0.854536 -0.587772
N10   N     N_3   0.171761 0.699587 0.693573 -0.572241
N11   N     N_3   0.997335 0.817940 0.434545 -0.509494
N12   N     N_3   0.180408 0.725500 0.842571 -0.595689
O1    O     O_R   0.748800 0.497470 0.428000 -0.543642
O2    O     O_R   0.417600 0.174890 0.067840 -0.502146
O3    O     O_R   0.375320 0.946260 0.070860 -0.426265
O4    O     O_R   0.476420 0.724060 0.429470 -0.473172
O5    O     O_R   0.160600 0.919630 0.926660 -0.469205
O6    O     O_R   0.933060 0.190520 0.936020 -0.528980
O7    O     O_R   0.908880 0.403460 0.925020 -0.481790
O8    O     O_R   0.179600 0.361450 0.918490 -0.515315
O9    O     O_R   0.391510 0.170860 0.907530 -0.475167
O10   O     O_R   0.351130 0.942530 0.922260 -0.477717
O11   O     O_3   0.166667 0.166667 0.999870 -0.317227
O12   O     O_R   0.300070 0.471040 0.567100 -0.487043
O13   O     O_R   0.264580 0.744340 0.416750 -0.470218
O14   O     O_R   0.309380 0.472470 0.418200 -0.517544
O15   O     O_R   0.501710 0.260430 0.414300 -0.469102
O16   O     O_R   0.728090 0.305600 0.428960 -0.528526
O17   O     O_R   0.738760 0.495930 0.588610 -0.448468
O18   O     O_R   0.467110 0.722640 0.578360 -0.444771
O19   O     O_R   0.254530 0.742800 0.577360 -0.496938
O20   O     O_3   0.772589 0.774223 0.440586 -0.687515
O21   O     O_3   0.937598 0.525537 0.223387 -0.669393
O22   O     O_3   0.020757 0.254025 0.358547 -0.719001
O23   O     O_R   0.491670 0.258900 0.574910 -0.500267
O24   O     O_3   0.625701 0.532423 0.146910 -0.682135
O25   O     O_3   0.543171 0.858540 0.338152 -0.703101
O26   O     O_3   0.533075 0.862390 0.183800 -0.636866
O27   O     O_3   0.907744 0.818969 0.105170 -0.630798
O28   O     O_3   0.639777 0.603855 0.704427 -0.671814
O29   O     O_3   0.946892 0.069316 0.815469 -0.636536
O30   O     O_3   0.930972 0.103220 0.674656 -0.645919
O31   O     O_3   0.540089 0.384853 0.059880 -0.684948
O32   O     O_3   0.714396 0.957374 0.205015 -0.643054
O33   O     O_R   0.718780 0.304180 0.577850 -0.507549
O34   O     O_3   0.500010 0.500010 0.500020 -0.302006
O35   O     O_R   0.186690 0.923650 0.086970 -0.479001
O36   O     O_R   0.957250 0.194250 0.084630 -0.520526
O37   O     O_R   0.934970 0.407490 0.085330 -0.481749
O38   O     O_R   0.203780 0.365190 0.067090 -0.512753

loop_
_geom_bond_atom_site_label_1
_geom_bond_atom_site_label_2
_ccdc_geom_bond_type
C25   C31   A    
C22   N7    S    
C2    H43   S    
C23   C45   A    
C27   C29   A    
H35   N3    S    
C41   C42   A    
C54   C55   A    
C35   C36   A    
C28   O18   A    
Cr5   O37   S    
C8    C56   A    
C7    O21   S    
Cr5   O8    S    
C7    C8    A    
C39   C41   A    
C54   C60   A    
C52   O33   A    
C48   O38   A    
C28   C46   S    
C26   C27   A    
C37   C38   A    
C5    C58   A    
C18   C24   A    
H17   N8    S    
C36   C37   A    
C11   H12   S    
C16   O1    A    
H27   N11   S    
Cr3   O34   S    
Cr5   O38   S    
C42   C53   S    
C30   C31   A    
C38   C52   S    
C10   C17   A    
C39   N10   S    
H15   N7    S    
C52   O17   A    
C31   C40   S    
C18   C19   A    
Cr2   O14   S    
H19   O28   S    
C53   O5    A    
C4    O15   A    
H44   N1    S    
C12   C59   A    
C51   O8    A    
C19   C20   A    
C44   C46   A    
C16   C17   S    
Cr4   O6    S    
Cr4   O35   S    
H20   N9    S    
C32   C38   A    
H11   N6    S    
C4    O14   A    
C41   N12   S    
C54   H41   S    
H39   O32   S    
C59   C60   A    
C21   C22   A    
C30   H40   S    
C34   N1    S    
Cr3   O15   S    
C49   O35   A    
C21   N6    S    
C59   O32   S    
C27   C51   S    
Cr6   O10   S    
H14   O27   S    
H32   N2    S    
H33   N3    S    
Cr2   O34   S    
H37   N4    S    
C1    O4    A    
H24   O30   S    
C3    C8    S    
C13   C47   S    
H31   N2    S    
C51   O9    A    
Cr1   O17   S    
C47   O37   A    
H9    O25   S    
H3    O20   S    
C57   O31   S    
H2    N1    S    
Cr2   O13   S    
C43   C44   A    
H21   N9    S    
C20   C49   S    
C3    C9    A    
C50   O7    A    
Cr6   O11   S    
Cr4   O5    S    
C35   C50   S    
H4    O21   S    
C36   O29   S    
C53   O10   A    
C10   O22   S    
Cr3   O16   S    
H36   O31   S    
Cr1   O4    S    
C34   C45   A    
C39   C46   A    
H38   N4    S    
C12   C57   A    
C40   O23   A    
H29   N12   S    
C6    H1    S    
C44   N3    S    
C18   O25   S    
C55   C57   A    
C9    C34   A    
H22   O29   S    
C22   C24   A    
C50   O6    A    
C42   C43   A    
Cr2   O19   S    
Cr1   O34   S    
C15   N5    S    
Cr6   O9    S    
C15   C17   A    
Cr4   O11   S    
C58   N11   S    
C23   C48   S    
C29   H34   S    
C14   C15   A    
C16   O16   A    
C26   N8    S    
C12   C45   S    
C48   O2    A    
Cr5   O7    S    
Cr1   O18   S    
C33   N9    S    
C6    C7    A    
C49   O3    A    
C14   O24   S    
C25   H23   S    
C19   O26   S    
H7    N5    S    
Cr6   O3    S    
H30   N12   S    
C55   H42   S    
Cr1   O1    S    
C32   C33   A    
Cr2   O12   S    
C2    C3    A    
C25   C26   A    
Cr3   O33   S    
C1    O13   A    
H13   N6    S    
C11   C13   A    
C5    O20   S    
C5    C6    A    
C40   O12   A    
H6    O24   S    
H8    N5    S    
C33   C35   A    
C56   C58   A    
Cr6   O2    S    
C60   O27   S    
H26   N10   S    
C10   C11   A    
C29   C30   A    
H28   N11   S    
C32   O28   S    
C20   C21   A    
H10   O26   S    
C1    C24   S    
H18   N8    S    
C43   N2    S    
Cr4   O36   S    
C2    C23   A    
C56   N4    S    
H25   N10   S    
C28   O19   A    
C37   O30   S    
H16   N7    S    
C4    C9    S    
C13   C14   A    
Cr3   O23   S    
Cr5   O11   S    
H5    O22   S    
C47   O36   A    
