data_mof_unit_61552.cif
_audit_creation_date              2013-03-05T16:18:35-0500
_audit_creation_method            fapswitch 2.2
_symmetry_space_group_name_H-M    P1
_symmetry_Int_Tables_number       1
_space_group_crystal_system       triclinic
_cell_length_a                    39.025688
_cell_length_b                    39.025689
_cell_length_c                    35.655059
_cell_angle_alpha                 89.955868
_cell_angle_beta                  89.955852
_cell_angle_gamma                 90.000132
_cell_volume                      54302.7781876

loop_
_atom_site_label
_atom_site_type_symbol
_atom_site_description
_atom_site_fract_x
_atom_site_fract_y
_atom_site_fract_z
_atom_type_partial_charge
O1    O     O_R   0.049860 0.471180 0.500040 -0.562418
O2    O     O_R   0.471180 0.950140 0.500040 -0.555147
O3    O     O_R   0.950140 0.528820 0.500040 -0.556458
O4    O     O_R   0.528820 0.049860 0.500040 -0.554886
O5    O     O_R   0.049860 0.528820 0.499960 -0.562920
O6    O     O_R   0.471180 0.049860 0.499960 -0.555157
O7    O     O_R   0.950140 0.471180 0.499960 -0.556046
O8    O     O_R   0.528820 0.950140 0.499960 -0.554873
O9    O     O_R   0.549860 0.971180 0.000040 -0.554875
O10   O     O_R   0.971180 0.450140 0.000040 -0.562919
O11   O     O_R   0.450140 0.028820 0.000040 -0.555158
O12   O     O_R   0.028820 0.549860 0.000040 -0.556044
O13   O     O_R   0.549860 0.028820 0.999960 -0.555147
O14   O     O_R   0.971180 0.549860 0.999960 -0.556455
O15   O     O_R   0.450140 0.971180 0.999960 -0.554885
O16   O     O_R   0.028820 0.450140 0.999960 -0.562417
C1    C     C_R   0.066099 0.500000 0.500001 0.937277
C2    C     C_R   0.500000 0.933854 0.499998 0.907626
C3    C     C_R   0.933854 0.500000 0.499998 0.905414
C4    C     C_R   0.500000 0.066145 0.500001 0.907643
C5    C     C_R   0.566146 0.000000 0.000001 0.907626
C6    C     C_R   1.000000 0.433901 0.999999 0.937278
C7    C     C_R   0.433854 0.000000 0.999998 0.907645
C8    C     C_R   1.000000 0.566146 0.000002 0.905403
O17   O     O_R   0.999950 0.471180 0.445680 -0.584480
O18   O     O_R   0.471180 0.000050 0.445680 -0.576436
O19   O     O_R   0.000050 0.528820 0.445680 -0.573308
O20   O     O_R   0.528820 0.999950 0.445680 -0.576336
O21   O     O_R   0.999950 0.528820 0.554320 -0.584918
O22   O     O_R   0.471180 0.999950 0.554320 -0.576419
O23   O     O_R   0.000050 0.471180 0.554320 -0.572942
O24   O     O_R   0.528820 0.000050 0.554320 -0.576354
O25   O     O_R   0.499950 0.971180 0.945680 -0.576354
O26   O     O_R   0.971180 0.500050 0.945680 -0.584918
O27   O     O_R   0.500050 0.028820 0.945680 -0.576418
O28   O     O_R   0.028820 0.499950 0.945680 -0.572941
O29   O     O_R   0.499950 0.028820 0.054320 -0.576436
O30   O     O_R   0.971180 0.499950 0.054320 -0.573307
O31   O     O_R   0.500050 0.971180 0.054320 -0.576337
O32   O     O_R   0.028820 0.500050 0.054320 -0.584480
O33   O     O_R   0.499920 0.550060 0.468650 -0.579949
O34   O     O_R   0.550060 0.500080 0.468650 -0.583105
O35   O     O_R   0.500080 0.449940 0.468650 -0.586063
O36   O     O_R   0.449940 0.499920 0.468650 -0.579615
O37   O     O_R   0.499920 0.449940 0.531350 -0.579963
O38   O     O_R   0.550060 0.499920 0.531350 -0.583118
O39   O     O_R   0.500080 0.550060 0.531350 -0.586053
O40   O     O_R   0.449940 0.500080 0.531350 -0.579614
O41   O     O_R   0.999920 0.050060 0.968650 -0.579614
O42   O     O_R   0.050060 0.000080 0.968650 -0.579964
O43   O     O_R   0.000080 0.949940 0.968650 -0.583119
O44   O     O_R   0.949940 0.999920 0.968650 -0.586052
O45   O     O_R   0.999920 0.949940 0.031350 -0.583105
O46   O     O_R   0.050060 0.999920 0.031350 -0.586061
O47   O     O_R   0.000080 0.050060 0.031350 -0.579615
O48   O     O_R   0.949940 0.000080 0.031350 -0.579948
C9    C     C_R   0.999801 0.500016 0.427700 0.868437
C10   C     C_R   0.500011 0.999999 0.427699 0.849759
C11   C     C_R   0.999803 0.499987 0.572300 0.868308
C12   C     C_R   0.499989 0.000001 0.572300 0.849761
C13   C     C_R   0.499999 0.000011 0.927699 0.849760
C14   C     C_R   0.000012 0.500197 0.927700 0.868302
C15   C     C_R   0.500001 0.999989 0.072301 0.849760
C16   C     C_R   0.999984 0.500199 0.072300 0.868430
Cu1   Cu    Cu3+1 0.000000 0.465860 0.500000 1.089599
Cu2   Cu    Cu3+1 0.465860 0.000000 0.500000 1.094907
Cu3   Cu    Cu3+1 0.000000 0.534140 0.500000 1.087894
Cu4   Cu    Cu3+1 0.534140 0.000000 0.500000 1.095688
Cu5   Cu    Cu3+1 0.500000 0.965860 0.000000 1.095687
Cu6   Cu    Cu3+1 0.965860 0.500000 0.000000 1.087897
Cu7   Cu    Cu3+1 0.500000 0.034140 0.000000 1.094908
Cu8   Cu    Cu3+1 0.034140 0.500000 0.000000 1.089601
Cu9   Cu    Cu3+1 0.500000 0.500000 0.462790 1.006672
Cu10  Cu    Cu3+1 0.500000 0.500000 0.537210 1.006654
Cu11  Cu    Cu3+1 0.000000 0.000000 0.962790 1.006653
Cu12  Cu    Cu3+1 0.000000 0.000000 0.037210 1.006673
C17   C     C_R   0.030876 0.499257 0.173089 -0.126688
C18   C     C_R   0.498844 0.968940 0.173081 -0.130923
C19   C     C_R   0.968863 0.501337 0.173049 -0.130500
C20   C     C_R   0.501259 0.030941 0.173056 -0.131356
C21   C     C_R   0.031035 0.501186 0.826902 -0.128516
C22   C     C_R   0.498743 0.031059 0.826922 -0.131043
C23   C     C_R   0.969022 0.499125 0.826959 -0.128641
C24   C     C_R   0.501158 0.969059 0.826941 -0.131241
C25   C     C_R   0.530941 0.998842 0.673059 -0.131241
C26   C     C_R   0.998814 0.468965 0.673098 -0.128514
C27   C     C_R   0.468941 0.001257 0.673077 -0.131043
C28   C     C_R   0.000875 0.530978 0.673041 -0.128641
C29   C     C_R   0.531060 0.001156 0.326919 -0.130923
C30   C     C_R   0.998663 0.531137 0.326951 -0.130499
C31   C     C_R   0.469059 0.998741 0.326944 -0.131357
C32   C     C_R   0.000743 0.469124 0.326911 -0.126688
H1    H     H_    0.055007 0.498430 0.188069 0.154171
H2    H     H_    0.497901 0.944789 0.188055 0.153634
H3    H     H_    0.944694 0.502149 0.187998 0.153484
H4    H     H_    0.502216 0.055081 0.188011 0.153325
H5    H     H_    0.055186 0.501970 0.811914 0.155014
H6    H     H_    0.497786 0.055211 0.811951 0.153543
H7    H     H_    0.944871 0.498286 0.812018 0.152609
H8    H     H_    0.502102 0.944919 0.811983 0.153414
H9    H     H_    0.555081 0.997898 0.688016 0.153414
H10   H     H_    0.998030 0.444814 0.688086 0.155014
H11   H     H_    0.444789 0.002214 0.688049 0.153543
H12   H     H_    0.001714 0.555129 0.687982 0.152609
H13   H     H_    0.555211 0.002099 0.311945 0.153634
H14   H     H_    0.997851 0.555306 0.312002 0.153484
H15   H     H_    0.444919 0.997784 0.311989 0.153325
H16   H     H_    0.001570 0.444993 0.311931 0.154171
C33   C     C_R   0.030961 0.499267 0.133877 -0.127962
C34   C     C_R   0.498828 0.968920 0.133868 -0.128616
C35   C     C_R   0.968874 0.501334 0.133838 -0.120208
C36   C     C_R   0.501230 0.030995 0.133845 -0.128487
C37   C     C_R   0.031072 0.501246 0.866116 -0.120537
C38   C     C_R   0.498772 0.031080 0.866135 -0.128452
C39   C     C_R   0.968985 0.499198 0.866167 -0.127642
C40   C     C_R   0.501174 0.969005 0.866151 -0.128651
C41   C     C_R   0.530995 0.998826 0.633849 -0.128651
C42   C     C_R   0.998754 0.468928 0.633884 -0.120535
C43   C     C_R   0.468920 0.001228 0.633865 -0.128453
C44   C     C_R   0.000802 0.531015 0.633833 -0.127641
C45   C     C_R   0.531080 0.001171 0.366131 -0.128616
C46   C     C_R   0.998666 0.531125 0.366161 -0.120206
C47   C     C_R   0.469005 0.998770 0.366154 -0.128487
C48   C     C_R   0.000733 0.469039 0.366123 -0.127962
H17   H     H_    0.055302 0.498410 0.119313 0.171839
H18   H     H_    0.497838 0.944606 0.119298 0.176183
H19   H     H_    0.944567 0.502170 0.119244 0.174855
H20   H     H_    0.502205 0.055321 0.119258 0.176017
H21   H     H_    0.055395 0.502096 0.880677 0.175293
H22   H     H_    0.497797 0.055394 0.880708 0.176093
H23   H     H_    0.944658 0.498370 0.880764 0.171297
H24   H     H_    0.502164 0.944678 0.880736 0.176107
H25   H     H_    0.555321 0.997836 0.619263 0.176107
H26   H     H_    0.997904 0.444605 0.619323 0.175292
H27   H     H_    0.444606 0.002203 0.619292 0.176093
H28   H     H_    0.001630 0.555342 0.619235 0.171296
H29   H     H_    0.555394 0.002161 0.380702 0.176184
H30   H     H_    0.997830 0.555433 0.380756 0.174854
H31   H     H_    0.444679 0.997795 0.380742 0.176018
H32   H     H_    0.001590 0.444698 0.380687 0.171839
C49   C     C_R   0.999942 0.500292 0.113812 -0.010339
C50   C     C_R   0.500018 0.999966 0.113811 -0.022203
C51   C     C_R   0.000027 0.500246 0.886187 -0.010214
C52   C     C_R   0.499984 0.000034 0.886189 -0.022203
C53   C     C_R   0.499966 0.000016 0.613811 -0.022203
C54   C     C_R   0.999754 0.499973 0.613813 -0.010210
C55   C     C_R   0.500034 0.999982 0.386189 -0.022203
C56   C     C_R   0.999708 0.500058 0.386188 -0.010336
C57   C     C_R   0.999845 0.500288 0.192743 0.122067
C58   C     C_R   0.500063 0.999933 0.192742 0.122667
C59   C     C_R   0.000028 0.500114 0.807257 0.122086
C60   C     C_R   0.499939 0.000066 0.807257 0.122668
C61   C     C_R   0.499934 0.000061 0.692742 0.122668
C62   C     C_R   0.999886 0.499973 0.692743 0.122086
C63   C     C_R   0.500067 0.999937 0.307258 0.122667
C64   C     C_R   0.999712 0.500155 0.307257 0.122067
C65   C     C_1   0.999793 0.500248 0.233096 -0.021377
C66   C     C_1   0.500076 0.999922 0.233096 -0.023913
C67   C     C_1   0.000011 0.500037 0.766904 -0.021381
C68   C     C_1   0.499925 0.000078 0.766904 -0.023915
C69   C     C_1   0.499922 0.000075 0.733096 -0.023915
C70   C     C_1   0.999964 0.499989 0.733096 -0.021381
C71   C     C_1   0.500078 0.999924 0.266904 -0.023913
C72   C     C_1   0.999752 0.500207 0.266904 -0.021376
C73   C     C_R   0.377668 0.513140 0.530827 -0.154096
C74   C     C_R   0.506568 0.622452 0.466698 -0.149658
C75   C     C_R   0.622450 0.493485 0.466692 -0.152614
C76   C     C_R   0.493440 0.377568 0.466795 -0.158290
C77   C     C_R   0.377696 0.486831 0.469256 -0.154064
C78   C     C_R   0.506552 0.377548 0.533294 -0.149661
C79   C     C_R   0.622435 0.506520 0.533210 -0.152611
C80   C     C_R   0.493424 0.622432 0.533212 -0.158297
C81   C     C_R   0.877568 0.006575 0.966788 -0.158296
C82   C     C_R   0.013169 0.122304 0.030744 -0.154064
C83   C     C_R   0.122452 0.993447 0.966706 -0.149661
C84   C     C_R   0.993485 0.877565 0.966789 -0.152611
C85   C     C_R   0.877548 0.993432 0.033302 -0.149659
C86   C     C_R   0.006510 0.877550 0.033309 -0.152613
C87   C     C_R   0.122432 0.006560 0.033204 -0.158290
C88   C     C_R   0.986860 0.122332 0.969173 -0.154097
H33   H     H_    0.391117 0.523610 0.554780 0.161015
H34   H     H_    0.511817 0.609091 0.440714 0.164731
H35   H     H_    0.609089 0.488278 0.440707 0.163938
H36   H     H_    0.488201 0.390942 0.440803 0.162111
H37   H     H_    0.391166 0.476361 0.445295 0.160993
H38   H     H_    0.511789 0.390908 0.559273 0.164708
H39   H     H_    0.609062 0.511727 0.559211 0.163901
H40   H     H_    0.488172 0.609057 0.559210 0.162129
H41   H     H_    0.890943 0.011827 0.940790 0.162129
H42   H     H_    0.023639 0.108834 0.054705 0.160993
H43   H     H_    0.109092 0.988210 0.940727 0.164707
H44   H     H_    0.988282 0.890938 0.940787 0.163902
H45   H     H_    0.890909 0.988183 0.059286 0.164731
H46   H     H_    0.011713 0.890911 0.059295 0.163939
H47   H     H_    0.109058 0.011800 0.059196 0.162111
H48   H     H_    0.976390 0.108883 0.945220 0.161015
C89   C     C_R   0.341900 0.513495 0.530645 -0.043624
C90   C     C_R   0.506741 0.658206 0.466745 -0.045627
C91   C     C_R   0.658204 0.493315 0.466736 -0.046310
C92   C     C_R   0.493275 0.341815 0.466874 -0.048192
C93   C     C_R   0.341929 0.486479 0.469455 -0.043691
C94   C     C_R   0.506725 0.341794 0.533247 -0.045646
C95   C     C_R   0.658187 0.506688 0.533128 -0.046616
C96   C     C_R   0.493258 0.658185 0.533133 -0.048186
C97   C     C_R   0.841815 0.006741 0.966867 -0.048186
C98   C     C_R   0.013521 0.158071 0.030545 -0.043691
C99   C     C_R   0.158206 0.993275 0.966753 -0.045646
C100  C     C_R   0.993317 0.841813 0.966871 -0.046616
C101  C     C_R   0.841794 0.993259 0.033255 -0.045627
C102  C     C_R   0.006680 0.841796 0.033265 -0.046312
C103  C     C_R   0.158185 0.006726 0.033126 -0.048192
C104  C     C_R   0.986505 0.158100 0.969355 -0.043623
H49   H     H_    0.328296 0.524211 0.554388 0.152775
H50   H     H_    0.511968 0.671917 0.440940 0.146892
H51   H     H_    0.671913 0.488131 0.440928 0.146497
H52   H     H_    0.488063 0.328121 0.441087 0.145487
H53   H     H_    0.328348 0.475766 0.445717 0.152712
H54   H     H_    0.511939 0.328083 0.559047 0.146858
H55   H     H_    0.671883 0.511871 0.558921 0.146333
H56   H     H_    0.488033 0.671879 0.558926 0.145515
H57   H     H_    0.828121 0.011966 0.941074 0.145515
H58   H     H_    0.024234 0.171652 0.054283 0.152712
H59   H     H_    0.171917 0.988060 0.940953 0.146858
H60   H     H_    0.988138 0.828117 0.941077 0.146333
H61   H     H_    0.828083 0.988032 0.059060 0.146892
H62   H     H_    0.011861 0.828087 0.059074 0.146498
H63   H     H_    0.171879 0.011938 0.058913 0.145487
H64   H     H_    0.975789 0.171704 0.945612 0.152775
C105  C     C_R   0.323784 0.499991 0.500052 0.180980
C106  C     C_R   0.500002 0.676169 0.499932 0.196465
C107  C     C_R   0.676169 0.500001 0.499923 0.195537
C108  C     C_R   0.500002 0.323830 0.500068 0.196459
C109  C     C_R   0.823831 0.999998 0.000068 0.196465
C110  C     C_R   0.000009 0.176216 0.999948 0.180980
C111  C     C_R   0.176170 0.999998 0.999932 0.196460
C112  C     C_R   0.999999 0.823830 0.000077 0.195535
C113  C     C_R   0.395842 0.499987 0.500035 -0.046509
C114  C     C_R   0.499996 0.604235 0.499964 -0.047096
C115  C     C_R   0.604235 0.500002 0.499961 -0.047778
C116  C     C_R   0.499996 0.395765 0.500036 -0.047072
C117  C     C_R   0.895765 0.000004 0.000036 -0.047097
C118  C     C_R   0.000013 0.104158 0.999965 -0.046510
C119  C     C_R   0.104235 0.000004 0.999964 -0.047071
C120  C     C_R   0.999997 0.895765 0.000039 -0.047780
C121  C     C_R   0.267535 0.516626 0.470821 0.302688
C122  C     C_R   0.468647 0.732082 0.502836 0.302945
C123  C     C_R   0.732081 0.531351 0.502838 0.300948
C124  C     C_R   0.531360 0.267915 0.502971 0.300612
C125  C     C_R   0.267480 0.483381 0.529271 0.302539
C126  C     C_R   0.468650 0.267917 0.497186 0.302923
C127  C     C_R   0.732084 0.468647 0.496983 0.300825
C128  C     C_R   0.531362 0.732085 0.497007 0.300633
C129  C     C_R   0.767915 0.968638 0.002993 0.300633
C130  C     C_R   0.016619 0.232520 0.970729 0.302539
C131  C     C_R   0.232083 0.031350 0.002813 0.302922
C132  C     C_R   0.031353 0.767916 0.003024 0.300826
C133  C     C_R   0.767918 0.031353 0.997164 0.302947
C134  C     C_R   0.968649 0.767919 0.997155 0.300949
C135  C     C_R   0.232085 0.968640 0.997030 0.300612
C136  C     C_R   0.983374 0.232465 0.029179 0.302687
C137  C     C_R   0.231644 0.515570 0.470721 -0.195577
C138  C     C_R   0.469158 0.767977 0.503072 -0.201757
C139  C     C_R   0.767976 0.530841 0.503076 -0.201567
C140  C     C_R   0.530852 0.232018 0.503190 -0.201175
C141  C     C_R   0.231587 0.484436 0.529348 -0.195212
C142  C     C_R   0.469160 0.232022 0.496948 -0.201725
C143  C     C_R   0.767980 0.469155 0.496765 -0.201231
C144  C     C_R   0.530854 0.767981 0.496789 -0.201204
C145  C     C_R   0.732019 0.969146 0.003211 -0.201203
C146  C     C_R   0.015564 0.268412 0.970652 -0.195212
C147  C     C_R   0.267978 0.030840 0.003051 -0.201726
C148  C     C_R   0.030844 0.732020 0.003242 -0.201228
C149  C     C_R   0.732022 0.030842 0.996927 -0.201757
C150  C     C_R   0.969160 0.732024 0.996917 -0.201565
C151  C     C_R   0.267981 0.969148 0.996811 -0.201175
C152  C     C_R   0.984430 0.268356 0.029279 -0.195577
H65   H     H_    0.217556 0.528152 0.448442 0.195269
H66   H     H_    0.445299 0.782003 0.505482 0.195313
H67   H     H_    0.782001 0.554695 0.505498 0.195415
H68   H     H_    0.554710 0.217990 0.505575 0.195573
H69   H     H_    0.217457 0.471855 0.551619 0.195480
H70   H     H_    0.445304 0.217997 0.494554 0.195334
H71   H     H_    0.782009 0.445300 0.494353 0.195573
H72   H     H_    0.554714 0.782010 0.494388 0.195553
H73   H     H_    0.717990 0.945286 0.005613 0.195553
H74   H     H_    0.028145 0.282543 0.948381 0.195480
H75   H     H_    0.282003 0.054697 0.005444 0.195335
H76   H     H_    0.054699 0.717991 0.005659 0.195574
H77   H     H_    0.717997 0.054701 0.994517 0.195313
H78   H     H_    0.945306 0.717998 0.994490 0.195416
H79   H     H_    0.282010 0.945290 0.994426 0.195573
H80   H     H_    0.971848 0.282444 0.051558 0.195269
C153  C     C_R   0.213659 0.500001 0.500028 0.005263
C154  C     C_R   0.500007 0.786011 0.499938 0.009873
C155  C     C_R   0.786010 0.499997 0.499929 0.010169
C156  C     C_R   0.500007 0.213988 0.500062 0.009850
C157  C     C_R   0.713989 0.999993 0.000062 0.009873
C158  C     C_R   0.999999 0.286341 0.999972 0.005263
C159  C     C_R   0.286012 0.999993 0.999938 0.009851
C160  C     C_R   0.000003 0.713990 0.000071 0.010165
C161  C     C_R   0.285838 0.500002 0.500051 -0.170308
C162  C     C_R   0.500004 0.713897 0.499919 -0.181279
C163  C     C_R   0.713896 0.500000 0.499908 -0.181084
C164  C     C_R   0.500004 0.286103 0.500081 -0.181285
C165  C     C_R   0.786103 0.999996 0.000081 -0.181280
C166  C     C_R   0.999998 0.214162 0.999949 -0.170308
C167  C     C_R   0.213897 0.999996 0.999919 -0.181285
C168  C     C_R   0.000000 0.786104 0.000092 -0.181084
C169  C     C_R   0.157941 0.514645 0.529873 -0.184293
C170  C     C_R   0.522543 0.841859 0.523186 -0.192380
C171  C     C_R   0.841856 0.477411 0.523162 -0.192493
C172  C     C_R   0.477443 0.158094 0.523271 -0.192153
C173  C     C_R   0.157992 0.485363 0.470151 -0.184317
C174  C     C_R   0.522568 0.158140 0.476805 -0.192368
C175  C     C_R   0.841906 0.522584 0.476752 -0.192421
C176  C     C_R   0.477467 0.841905 0.476738 -0.192161
C177  C     C_R   0.658095 0.022533 0.023262 -0.192162
C178  C     C_R   0.014637 0.342008 0.029849 -0.184317
C179  C     C_R   0.341860 0.977432 0.023196 -0.192368
C180  C     C_R   0.977414 0.658094 0.023246 -0.192420
C181  C     C_R   0.658141 0.977457 0.976814 -0.192380
C182  C     C_R   0.022591 0.658144 0.976840 -0.192492
C183  C     C_R   0.341906 0.022557 0.976728 -0.192153
C184  C     C_R   0.985356 0.342059 0.970127 -0.184292
H81   H     H_    0.172007 0.525750 0.553069 0.194430
H82   H     H_    0.539426 0.827863 0.541825 0.190851
H83   H     H_    0.827859 0.460489 0.541786 0.190948
H84   H     H_    0.460541 0.172051 0.541929 0.191051
H85   H     H_    0.172100 0.474258 0.446961 0.194417
H86   H     H_    0.539471 0.172136 0.458159 0.190900
H87   H     H_    0.827950 0.539505 0.458114 0.190988
H88   H     H_    0.460586 0.827947 0.458087 0.191003
H89   H     H_    0.672053 0.039415 0.041913 0.191004
H90   H     H_    0.025741 0.327900 0.053039 0.194417
H91   H     H_    0.327864 0.960530 0.041841 0.190900
H92   H     H_    0.960491 0.672050 0.041882 0.190989
H93   H     H_    0.672137 0.960574 0.958176 0.190851
H94   H     H_    0.039514 0.672141 0.958218 0.190950
H95   H     H_    0.327948 0.039458 0.958070 0.191051
H96   H     H_    0.974251 0.327993 0.946931 0.194430
C185  C     C_R   0.122032 0.514780 0.530354 0.289719
C186  C     C_R   0.522341 0.877733 0.524128 0.294448
C187  C     C_R   0.877730 0.477609 0.524106 0.294533
C188  C     C_R   0.477636 0.122218 0.524179 0.294269
C189  C     C_R   0.122083 0.485227 0.469656 0.289567
C190  C     C_R   0.522368 0.122266 0.475863 0.294365
C191  C     C_R   0.877781 0.522391 0.475845 0.294646
C192  C     C_R   0.477662 0.877781 0.475830 0.294351
C193  C     C_R   0.622219 0.022338 0.024170 0.294352
C194  C     C_R   0.014773 0.377917 0.030344 0.289568
C195  C     C_R   0.377734 0.977633 0.024137 0.294365
C196  C     C_R   0.977607 0.622219 0.024152 0.294646
C197  C     C_R   0.622267 0.977659 0.975872 0.294448
C198  C     C_R   0.022393 0.622270 0.975896 0.294534
C199  C     C_R   0.377782 0.022364 0.975820 0.294270
C200  C     C_R   0.985220 0.377968 0.969646 0.289719
C201  C     C_R   0.103810 0.500001 0.500003 -0.264491
C202  C     C_R   0.500000 0.896062 0.499987 -0.271068
C203  C     C_R   0.896061 0.500000 0.499984 -0.269996
C204  C     C_R   0.500000 0.103938 0.500013 -0.271066
C205  C     C_R   0.603938 1.000000 0.000013 -0.271067
C206  C     C_R   0.999998 0.396190 0.999997 -0.264492
C207  C     C_R   0.396062 1.000000 0.999987 -0.271066
C208  C     C_R   0.999999 0.603939 0.000016 -0.269997
C209  C     C_R   0.499998 0.566468 0.499988 0.806690
C210  C     C_R   0.566468 0.500001 0.499987 0.808656
C211  C     C_R   0.499998 0.433532 0.500012 0.806686
C212  C     C_R   0.433558 0.499997 0.500012 0.805069
C213  C     C_R   0.000003 0.066441 0.999988 0.805070
C214  C     C_R   0.066468 0.000002 0.999988 0.806687
C215  C     C_R   0.999999 0.933532 0.000013 0.808655
C216  C     C_R   0.933532 0.000002 0.000012 0.806689
C217  C     C_R   0.175931 0.500003 0.500017 0.007160
C218  C     C_R   0.500007 0.823840 0.499953 0.015630
C219  C     C_R   0.823839 0.499996 0.499947 0.015560
C220  C     C_R   0.500007 0.176159 0.500047 0.015598
C221  C     C_R   0.676160 0.999993 0.000047 0.015630
C222  C     C_R   0.999997 0.324069 0.999983 0.007160
C223  C     C_R   0.323841 0.999993 0.999953 0.015598
C224  C     C_R   0.000004 0.676161 0.000053 0.015556
N1    N     N_R   0.284817 0.535567 0.441771 0.129461
O49   O     O_R   0.271753 0.537123 0.408242 -0.316919
O50   O     O_R   0.310808 0.555106 0.449831 -0.317355
N2    N     N_R   0.436140 0.714689 0.505199 0.135636
O51   O     O_R   0.410680 0.728795 0.523025 -0.313051
O52   O     O_R   0.430506 0.686861 0.486091 -0.324067
N3    N     N_R   0.714687 0.563854 0.505213 0.137250
O53   O     O_R   0.728794 0.589285 0.523047 -0.306953
O54   O     O_R   0.686859 0.569520 0.486108 -0.320559
N4    N     N_R   0.563864 0.285306 0.505317 0.137281
O55   O     O_R   0.589309 0.271172 0.523123 -0.306457
O56   O     O_R   0.569514 0.313164 0.486211 -0.320522
N5    N     N_R   0.284706 0.464442 0.558333 0.129566
O57   O     O_R   0.271580 0.462892 0.591856 -0.316281
O58   O     O_R   0.310707 0.444896 0.550289 -0.317111
N6    N     N_R   0.436145 0.285310 0.494847 0.135656
O59   O     O_R   0.410699 0.271205 0.477037 -0.313003
O60   O     O_R   0.430495 0.313136 0.513961 -0.323935
N7    N     N_R   0.714693 0.436145 0.494599 0.137280
O61   O     O_R   0.728828 0.410716 0.476764 -0.306339
O62   O     O_R   0.686835 0.430476 0.513698 -0.320616
N8    N     N_R   0.563868 0.714694 0.494637 0.137261
O63   O     O_R   0.589329 0.728830 0.476815 -0.306487
O64   O     O_R   0.569502 0.686834 0.513736 -0.320663
N9    N     N_R   0.785306 0.936132 0.005364 0.137262
O65   O     O_R   0.771170 0.910672 0.023187 -0.306488
O66   O     O_R   0.813166 0.930497 0.986266 -0.320661
N10   N     N_R   0.035559 0.215294 0.941667 0.129566
O67   O     O_R   0.037109 0.228420 0.908145 -0.316281
O68   O     O_R   0.055104 0.189293 0.949711 -0.317111
N11   N     N_R   0.214690 0.063855 0.005151 0.135657
O69   O     O_R   0.228795 0.089301 0.022960 -0.313003
O70   O     O_R   0.186864 0.069505 0.986037 -0.323935
N12   N     N_R   0.063854 0.785307 0.005416 0.137279
O71   O     O_R   0.089279 0.771172 0.023257 -0.306342
O72   O     O_R   0.069527 0.813164 0.986318 -0.320613
N13   N     N_R   0.785311 0.063859 0.994800 0.135635
O73   O     O_R   0.771205 0.089320 0.976974 -0.313052
O74   O     O_R   0.813139 0.069494 0.013907 -0.324068
N14   N     N_R   0.936147 0.785313 0.994772 0.137248
O75   O     O_R   0.910720 0.771207 0.976931 -0.306956
O76   O     O_R   0.930477 0.813141 0.013876 -0.320556
N15   N     N_R   0.214694 0.936136 0.994685 0.137280
O77   O     O_R   0.228828 0.910690 0.976879 -0.306457
O78   O     O_R   0.186836 0.930486 0.013790 -0.320521
N16   N     N_R   0.964433 0.215183 0.058228 0.129462
O79   O     O_R   0.962876 0.228247 0.091758 -0.316919
O80   O     O_R   0.944893 0.189192 0.050168 -0.317355
N17   N     N_R   0.104644 0.529177 0.562256 0.134915
O81   O     O_R   0.078235 0.513733 0.576751 -0.385918
O82   O     O_R   0.118050 0.554933 0.580174 -0.317952
N18   N     N_R   0.543894 0.894954 0.550845 0.141607
O83   O     O_R   0.531611 0.919629 0.571372 -0.370921
O84   O     O_R   0.573916 0.882495 0.558982 -0.315643
N19   N     N_R   0.894948 0.455999 0.550804 0.141826
O85   O     O_R   0.919611 0.468242 0.571356 -0.373443
O86   O     O_R   0.882493 0.425956 0.558905 -0.315214
N20   N     N_R   0.456049 0.104944 0.550886 0.141654
O87   O     O_R   0.468311 0.080239 0.571405 -0.370732
O88   O     O_R   0.426014 0.117382 0.559030 -0.315757
N21   N     N_R   0.104748 0.470828 0.437747 0.134986
O89   O     O_R   0.078324 0.486237 0.423281 -0.386111
O90   O     O_R   0.118205 0.445100 0.419805 -0.317387
N22   N     N_R   0.543950 0.105045 0.449139 0.141621
O91   O     O_R   0.531692 0.080366 0.428621 -0.370896
O92   O     O_R   0.573979 0.117506 0.440988 -0.315351
N23   N     N_R   0.895055 0.544003 0.449165 0.141736
O93   O     O_R   0.919744 0.531754 0.428614 -0.373464
O94   O     O_R   0.882627 0.574054 0.441071 -0.316000
N24   N     N_R   0.456105 0.895054 0.449130 0.141642
O95   O     O_R   0.468392 0.919755 0.428602 -0.370755
O96   O     O_R   0.426077 0.882618 0.441000 -0.316049
N25   N     N_R   0.604946 0.043895 0.050870 0.141641
O97   O     O_R   0.580245 0.031608 0.071398 -0.370755
O98   O     O_R   0.617381 0.073923 0.058999 -0.316049
N26   N     N_R   0.029171 0.395252 0.062253 0.134986
O99   O     O_R   0.013763 0.421676 0.076718 -0.386110
O100  O     O_R   0.054900 0.381795 0.080195 -0.317386
N27   N     N_R   0.394955 0.956050 0.050861 0.141620
O101  O     O_R   0.419634 0.968309 0.071379 -0.370897
O102  O     O_R   0.382494 0.926021 0.059013 -0.315351
N28   N     N_R   0.955993 0.604945 0.050831 0.141738
O103  O     O_R   0.968241 0.580256 0.071384 -0.373458
O104  O     O_R   0.925941 0.617373 0.058922 -0.316000
N29   N     N_R   0.605046 0.956106 0.949156 0.141607
O105  O     O_R   0.580371 0.968389 0.928628 -0.370920
O106  O     O_R   0.617505 0.926084 0.941019 -0.315643
N30   N     N_R   0.044005 0.605053 0.949200 0.141827
O107  O     O_R   0.031763 0.580390 0.928646 -0.373437
O108  O     O_R   0.074049 0.617506 0.941102 -0.315214
N31   N     N_R   0.395056 0.043950 0.949113 0.141654
O109  O     O_R   0.419761 0.031688 0.928595 -0.370733
O110  O     O_R   0.382618 0.073985 0.940969 -0.315758
N32   N     N_R   0.970823 0.395356 0.937744 0.134915
O111  O     O_R   0.986267 0.421765 0.923249 -0.385917
O112  O     O_R   0.945067 0.381950 0.919825 -0.317951

loop_
_geom_bond_atom_site_label_1
_geom_bond_atom_site_label_2
_geom_bond_distance
_ccdc_geom_bond_type
C28   H12   1.083515 S    
N27   O101  1.301268 A    
C44   C54   1.407193 A    
N11   O70   1.301251 A    
C180  H92   1.083620 S    
C123  N3    1.441169 S    
C83   C99   1.395339 A    
O5    Cu3   1.956866 S    
O44   Cu11  1.964610 S    
C41   H25   1.082822 S    
C141  H69   1.083709 S    
C179  H91   1.083617 S    
C85   H45   1.082890 S    
N14   O75   1.301493 A    
O40   C212  1.287746 A    
N6    O60   1.301250 A    
C177  C193  1.400444 A    
C29   C63   1.399275 A    
O23   Cu1   1.948037 S    
C131  N11   1.441157 S    
C91   C107  1.400556 A    
C111  C167  1.472334 S    
C128  N8    1.441163 S    
C125  C161  1.420332 A    
C45   C55   1.407196 A    
C176  C218  1.398622 A    
C46   C56   1.407182 A    
C58   C66   1.438810 S    
C100  C112  1.400530 A    
C88   H48   1.083078 S    
O25   Cu5   1.947722 S    
C19   C57   1.399239 A    
C131  C167  1.418414 A    
C176  C192  1.400444 A    
C27   C61   1.399274 A    
C133  N13   1.441158 S    
N12   O72   1.301251 A    
C38   H22   1.082820 S    
C149  H77   1.083458 S    
O14   C8    1.291876 A    
C146  H74   1.083710 S    
O28   C14   1.294640 A    
O29   C15   1.294566 A    
C151  C159  1.398891 A    
O30   C16   1.294532 A    
C184  H96   1.083713 S    
O40   Cu10  1.964933 S    
C76   C116  1.405792 A    
O19   C9    1.294532 A    
C184  C222  1.397291 A    
C135  C167  1.418422 A    
C87   H47   1.082888 S    
C160  C224  1.476300 S    
C61   C69   1.438810 S    
Cu11  Cu12  2.653453 S    
N23   O94   1.301362 A    
C123  C139  1.401013 A    
C187  N19   1.438282 S    
C48   C56   1.407165 A    
C13   C52   1.480049 S    
C196  N28   1.438258 S    
C20   C36   1.398058 A    
C174  C220  1.398639 A    
O13   C5    1.291874 A    
C25   C41   1.398057 A    
C200  C206  1.418271 A    
C174  C190  1.400478 A    
C195  C207  1.418772 A    
C27   H11   1.083511 S    
N18   O83   1.301269 A    
N10   O68   1.301393 A    
O7    C3    1.291891 A    
O29   Cu7   1.947715 S    
C129  C165  1.418420 A    
N1    O49   1.301411 A    
C182  C224  1.398632 A    
C128  C162  1.418424 A    
N3    O53   1.301494 A    
C90   H50   1.083246 S    
C127  C143  1.401026 A    
N7    O62   1.301252 A    
C1    C201  1.471710 S    
O34   Cu9   1.964930 S    
C175  C219  1.398616 A    
C123  C163  1.418413 A    
C3    C203  1.474906 S    
C124  C164  1.418419 A    
O39   Cu10  1.964609 S    
C109  C165  1.472334 S    
C83   C119  1.405787 A    
N2    O52   1.301250 A    
C24   H8    1.083512 S    
C104  C110  1.403377 A    
O20   C10   1.294652 A    
C74   C114  1.405785 A    
N5    O57   1.301411 A    
C126  C142  1.401013 A    
C84   C100  1.395282 A    
C26   C62   1.399317 A    
C132  N12   1.441163 S    
O27   Cu7   1.948037 S    
C180  C224  1.398615 A    
N9    O65   1.301491 A    
O9    C5    1.291870 A    
N32   O111  1.300497 A    
C199  N31   1.438275 S    
C18   H2    1.083508 S    
C126  C164  1.418411 A    
C169  C185  1.401479 A    
O11   C7    1.291866 A    
C15   C50   1.480049 S    
C103  C111  1.400540 A    
C194  N26   1.438748 S    
C144  C154  1.398886 A    
C78   C94   1.395339 A    
C115  C210  1.473867 S    
N21   O90   1.301412 A    
C181  C197  1.400474 A    
O4    C4    1.291867 A    
O25   C13   1.294561 A    
C82   C98   1.395888 A    
O37   Cu10  1.964934 S    
C92   C108  1.400536 A    
C79   H39   1.082889 S    
C87   C119  1.405794 A    
C28   C62   1.399182 A    
N19   O86   1.301365 A    
C80   C114  1.405794 A    
O35   Cu9   1.964614 S    
N24   O96   1.301361 A    
C99   H59   1.083247 S    
C137  C153  1.396979 A    
C134  C150  1.401009 A    
C36   C50   1.407201 A    
C74   H34   1.082889 S    
N22   O92   1.301362 A    
C121  C137  1.401312 A    
C107  C163  1.472310 S    
C114  C209  1.473859 S    
C99   C111  1.400562 A    
C108  C164  1.472338 S    
C171  C219  1.398635 A    
N17   O81   1.300496 A    
N27   O102  1.301361 A    
C195  N27   1.438299 S    
C190  N22   1.438298 S    
C91   H51   1.083250 S    
C41   C53   1.407200 A    
O20   Cu4   1.948040 S    
N31   O110  1.301362 A    
C139  H67   1.083455 S    
C16   C49   1.480145 S    
O23   C11   1.294640 A    
N7    O61   1.301496 A    
C47   H31   1.082818 S    
C198  C208  1.418779 A    
C86   C102  1.395331 A    
N25   O98   1.301363 A    
C197  N29   1.438292 S    
C45   H29   1.082819 S    
C88   C104  1.395956 A    
C48   H32   1.082803 S    
C193  C205  1.418773 A    
C40   C52   1.407200 A    
C32   H16   1.083507 S    
N26   O99   1.300515 A    
C172  H84   1.083618 S    
C40   H24   1.082822 S    
C185  N17   1.438692 S    
O41   Cu11  1.964930 S    
C42   H26   1.082812 S    
C197  C205  1.418776 A    
C142  H70   1.083458 S    
C93   C105  1.403342 A    
C196  C208  1.418778 A    
C24   C40   1.398057 A    
C31   C47   1.398061 A    
C79   C95   1.395282 A    
C102  H62   1.083246 S    
O17   C9    1.294707 A    
N13   O74   1.301252 A    
Cu5   Cu7   2.664670 S    
O18   Cu2   1.947719 S    
C23   C39   1.397965 A    
C32   C64   1.399265 A    
O4    Cu4   1.956868 S    
C10   C55   1.480049 S    
O35   C211  1.288159 A    
C63   C71   1.438810 S    
C21   C59   1.399317 A    
C191  N23   1.438257 S    
C19   C35   1.398060 A    
C5    C205  1.474886 S    
N22   O91   1.301268 A    
C59   C67   1.438795 S    
C17   C33   1.398086 A    
C27   C43   1.398119 A    
C182  H94   1.083615 S    
C188  N20   1.438276 S    
C170  H82   1.083617 S    
C141  C153  1.396998 A    
O31   Cu5   1.948037 S    
O27   C13   1.294654 A    
C143  C155  1.398885 A    
C150  H78   1.083459 S    
C65   C72   1.205422 T    
C190  C204  1.418773 A    
C122  N2    1.441160 S    
C66   C71   1.205423 T    
C34   H18   1.082819 S    
C187  C203  1.418781 A    
C106  C162  1.472330 S    
C30   C64   1.399239 A    
C26   H10   1.083504 S    
C175  H87   1.083619 S    
C185  C201  1.418270 A    
C158  C222  1.472354 S    
N8    O63   1.301492 A    
C121  C161  1.420351 A    
C148  C160  1.398885 A    
C194  C206  1.418287 A    
O32   Cu8   1.947719 S    
C189  C201  1.418288 A    
C62   C70   1.438795 S    
C191  C203  1.418779 A    
N3    O54   1.301254 A    
C152  C158  1.396978 A    
C183  C199  1.400444 A    
C100  H60   1.083248 S    
O12   C8    1.291891 A    
O1    C1    1.290977 A    
C146  C158  1.396997 A    
C98   C110  1.403342 A    
C94   H54   1.083246 S    
N14   O76   1.301251 A    
C57   C65   1.438795 S    
C98   H58   1.083198 S    
C92   H52   1.083251 S    
C138  C154  1.398876 A    
C130  C166  1.420331 A    
C186  N18   1.438293 S    
C149  C157  1.398878 A    
O19   Cu3   1.948037 S    
C82   C118  1.404130 A    
O33   Cu9   1.964930 S    
C136  C152  1.401316 A    
C137  H65   1.083707 S    
N30   O107  1.301263 A    
C29   H13   1.083507 S    
C139  C155  1.398886 A    
C77   C113  1.404129 A    
O47   C213  1.287648 A    
C124  C140  1.401034 A    
C6    C206  1.471710 S    
C133  C165  1.418415 A    
C110  C166  1.480845 S    
C171  H83   1.083619 S    
O28   Cu8   1.948040 S    
O42   C214  1.288263 A    
O30   Cu6   1.948034 S    
C119  C214  1.473863 S    
C22   H6    1.083508 S    
Cu9   Cu10  2.653453 S    
C105  C161  1.480845 S    
O16   Cu8   1.956867 S    
C169  H81   1.083709 S    
N15   O78   1.301252 A    
O10   C6    1.290960 A    
C86   H46   1.082888 S    
C18   C58   1.399275 A    
C136  N16   1.439374 S    
C96   H56   1.083247 S    
O36   C212  1.287645 A    
O9    Cu5   1.956867 S    
C192  N24   1.438272 S    
C32   C48   1.398086 A    
O11   Cu7   1.956868 S    
C172  C188  1.400447 A    
O5    C1    1.290960 A    
N16   O79   1.301412 A    
O26   C14   1.294600 A    
C93   H53   1.083198 S    
C142  C156  1.398881 A    
C173  H85   1.083707 S    
C80   C96   1.395289 A    
C79   C115  1.405796 A    
N20   O87   1.301259 A    
O21   Cu3   1.947716 S    
C121  N1    1.439372 S    
O1    Cu1   1.956867 S    
C128  C144  1.401034 A    
C129  C145  1.401034 A    
Cu1   Cu3   2.664674 S    
O37   C211  1.288266 A    
C135  C151  1.401034 A    
C4    C204  1.474867 S    
C102  C112  1.400557 A    
C28   C44   1.397965 A    
O26   Cu6   1.947719 S    
C86   C120  1.405795 A    
C122  C138  1.401012 A    
C192  C202  1.418772 A    
C84   C120  1.405795 A    
N18   O84   1.301365 A    
O12   Cu8   1.956868 S    
C23   H7    1.083515 S    
O14   Cu6   1.956865 S    
C129  N9    1.441164 S    
C145  C157  1.398884 A    
C188  C204  1.418767 A    
C23   C59   1.399186 A    
N23   O93   1.301254 A    
N6    O59   1.301493 A    
C46   H30   1.082814 S    
C134  N14   1.441166 S    
C170  C186  1.400478 A    
N28   O103  1.301253 A    
C131  C147  1.401013 A    
O13   Cu7   1.956865 S    
O2    Cu2   1.956866 S    
C176  H88   1.083618 S    
O8    C2    1.291875 A    
O45   C215  1.288256 A    
C44   H28   1.082806 S    
C38   C52   1.407195 A    
O41   C213  1.287742 A    
N31   O109  1.301256 A    
C19   H3    1.083506 S    
C73   C89   1.395956 A    
O7    Cu1   1.956868 S    
N20   O88   1.301365 A    
C132  C148  1.401022 A    
N32   O112  1.301412 A    
C143  H71   1.083457 S    
C117  C216  1.473859 S    
C78   H38   1.082887 S    
C67   C70   1.205421 T    
C126  N6    1.441155 S    
C26   C42   1.398176 A    
C175  C191  1.400435 A    
O18   C10   1.294565 A    
C180  C196  1.400431 A    
C173  C189  1.401536 A    
C82   H42   1.083081 S    
C172  C220  1.398625 A    
O10   Cu6   1.956870 S    
C89   C105  1.403380 A    
N12   O71   1.301493 A    
O45   Cu12  1.964930 S    
C12   C53   1.480049 S    
O24   C12   1.294560 A    
C17   C57   1.399268 A    
C178  C222  1.397322 A    
C97   H57   1.083245 S    
O31   C15   1.294649 A    
C112  C168  1.472310 S    
C94   C108  1.400564 A    
C2    C202  1.474883 S    
C127  N7    1.441167 S    
O16   C6    1.290979 A    
C76   C92   1.395285 A    
C189  N21   1.438751 S    
C178  H90   1.083706 S    
C183  C223  1.398623 A    
N4    O56   1.301251 A    
C147  H75   1.083454 S    
N4    O55   1.301490 A    
C132  C168  1.418420 A    
C88   C118  1.404127 A    
C43   C53   1.407195 A    
O6    C4    1.291873 A    
N28   O104  1.301361 A    
C73   C113  1.404125 A    
C182  C198  1.400467 A    
N9    O66   1.301251 A    
C47   C55   1.407200 A    
C120  C215  1.473871 S    
C147  C159  1.398883 A    
C101  H61   1.083247 S    
C151  H79   1.083455 S    
O42   Cu11  1.964930 S    
C95   C107  1.400529 A    
C29   C45   1.398122 A    
C155  C219  1.476303 S    
C17   H1    1.083507 S    
C21   H5    1.083500 S    
C169  C217  1.397293 A    
C171  C187  1.400463 A    
O36   Cu9   1.964613 S    
C43   H27   1.082820 S    
C36   H20   1.082819 S    
C30   H14   1.083509 S    
C77   C93   1.395888 A    
C104  H64   1.083192 S    
C37   C51   1.407159 A    
N10   O67   1.301411 A    
C122  C162  1.418415 A    
N26   O100  1.301415 A    
C9    C56   1.480145 S    
C21   C37   1.398176 A    
N11   O69   1.301489 A    
N1    O50   1.301396 A    
C81   C97   1.395289 A    
C140  C156  1.398890 A    
C130  N10   1.439373 S    
C22   C60   1.399274 A    
Cu2   Cu4   2.664674 S    
C60   C68   1.438810 S    
C183  H95   1.083620 S    
O48   Cu12  1.964929 S    
C87   C103  1.395289 A    
O2    C2    1.291872 A    
C14   C51   1.480148 S    
C7    C207  1.474867 S    
N2    O51   1.301493 A    
C74   C90   1.395339 A    
N13   O73   1.301492 A    
O48   C216  1.288270 A    
C135  N15   1.441160 S    
C39   H23   1.082802 S    
C20   C58   1.399242 A    
N5    O58   1.301391 A    
C37   H21   1.082812 S    
C127  C163  1.418421 A    
C144  H72   1.083457 S    
C145  H73   1.083458 S    
O43   Cu11  1.964610 S    
C150  C160  1.398883 A    
O38   C210  1.288174 A    
C83   H43   1.082888 S    
C84   H44   1.082890 S    
C125  C141  1.401324 A    
C138  H66   1.083460 S    
C179  C195  1.400478 A    
C177  C221  1.398623 A    
C85   C101  1.395339 A    
C97   C109  1.400537 A    
C34   C50   1.407196 A    
N29   O106  1.301365 A    
C75   H35   1.082888 S    
O21   C11   1.294601 A    
C177  H89   1.083616 S    
C75   C115  1.405796 A    
C76   H36   1.082893 S    
O22   C12   1.294651 A    
C181  C221  1.398635 A    
C20   H4    1.083513 S    
O24   Cu4   1.947719 S    
O15   C7    1.291872 A    
N24   O95   1.301258 A    
O34   C210  1.288251 A    
C200  N32   1.438694 S    
C103  H63   1.083249 S    
C30   C46   1.398060 A    
O46   C214  1.288162 A    
N8    O64   1.301253 A    
N17   O82   1.301411 A    
O15   Cu5   1.956868 S    
C39   C51   1.407193 A    
C42   C54   1.407159 A    
O17   Cu1   1.947722 S    
C22   C38   1.398119 A    
N15   O77   1.301492 A    
C35   C49   1.407182 A    
C198  N30   1.438281 S    
C130  C146  1.401324 A    
C136  C166  1.420350 A    
C154  C218  1.476307 S    
C193  N25   1.438269 S    
C184  C200  1.401479 A    
C31   C63   1.399241 A    
C181  H93   1.083615 S    
C116  C211  1.473863 S    
O3    C3    1.291876 A    
N29   O105  1.301269 A    
C153  C217  1.472350 S    
C18   C34   1.398122 A    
C25   C61   1.399245 A    
O22   Cu2   1.948034 S    
C134  C168  1.418412 A    
O46   Cu12  1.964610 S    
O47   Cu12  1.964609 S    
C24   C60   1.399245 A    
C33   H17   1.082803 S    
C156  C220  1.476311 S    
N30   O108  1.301365 A    
O8    Cu4   1.956867 S    
C124  N4    1.441162 S    
C178  C194  1.401536 A    
C35   H19   1.082811 S    
C125  N5    1.439372 S    
C186  C202  1.418775 A    
C159  C223  1.476311 S    
O38   Cu10  1.964610 S    
C25   H9    1.083512 S    
C174  H86   1.083616 S    
C173  C217  1.397326 A    
C113  C212  1.471896 S    
C78   C116  1.405789 A    
C75   C91   1.395331 A    
O3    Cu3   1.956865 S    
C33   C49   1.407169 A    
C90   C106  1.400561 A    
C8    C208  1.474906 S    
C148  H76   1.083457 S    
C199  C207  1.418769 A    
C133  C149  1.401012 A    
O32   C16   1.294707 A    
C95   H55   1.083248 S    
C73   H33   1.083079 S    
C68   C69   1.205423 T    
C170  C218  1.398634 A    
C77   H37   1.083079 S    
O33   C209  1.288265 A    
N21   O89   1.300517 A    
N16   O80   1.301394 A    
C80   H40   1.082894 S    
C81   H41   1.082892 S    
C140  H68   1.083457 S    
O44   C216  1.288163 A    
C96   C106  1.400537 A    
N25   O97   1.301261 A    
C101  C109  1.400561 A    
N19   O85   1.301261 A    
C152  H80   1.083705 S    
C11   C54   1.480148 S    
C81   C117  1.405794 A    
O6    Cu2   1.956865 S    
C118  C213  1.471896 S    
C179  C223  1.398640 A    
C64   C72   1.438795 S    
C157  C221  1.476307 S    
Cu6   Cu8   2.664674 S    
C85   C117  1.405785 A    
O39   C209  1.288165 A    
O43   C215  1.288173 A    
C89   H49   1.083189 S    
C31   H15   1.083513 S    
