data_mof_unit_58250.cif
_audit_creation_date              2012-12-11T16:45:56-0500
_audit_creation_method            fapswitch 2.2
_symmetry_space_group_name_H-M    P1
_symmetry_Int_Tables_number       1
_space_group_crystal_system       triclinic
_cell_length_a                    19.850999
_cell_length_b                    17.163154
_cell_length_c                    15.320159
_cell_angle_alpha                 90.04158
_cell_angle_beta                  52.639121
_cell_angle_gamma                 90.07966
_cell_volume                      4148.73885537

loop_
_atom_site_label
_atom_site_type_symbol
_atom_type_description
_atom_site_fract_x
_atom_site_fract_y
_atom_site_fract_z
_atom_type_partial_charge
C1    C     C_R   0.845062 0.677820 0.037976 -0.055465
C2    C     C_R   0.127860 0.693078 0.004624 -0.100352
C3    C     C_R   0.371581 0.192815 0.996313 -0.095803
C4    C     C_R   0.629967 0.192085 0.002201 -0.092310
C5    C     C_R   0.890378 0.315372 0.303448 0.046030
C6    C     C_R   0.109698 0.314987 0.696133 0.058348
C7    C     C_R   0.390320 0.815008 0.303807 0.057750
C8    C     C_R   0.673266 0.844000 0.674407 -0.115305
C9    C     C_R   0.789126 0.346897 0.024890 -0.044106
C10   C     C_R   0.212452 0.349139 0.972976 -0.040849
C11   C     C_R   0.286898 0.849545 0.028265 -0.051478
C12   C     C_R   0.650299 0.812021 0.070147 -0.035912
C13   C     C_R   0.892618 0.685392 0.301203 0.051380
C14   C     C_R   0.192489 0.636973 0.675593 0.087166
C15   C     C_R   0.307620 0.136932 0.324435 0.079931
C16   C     C_R   0.689064 0.141077 0.674570 0.050443
C17   C     C_R   0.850186 0.710685 0.482924 0.024646
C18   C     C_R   0.289674 0.636796 0.472074 0.085223
C19   C     C_R   0.210148 0.136725 0.527952 0.078554
C20   C     C_R   0.788437 0.138554 0.471139 0.064037
C21   C     C_R   0.875965 0.741480 0.382622 0.093536
C22   C     C_R   0.270642 0.662130 0.571834 0.092280
C23   C     C_R   0.229428 0.162040 0.428090 0.097670
C24   C     C_R   0.767738 0.165272 0.571309 0.105710
C25   C     C_R   0.180326 0.222327 0.431011 -0.228940
C26   C     C_R   0.817957 0.224321 0.568588 -0.219874
C27   C     C_R   0.853148 0.817716 0.377989 -0.151199
C28   C     C_R   0.319967 0.722425 0.568709 -0.225754
C29   C     C_R   0.129871 0.268159 0.525642 -0.153533
C30   C     C_R   0.870579 0.268743 0.473180 -0.152764
C31   C     C_R   0.791195 0.855564 0.474942 -0.183058
C32   C     C_R   0.370519 0.768180 0.473964 -0.144508
C33   C     C_R   0.129637 0.254129 0.616620 0.070928
C34   C     C_R   0.871368 0.254458 0.381852 0.066511
C35   C     C_R   0.751744 0.816331 0.575377 0.122804
C36   C     C_R   0.370501 0.754143 0.383170 0.068584
C37   C     C_R   0.787395 0.747885 0.579775 0.005337
C38   C     C_R   0.337535 0.682955 0.379927 0.056671
C39   C     C_R   0.162306 0.182908 0.620045 0.047973
C40   C     C_R   0.838286 0.183485 0.378311 0.053700
C41   C     C_3   0.836472 0.739744 0.624609 0.378941
C42   C     C_3   0.285492 0.661653 0.342273 0.340736
C43   C     C_3   0.214069 0.161526 0.658006 0.347458
C44   C     C_3   0.788175 0.161895 0.337822 0.348782
C45   C     C_R   0.901559 0.301978 0.206735 -0.151538
C46   C     C_R   0.099161 0.301934 0.792617 -0.156153
C47   C     C_R   0.400775 0.801924 0.207383 -0.148666
C48   C     C_R   0.640221 0.819738 0.779373 -0.195857
C49   C     C_3   0.905065 0.700488 0.518468 -0.470881
C50   C     C_3   0.233556 0.610482 0.442681 -0.584686
C51   C     C_3   0.266005 0.110358 0.557626 -0.577317
C52   C     C_3   0.734186 0.111970 0.438841 -0.577525
C53   C     C_2   0.709016 0.228877 0.075316 -0.283784
C54   C     C_2   0.294792 0.231549 0.920175 -0.275267
C55   C     C_2   0.203298 0.732329 0.082775 -0.281402
C56   C     C_2   0.731164 0.695935 0.017578 -0.292732
C57   C     C_2   0.209939 0.809147 0.059843 0.504595
C58   C     C_2   0.689099 0.752257 0.093231 0.494577
C59   C     C_2   0.713182 0.305933 0.056007 0.505932
C60   C     C_2   0.288871 0.308491 0.942188 0.504095
C61   C     C_R   0.830864 0.407942 0.949954 -0.108182
C62   C     C_R   0.170921 0.411375 0.046362 -0.118717
C63   C     C_R   0.328684 0.911593 0.954482 -0.102656
C64   C     C_R   0.633779 0.889071 0.103973 -0.110259
C65   C     C_R   0.907297 0.607638 0.303475 -0.119188
C66   C     C_R   0.142651 0.576660 0.685716 -0.172303
C67   C     C_R   0.357377 0.076667 0.314323 -0.171611
C68   C     C_R   0.638984 0.081497 0.684210 -0.145092
C69   C     C_R   0.840108 0.321886 0.051585 -0.125577
C70   C     C_R   0.160461 0.322530 0.948108 -0.127430
C71   C     C_R   0.339187 0.822785 0.052510 -0.123171
C72   C     C_R   0.622298 0.799384 0.008750 -0.169988
C73   C     C_R   0.900085 0.698623 0.206986 -0.091866
C74   C     C_R   0.150062 0.671368 0.778694 -0.118257
C75   C     C_R   0.350068 0.171351 0.221369 -0.103474
C76   C     C_R   0.648467 0.173215 0.778485 -0.103367
C77   C     C_R   0.908422 0.393403 0.303226 0.483822
C78   C     C_R   0.090676 0.392853 0.697318 0.448098
C79   C     C_R   0.409264 0.892926 0.302718 0.447644
C80   C     C_R   0.622985 0.904763 0.683640 0.490709
C81   C     C_R   0.837215 0.587972 0.937744 -0.185885
C82   C     C_R   0.136905 0.601826 0.100615 -0.194987
C83   C     C_R   0.362370 0.101507 0.900327 -0.175334
C84   C     C_R   0.639908 0.099920 0.096989 -0.175885
C85   C     C_R   0.797424 0.652029 0.005885 0.206367
C86   C     C_R   0.156388 0.678528 0.065164 0.198834
C87   C     C_R   0.342432 0.178022 0.936548 0.188271
C88   C     C_R   0.660353 0.176190 0.060328 0.195960
H1    H     H_    0.838723 0.730881 0.080278 0.142376
H2    H     H_    0.125426 0.747997 0.972624 0.155456
H3    H     H_    0.373792 0.247702 0.028662 0.160635
H4    H     H_    0.628421 0.247125 0.969710 0.158515
H5    H     H_    0.099631 0.318362 0.521119 0.201781
H6    H     H_    0.901667 0.318431 0.477424 0.201285
H7    H     H_    0.770529 0.912666 0.470368 0.131690
H8    H     H_    0.401030 0.818355 0.478261 0.201748
H9    H     H_    0.805648 0.701018 0.697851 0.025225
H10   H     H_    0.321766 0.629491 0.262837 0.033640
H11   H     H_    0.177548 0.129348 0.737449 0.026378
H12   H     H_    0.825412 0.128843 0.259097 0.023716
H13   H     H_    0.965312 0.734100 0.466901 0.226369
H14   H     H_    0.166709 0.630235 0.501786 0.229502
H15   H     H_    0.332921 0.130095 0.498671 0.231050
H16   H     H_    0.667445 0.132586 0.495264 0.234931
H17   H     H_    0.913197 0.638010 0.529160 0.148688
H18   H     H_    0.241358 0.547420 0.422018 0.179089
H19   H     H_    0.257977 0.047291 0.578300 0.176162
H20   H     H_    0.741675 0.048707 0.419378 0.168373
H21   H     H_    0.753318 0.199921 0.083622 0.083624
H22   H     H_    0.252439 0.202786 0.908116 0.080930
H23   H     H_    0.245007 0.703716 0.095954 0.085555
H24   H     H_    0.727557 0.689283 0.950058 0.091389
H25   H     H_    0.909393 0.245887 0.169621 0.103191
H26   H     H_    0.092609 0.245813 0.828912 0.102665
H27   H     H_    0.407390 0.745782 0.171037 0.104406
H28   H     H_    0.660828 0.771642 0.803225 0.112815
H29   H     H_    0.811248 0.436127 0.905938 0.097164
H30   H     H_    0.192417 0.444756 0.085042 0.099099
H31   H     H_    0.306998 0.945037 0.916178 0.095957
H32   H     H_    0.639334 0.916561 0.162886 0.101151
H33   H     H_    0.915641 0.580313 0.359642 0.121358
H34   H     H_    0.158748 0.534366 0.624088 0.145273
H35   H     H_    0.341232 0.034399 0.375970 0.145405
H36   H     H_    0.651753 0.044369 0.620304 0.174418
H37   H     H_    0.828848 0.275688 0.106680 0.116013
H38   H     H_    0.171617 0.275936 0.893548 0.113605
H39   H     H_    0.327946 0.776301 0.107202 0.114184
H40   H     H_    0.612665 0.743934 0.984237 0.095410
H41   H     H_    0.903088 0.754520 0.172355 0.089701
H42   H     H_    0.170975 0.720566 0.800378 0.091984
H43   H     H_    0.329249 0.220591 0.199809 0.090888
H44   H     H_    0.669519 0.222057 0.800484 0.093399
H45   H     H_    0.822359 0.561274 0.887522 0.102369
H46   H     H_    0.142787 0.574448 0.159262 0.101819
H47   H     H_    0.356035 0.074077 0.842060 0.110428
H48   H     H_    0.647778 0.071447 0.153250 0.105738
H49   H     H_    0.188261 0.239982 0.357452 0.133972
H50   H     H_    0.809424 0.242306 0.642448 0.133578
H51   H     H_    0.875330 0.844473 0.300847 0.122574
H52   H     H_    0.312166 0.740115 0.642191 0.135778
N1    N     N_R   0.908660 0.628630 0.995840 -0.063279
N2    N     N_R   0.091340 0.628630 0.004160 -0.055896
N3    N     N_R   0.408660 0.128630 0.995840 -0.061825
N4    N     N_R   0.591340 0.128630 0.004160 -0.061020
N5    N     N_R   0.922310 0.368460 0.151950 -0.067109
N6    N     N_R   0.077690 0.368460 0.848050 -0.065285
N7    N     N_R   0.422310 0.868460 0.151950 -0.066440
N8    N     N_R   0.577690 0.868460 0.848050 -0.061042
N9    N     N_R   0.903470 0.421430 0.936420 -0.038955
N10   N     N_R   0.096530 0.421430 0.063580 -0.044826
N11   N     N_R   0.403470 0.921430 0.936420 -0.034351
N12   N     N_R   0.596530 0.921430 0.063580 -0.040657
N13   N     N_R   0.927500 0.575670 0.211370 -0.046579
N14   N     N_R   0.072500 0.575670 0.788630 -0.048379
N15   N     N_R   0.427500 0.075670 0.211370 -0.047626
N16   N     N_R   0.572500 0.075670 0.788630 -0.039248
N17   N     N_R   0.908660 0.365680 0.995820 -0.038274
N18   N     N_R   0.091340 0.365680 0.004180 -0.038742
N19   N     N_R   0.408660 0.865680 0.995820 -0.037986
N20   N     N_R   0.591340 0.865680 0.004180 -0.031904
N21   N     N_R   0.922310 0.631420 0.151980 -0.042653
N22   N     N_R   0.077690 0.631420 0.848020 -0.042220
N23   N     N_R   0.422310 0.131420 0.151980 -0.039466
N24   N     N_R   0.577690 0.131420 0.848020 -0.044430
N25   N     N_R   0.927500 0.426330 0.211360 -0.101019
N26   N     N_R   0.072500 0.426330 0.788640 -0.100551
N27   N     N_R   0.427500 0.926330 0.211360 -0.101438
N28   N     N_R   0.572500 0.926330 0.788640 -0.066079
N29   N     N_R   0.903470 0.570760 0.936440 -0.044283
N30   N     N_R   0.096530 0.570760 0.063560 -0.041717
N31   N     N_R   0.403470 0.070760 0.936440 -0.043070
N32   N     N_R   0.596530 0.070760 0.063560 -0.046799
Ni1   Ni    Ni4+2 1.000000 0.630300 0.000000 0.215947
Ni2   Ni    Ni4+2 0.500000 0.130300 0.000000 0.229784
Ni3   Ni    Ni4+2 1.000000 0.369700 0.000000 0.200198
Ni4   Ni    Ni4+2 0.500000 0.869700 0.000000 0.204240
Ni5   Ni    Ni4+2 0.988090 0.497570 0.863760 0.218616
Ni6   Ni    Ni4+2 0.011910 0.497570 0.136240 0.213238
Ni7   Ni    Ni4+2 0.488090 0.997570 0.863760 0.262611
Ni8   Ni    Ni4+2 0.511910 0.997570 0.136240 0.208644
O1    O     O_3   0.863409 0.811697 0.637027 -0.710185
H53   H     H_    0.816797 0.830385 0.711745 0.314450
O2    O     O_3   0.237855 0.724572 0.348115 -0.726692
H54   H     H_    0.208559 0.705096 0.318138 0.313975
O3    O     O_3   0.261813 0.224407 0.652357 -0.723779
H55   H     H_    0.290589 0.204991 0.683018 0.316771
O4    O     O_3   0.741746 0.224697 0.340549 -0.722690
H56   H     H_    0.714005 0.204881 0.308619 0.315941
O5    O     O_3   0.149722 0.846619 0.056982 -0.781477
H57   H     H_    0.163362 0.902952 0.044742 0.308934
O6    O     O_3   0.688583 0.756024 0.183840 -0.766352
H58   H     H_    0.650206 0.798669 0.232206 0.316215
O7    O     O_3   0.650692 0.343604 0.058120 -0.769100
H59   H     H_    0.663645 0.400112 0.047046 0.314072
O8    O     O_3   0.349506 0.346020 0.944321 -0.769494
H60   H     H_    0.336220 0.402403 0.956116 0.312856
O9    O     O_3   0.933197 0.423796 0.362619 -0.800911
H61   H     H_    0.974868 0.465467 0.317424 0.302552
O10   O     O_3   0.066929 0.423813 0.636957 -0.803969
H62   H     H_    0.036839 0.473362 0.672451 0.311485
O11   O     O_3   0.432978 0.924028 0.363121 -0.806339
H63   H     H_    0.463093 0.973619 0.327625 0.310636
O12   O     O_3   0.606368 0.923252 0.610872 -0.795006
H64   H     H_    0.631452 0.882169 0.553844 0.315738

loop_
_geom_bond_atom_site_label_1
_geom_bond_atom_site_label_2
_ccdc_geom_bond_type
C83   C87   A    
O12   H64   S    
C82   N30   A    
C82   H46   S    
C76   H44   S    
O11   H63   S    
C19   C23   A    
C28   H52   S    
C71   H39   S    
C68   H36   S    
N12   N20   A    
C53   C59   D    
N22   Ni1   S    
C54   C60   D    
O1    H53   S    
C59   O7    S    
C47   H27   S    
C70   H38   S    
C33   C39   A    
C7    C79   A    
C72   H40   S    
C37   C41   S    
C9    C61   A    
C14   C74   A    
C67   N15   A    
C35   C37   A    
C24   C26   A    
C38   C42   S    
C11   C63   A    
C42   H10   S    
C49   H13   S    
C54   C87   S    
C20   C40   A    
N16   Ni7   S    
C11   C71   A    
C6    C78   A    
C80   O12   S    
C43   O3    S    
C77   N25   A    
C29   C33   A    
C63   H31   S    
C54   H22   S    
C3    H3    S    
C7    C36   S    
N29   Ni5   S    
C2    H2    S    
C41   H9    S    
C73   N21   A    
C52   H16   S    
C72   N20   A    
N5    Ni3   S    
C79   O11   S    
C83   N31   A    
C69   N17   A    
C66   H34   S    
N24   Ni2   S    
C16   C68   A    
C81   N29   A    
C6    C46   A    
N14   Ni5   S    
C83   H47   S    
C48   H28   S    
C12   C58   S    
C44   C52   S    
C15   C23   S    
N27   Ni8   S    
C21   C27   A    
C69   H37   S    
O10   H62   S    
C16   C24   S    
C16   C76   A    
C5    C34   S    
N1    Ni1   S    
N25   Ni6   S    
N20   Ni4   S    
C41   O1    S    
C10   C62   A    
C77   O9    S    
C41   C49   S    
C75   H43   S    
N2    Ni1   S    
C47   N7    A    
C25   C29   A    
C73   H41   S    
C78   N26   A    
C46   H26   S    
C3    C87   A    
O6    H58   S    
C20   C24   A    
C80   N28   A    
C28   C32   A    
C3    N3    A    
C17   C49   S    
C74   N22   A    
C30   C34   A    
N7    Ni4   S    
C4    H4    S    
N5    N25   A    
C26   H50   S    
C82   C86   A    
C5    C45   A    
N17   Ni3   S    
C27   H51   S    
C25   H49   S    
N13   N21   A    
C9    C59   S    
C8    C35   S    
C7    C47   A    
N12   Ni8   S    
C10   C60   S    
O2    H54   S    
C8    C48   A    
C57   O5    S    
N7    N27   A    
C19   C51   S    
N21   Ni1   S    
N11   Ni7   S    
O9    H61   S    
C15   C67   A    
N6    Ni3   S    
N9    Ni5   S    
C14   C66   A    
C13   C21   S    
N26   Ni5   S    
C17   C37   A    
N8    N28   A    
C63   N11   A    
C19   C39   A    
C42   C50   S    
C10   C70   A    
C75   N23   A    
C51   H19   S    
C32   H8    S    
C64   N12   A    
C50   H14   S    
C65   H33   S    
N19   Ni4   S    
C55   C57   D    
C27   C31   A    
C2    N2    A    
C45   N5    A    
C76   N24   A    
C1    C85   A    
C78   O10   S    
C9    C69   A    
C5    C77   A    
N8    Ni4   S    
C32   C36   A    
C50   H18   S    
N15   Ni8   S    
C18   C50   S    
C66   N14   A    
C15   C75   A    
C53   H21   S    
C12   C64   A    
N13   Ni6   S    
C84   H48   S    
C1    H1    S    
C62   N10   A    
C55   H23   S    
N1    N29   A    
C18   C22   A    
N14   N22   A    
C84   C88   A    
N31   Ni7   S    
C13   C73   A    
C68   N16   A    
C67   H35   S    
C4    N4    A    
C49   H17   S    
C81   H45   S    
C84   N32   A    
C4    C88   A    
C42   O2    S    
N28   Ni7   S    
C71   N19   A    
N4    N32   A    
O3    H55   S    
C64   H32   S    
C6    C33   S    
N2    N30   A    
N15   N23   A    
C14   C22   S    
C55   C86   S    
C74   H42   S    
C18   C38   A    
N3    N31   A    
O4    H56   S    
C30   H6    S    
C61   H29   S    
N10   Ni6   S    
C43   H11   S    
N16   N24   A    
C29   H5    S    
C44   H12   S    
N32   Ni8   S    
C56   C85   S    
C46   N6    A    
N9    N17   A    
C61   N9    A    
C43   C51   S    
C31   H7    S    
C48   N8    A    
C36   C38   A    
C56   C58   D    
C2    C86   A    
C53   C88   S    
C31   C35   A    
C23   C25   A    
C65   N13   A    
C12   C72   A    
O5    H57   S    
C13   C65   A    
C17   C21   A    
C62   H30   S    
C1    N1    A    
C44   O4    S    
O8    H60   S    
C45   H25   S    
N18   Ni3   S    
C40   C44   S    
C52   H20   S    
C20   C52   S    
O7    H59   S    
C39   C43   S    
N4    Ni2   S    
C58   O6    S    
C8    C80   A    
C34   C40   A    
C22   C28   A    
N6    N26   A    
N3    Ni2   S    
C79   N27   A    
C11   C57   S    
N23   Ni2   S    
C51   H15   S    
C56   H24   S    
N10   N18   A    
C81   C85   A    
C70   N18   A    
C60   O8    S    
N11   N19   A    
N30   Ni6   S    
C26   C30   A    
