data_mof_unit_50963.cif
_audit_creation_date              2012-12-10T17:38:49-0500
_audit_creation_method            fapswitch 2.2
_symmetry_space_group_name_H-M    P1
_symmetry_Int_Tables_number       1
_space_group_crystal_system       triclinic
_cell_length_a                    12.307999
_cell_length_b                    13.143258
_cell_length_c                    23.511983
_cell_angle_alpha                 77.895166
_cell_angle_beta                  101.008083
_cell_angle_gamma                 116.474359
_cell_volume                      3308.2090972

loop_
_atom_site_label
_atom_site_type_symbol
_atom_type_description
_atom_site_fract_x
_atom_site_fract_y
_atom_site_fract_z
_atom_type_partial_charge
C1    C     C_R   0.854896 0.286521 0.504435 0.778039
C2    C     C_R   0.088162 0.580512 0.880060 0.532981
C3    C     C_R   0.957577 0.565051 0.751585 -0.101846
C4    C     C_R   0.000100 0.501290 0.608823 0.804374
C5    C     C_R   0.955507 0.569886 0.691261 0.131749
C6    C     C_R   0.998836 0.501049 0.671468 -0.050568
C7    C     C_R   0.043511 0.430435 0.712712 -0.261510
C8    C     C_R   0.044332 0.426462 0.772387 -0.105623
C9    C     C_R   0.001411 0.493641 0.791906 0.323247
C10   C     C_R   0.096212 0.482890 0.251373 -0.106277
C11   C     C_R   0.095810 0.485013 0.310344 -0.217636
C12   C     C_R   0.829064 0.302194 0.037152 -0.154849
C13   C     C_R   0.001296 0.498333 0.328776 -0.038441
C14   C     C_R   0.907295 0.509433 0.287143 -0.222296
C15   C     C_R   0.907781 0.506967 0.228205 -0.102696
C16   C     C_R   0.145103 0.713623 0.491589 0.800025
C17   C     C_R   0.002200 0.493727 0.210157 0.357819
C18   C     C_R   0.271126 0.025083 0.426968 -0.177851
C19   C     C_R   0.227755 0.835283 0.479889 -0.051356
C20   C     C_R   0.815896 0.083138 0.537168 -0.183273
C21   C     C_R   0.737415 0.967527 0.546053 -0.141110
C22   C     C_R   0.613764 0.931003 0.526517 -0.161300
C23   C     C_R   0.826415 0.298570 0.977660 0.147602
C24   C     C_R   0.566174 0.009971 0.495450 0.075890
C25   C     C_R   0.649334 0.125058 0.479896 0.034695
C26   C     C_R   0.439148 0.978131 0.478874 0.032820
C27   C     C_R   0.397674 0.058103 0.442437 0.145540
C28   C     C_R   0.000511 0.499857 0.391110 0.793794
C29   C     C_R   0.483478 0.167907 0.421270 0.141452
C30   C     C_R   0.607494 0.198187 0.438673 -0.190044
C31   C     C_R   0.351726 0.869022 0.498629 -0.231760
C32   C     C_R   0.187180 0.914326 0.445088 -0.198640
C33   C     C_R   0.772900 0.163443 0.505460 -0.090307
C34   C     C_R   0.913682 0.392412 0.943831 -0.032000
C35   C     C_R   0.346093 0.328016 0.592919 -0.293359
C36   C     C_R   0.759815 0.645573 0.421152 0.069115
C37   C     C_R   0.663089 0.676982 0.403856 -0.248479
C38   C     C_R   0.559265 0.621751 0.433362 -0.193387
C39   C     C_R   0.551075 0.533997 0.480923 -0.006624
C40   C     C_R   0.088633 0.582266 0.118587 0.530511
C41   C     C_R   0.652779 0.504907 0.497123 0.286000
C42   C     C_R   0.446634 0.474539 0.513146 -0.038681
C43   C     C_R   0.446240 0.387505 0.560481 0.172454
C44   C     C_R   0.546011 0.360608 0.575510 -0.272852
C45   C     C_R   0.001867 0.486920 0.971635 -0.053636
C46   C     C_R   0.647031 0.418312 0.544780 -0.188904
C47   C     C_R   0.341862 0.497444 0.500861 0.015470
C48   C     C_R   0.246418 0.354975 0.578713 0.075334
C49   C     C_R   0.917396 0.399281 0.123778 0.540197
C50   C     C_R   0.915680 0.395844 0.064288 -0.057961
C51   C     C_R   0.002623 0.488225 0.031674 -0.018889
C52   C     C_R   0.090375 0.582440 0.059098 -0.003283
C53   C     C_3   0.445604 0.254821 0.380572 -0.866246
C54   C     C_3   0.729201 0.193364 0.952761 -0.738688
C55   C     C_3   0.910470 0.650942 0.649830 -0.823953
C56   C     C_R   0.089674 0.581041 0.939572 -0.004856
C57   C     C_R   0.176854 0.674011 0.967464 -0.163084
C58   C     C_R   0.177217 0.674695 0.026572 -0.167176
C59   C     C_R   0.916960 0.397088 0.883300 0.540058
Cu1   Cu    Cu3+1 0.098270 0.475410 0.513370 0.937537
Cu2   Cu    Cu3+1 0.901730 0.524590 0.486630 0.918898
H1    H     H_    0.762378 0.230935 0.062544 0.188780
H2    H     H_    0.771933 0.906030 0.569867 0.143743
H3    H     H_    0.671264 0.279133 0.418141 0.178879
H4    H     H_    0.168685 0.309485 0.603540 0.119670
H5    H     H_    0.546492 0.294439 0.611817 0.161705
H6    H     H_    0.345097 0.261306 0.629122 0.143653
H7    H     H_    0.333992 0.561849 0.465673 0.123283
H8    H     H_    0.840085 0.688896 0.398021 0.128558
H9    H     H_    0.487210 0.649581 0.418095 0.139160
H10   H     H_    0.668605 0.744367 0.367464 0.154110
H11   H     H_    0.718967 0.392189 0.560445 0.211208
H12   H     H_    0.169541 0.476409 0.341392 0.156560
H13   H     H_    0.245044 0.746906 0.943654 0.187772
H14   H     H_    0.245577 0.747939 0.046608 0.187850
H15   H     H_    0.925061 0.616787 0.767686 0.137131
H16   H     H_    0.076837 0.377040 0.698722 0.159745
H17   H     H_    0.078583 0.371293 0.803572 0.146345
H18   H     H_    0.169358 0.472487 0.237643 0.140338
H19   H     H_    0.525405 0.336303 0.368389 0.236459
H20   H     H_    0.394460 0.219547 0.339647 0.235413
H21   H     H_    0.387290 0.276037 0.402342 0.233789
H22   H     H_    0.772353 0.149250 0.935710 0.257413
H23   H     H_    0.833199 0.519571 0.300069 0.157813
H24   H     H_    0.671234 0.129958 0.986291 0.201032
H25   H     H_    0.667515 0.218057 0.917616 0.258199
H26   H     H_    0.979958 0.708561 0.619770 0.235908
H27   H     H_    0.823225 0.601525 0.624271 0.249738
H28   H     H_    0.893078 0.705949 0.673602 0.217451
H29   H     H_    0.835013 0.515665 0.196457 0.141682
H30   H     H_    0.091087 0.889511 0.430206 0.152043
H31   H     H_    0.235837 0.083131 0.399496 0.151200
H32   H     H_    0.377499 0.807534 0.528735 0.150969
H33   H     H_    0.910166 0.109888 0.556156 0.151617
H34   H     H_    0.558806 0.839962 0.535291 0.128382
N1    N     N_R   0.002816 0.491653 0.149517 -0.467779
N2    N     N_R   0.002662 0.489980 0.853368 -0.464827
N3    N     N_R   0.246280 0.438190 0.533650 -0.179053
N4    N     N_R   0.754320 0.561190 0.466710 -0.206716
O1    O     O_R   0.972510 0.318130 0.516820 -0.579643
O2    O     O_R   0.082990 0.479280 0.429170 -0.583912
O3    O     O_R   0.917010 0.520800 0.406580 -0.594489
O4    O     O_2   0.171250 0.672296 0.145239 -0.540277
O5    O     O_2   0.834886 0.310816 0.155787 -0.541223
O6    O     O_2   0.835328 0.311029 0.853921 -0.547059
O7    O     O_2   0.171654 0.669816 0.848876 -0.539749
O8    O     O_R   0.806530 0.359650 0.494230 -0.603918
O9    O     O_R   0.082990 0.479200 0.593420 -0.578964
O10   O     O_R   0.917010 0.520720 0.570830 -0.594632
O11   O     O_R   0.193470 0.640350 0.505770 -0.584507
O12   O     O_R   0.027490 0.681870 0.483180 -0.587009

loop_
_geom_bond_atom_site_label_1
_geom_bond_atom_site_label_2
_ccdc_geom_bond_type
C4    O10   A    
C38   H9    S    
C30   H3    S    
C27   C29   A    
C22   H34   S    
C44   H5    S    
C14   H23   S    
C19   C31   A    
C49   O5    S    
C1    C33   S    
C7    C8    A    
C39   C41   A    
C4    O9    A    
C12   C23   A    
C26   C27   A    
C29   C30   A    
C47   N3    A    
C36   C37   A    
C24   C26   A    
Cu1   N3    S    
C38   C39   A    
C32   H30   S    
C19   C32   A    
C10   C17   A    
C56   C57   A    
C53   H20   S    
C55   H27   S    
C28   O2    A    
C45   C56   A    
C8    C9    A    
C41   C46   A    
C41   N4    A    
C13   C28   S    
C48   H4    S    
C35   C43   A    
C46   H11   S    
Cu1   O9    S    
C7    H16   S    
Cu2   O10   S    
C26   C31   A    
C21   C22   A    
C8    H17   S    
Cu2   N4    S    
C40   N1    A    
C35   C48   A    
C1    O1    A    
C54   H22   S    
C44   C46   A    
C58   H14   S    
C39   C42   A    
C16   O11   A    
C51   C52   A    
C53   H19   S    
C24   C25   A    
C2    N2    A    
C4    C6    S    
C11   H12   S    
C34   C45   A    
C3    C5    A    
C40   C52   A    
C2    O7    S    
Cu1   Cu2   S    
C57   H13   S    
C43   C44   A    
C37   C38   A    
C3    C9    A    
C12   H1    S    
C35   H6    S    
C23   C34   A    
C50   C51   A    
C17   N1    S    
C59   O6    S    
C3    H15   S    
C52   C58   A    
C1    O8    A    
C20   C33   A    
C37   H10   S    
C34   C59   A    
C59   N2    A    
C22   C24   A    
C18   C32   A    
C42   C43   A    
Cu1   O2    S    
Cu2   O12   S    
C47   H7    S    
C36   H8    S    
C23   C54   S    
C54   H25   S    
C25   C30   A    
C15   C17   A    
C20   H33   S    
C9    N2    S    
C5    C55   S    
C18   C27   A    
Cu1   O1    S    
C54   H24   S    
C12   C50   A    
C10   H18   S    
C6    C7    A    
C48   N3    A    
C18   H31   S    
Cu2   O3    S    
C55   H28   S    
C31   H32   S    
C40   O4    S    
C11   C13   A    
C57   C58   A    
C5    C6    A    
C29   C53   S    
C16   C19   S    
C36   N4    A    
C42   C47   A    
C49   N1    A    
C55   H26   S    
Cu2   O8    S    
C21   H2    S    
Cu1   O11   S    
C10   C11   A    
C28   O3    A    
C20   C21   A    
C49   C50   A    
C45   C51   A    
C14   C15   A    
C53   H21   S    
C2    C56   A    
C13   C14   A    
C16   O12   A    
C25   C33   A    
C15   H29   S    
