data_mof_unit_31758.cif
_audit_creation_date              2012-12-11T14:21:11-0500
_audit_creation_method            fapswitch 2.2
_symmetry_space_group_name_H-M    P1
_symmetry_Int_Tables_number       1
_space_group_crystal_system       triclinic
_cell_length_a                    11.601557
_cell_length_b                    11.532752
_cell_length_c                    19.520106
_cell_angle_alpha                 90.535941
_cell_angle_beta                  90.021545
_cell_angle_gamma                 59.753982
_cell_volume                      2256.08565474

loop_
_atom_site_label
_atom_site_type_symbol
_atom_type_description
_atom_site_fract_x
_atom_site_fract_y
_atom_site_fract_z
_atom_type_partial_charge
C1    C     C_R   0.640338 0.117741 0.599149 0.559337
C2    C     C_1   0.641120 0.703867 0.667919 0.005348
C3    C     C_1   0.127028 0.198077 0.859379 0.003535
C4    C     C_1   0.171372 0.170412 0.727666 -0.031104
C5    C     C_1   0.150330 0.181819 0.798952 -0.030903
C6    C     C_1   0.195010 0.161393 0.667281 0.002943
C7    C     C_1   0.678754 0.190726 0.860885 0.003656
C8    C     C_1   0.658199 0.167596 0.729025 -0.031193
C9    C     C_1   0.665624 0.180690 0.800395 -0.030814
C10   C     C_1   0.652546 0.150312 0.668556 0.002068
C11   C     C_R   0.668996 0.649765 0.197893 0.006735
C12   C     C_R   0.612319 0.746145 0.598556 0.545740
C13   C     C_R   0.543306 0.700025 0.229450 0.018994
C14   C     C_R   0.541512 0.672860 0.298630 0.028254
C15   C     C_R   0.774759 0.606724 0.309339 -0.173004
C16   C     C_R   0.784972 0.591176 0.238547 -0.151163
C17   C     C_R   0.421702 0.762949 0.192986 -0.113624
C18   C     C_R   0.305875 0.776779 0.222104 -0.105051
C19   C     C_R   0.308454 0.731395 0.288490 0.003099
C20   C     C_R   0.427824 0.672970 0.324984 -0.122443
C21   C     C_R   0.650344 0.656813 0.339703 0.005797
C22   C     C_R   0.170395 0.181467 0.184662 -0.014727
C23   C     C_R   0.240772 0.145593 0.598086 0.559893
C24   C     C_R   0.244527 0.239619 0.208293 0.025399
C25   C     C_R   0.275050 0.232806 0.278806 0.021820
C26   C     C_R   0.198730 0.071703 0.293409 -0.132661
C27   C     C_R   0.149736 0.096714 0.227260 -0.150710
C28   C     C_R   0.279918 0.313223 0.163923 -0.092621
C29   C     C_R   0.312926 0.404630 0.190102 -0.111624
C30   C     C_R   0.322153 0.415072 0.260225 -0.133921
C31   C     C_R   0.313088 0.324879 0.303640 -0.109814
C32   C     C_R   0.259452 0.139718 0.320950 -0.007422
C33   C     C_R   0.664540 0.179719 0.189245 0.010681
C34   C     C_R   0.626559 0.085183 0.394259 0.524825
C35   C     C_R   0.710860 0.044689 0.206009 0.030733
C36   C     C_R   0.720291 0.009501 0.275545 0.025503
C37   C     C_R   0.610612 0.246234 0.307702 -0.140955
C38   C     C_R   0.619917 0.278286 0.240591 -0.141854
C39   C     C_R   0.763004 0.942072 0.155295 -0.095793
C40   C     C_R   0.854258 0.811102 0.173149 -0.109154
C41   C     C_R   0.882369 0.779492 0.241710 -0.069185
C42   C     C_R   0.806216 0.873153 0.292349 -0.049293
C43   C     C_R   0.653415 0.113556 0.325247 0.013197
C44   C     C_R   0.082055 0.230716 0.928695 0.541671
C45   C     C_R   0.618866 0.730874 0.404942 0.529530
C46   C     C_R   0.683841 0.604286 0.929565 0.542891
C47   C     C_R   0.708395 0.206345 0.930223 0.539458
C48   C     C_R   0.088220 0.232677 0.123263 0.532747
C49   C     C_R   0.683624 0.609696 0.126460 0.532277
C50   C     C_R   0.705901 0.209638 0.125106 0.533604
C51   C     C_R   0.300235 0.116908 0.393492 0.537406
C52   C     C_1   0.670204 0.646542 0.860199 0.003222
C53   C     C_1   0.654645 0.683652 0.728402 -0.030916
C54   C     C_1   0.663265 0.666752 0.799712 -0.031556
Cr1   Cr    Cr6+3 0.404720 0.198220 0.499960 1.009735
Cr2   Cr    Cr6+3 0.698290 0.897110 0.500380 1.023615
Cr3   Cr    Cr6+3 0.396970 0.904720 0.499610 1.026144
Cr4   Cr    Cr6+3 0.926180 0.151990 0.028120 1.024291
Cr5   Cr    Cr6+3 0.921330 0.451820 0.027470 1.012077
Cr6   Cr    Cr6+3 0.626260 0.446870 0.028710 1.017495
H1    H     H_    0.861961 0.582774 0.339745 0.124551
H2    H     H_    0.332243 0.466642 0.156117 0.124482
H3    H     H_    0.349552 0.484608 0.280893 0.106256
H4    H     H_    0.336338 0.333156 0.355809 0.164655
H5    H     H_    0.569990 0.325671 0.346046 0.125043
H6    H     H_    0.743454 0.964501 0.101362 0.122876
H7    H     H_    0.593364 0.380520 0.228934 0.139882
H8    H     H_    0.905476 0.735058 0.133914 0.123373
H9    H     H_    0.959873 0.679863 0.255965 0.123207
H10   H     H_    0.826911 0.837017 0.343901 0.169509
H11   H     H_    0.416379 0.798864 0.141369 0.130186
H12   H     H_    0.883475 0.538694 0.215486 0.150064
H13   H     H_    0.214973 0.820999 0.192413 0.146575
H14   H     H_    0.429840 0.632683 0.375186 0.119682
H15   H     H_    0.179607 0.006522 0.324859 0.186194
H16   H     H_    0.277321 0.304415 0.108783 0.130836
H17   H     H_    0.089073 0.054860 0.210676 0.168496
O1    O     O_R   0.267740 0.231960 0.575440 -0.500360
O2    O     O_R   0.685970 0.784660 0.430010 -0.525124
O3    O     O_R   0.502530 0.767000 0.423990 -0.530674
O4    O     O_R   0.288330 0.026350 0.429250 -0.488396
O5    O     O_3   0.499990 0.000020 0.499980 -0.281244
O6    O     O_R   0.821500 0.119340 0.952830 -0.510961
O7    O     O_R   0.037130 0.162530 0.957360 -0.495343
O8    O     O_R   0.056440 0.344740 0.951340 -0.509403
O9    O     O_R   0.797900 0.560360 0.957470 -0.494378
O10   O     O_R   0.596130 0.579390 0.952730 -0.506431
O11   O     O_R   0.639060 0.321160 0.958670 -0.495534
O12   O     O_R   0.527280 0.186640 0.570530 -0.489774
O13   O     O_R   0.821240 0.124200 0.104370 -0.513756
O14   O     O_R   0.036890 0.167040 0.097840 -0.503202
O15   O     O_R   0.056180 0.349610 0.102880 -0.527390
O16   O     O_R   0.797660 0.564870 0.097950 -0.511004
O17   O     O_R   0.595880 0.584250 0.104270 -0.522168
O18   O     O_R   0.638830 0.325670 0.099150 -0.507378
O19   O     O_3   0.824590 0.350230 0.028100 -0.246283
O20   O     O_R   0.728090 0.003450 0.576380 -0.495279
O21   O     O_R   0.682970 0.789190 0.570490 -0.492232
O22   O     O_R   0.499290 0.771880 0.575530 -0.506109
O23   O     O_R   0.285330 0.030870 0.569730 -0.484977
O24   O     O_R   0.270980 0.227080 0.423890 -0.531802
O25   O     O_R   0.530280 0.182120 0.430050 -0.530355
O26   O     O_R   0.731330 0.998570 0.424830 -0.506341
C55   C     C_2   0.185765 0.752761 0.322375 0.192002
H18   H     H_    0.191535 0.696858 0.367939 0.096482
O27   O     O_2   0.076734 0.837639 0.301444 -0.530669

loop_
_geom_bond_atom_site_label_1
_geom_bond_atom_site_label_2
_ccdc_geom_bond_type
C25   C31   A    
C22   C48   S    
C26   C32   A    
C41   C42   A    
C36   C42   A    
C35   C36   A    
C16   H12   S    
Cr2   O21   S    
C2    C12   S    
C55   O27   D    
Cr6   O11   S    
C53   C54   S    
Cr1   O25   S    
C26   C27   A    
C29   C30   A    
Cr2   O2    S    
C14   C21   A    
C28   C29   A    
C30   C31   A    
C50   O18   A    
C15   C16   A    
Cr3   O22   S    
C46   C52   S    
C42   H10   S    
C18   C19   A    
C11   C16   A    
Cr4   O19   S    
C12   O22   A    
C50   O13   A    
C19   C20   A    
C8    C9    S    
C48   O14   A    
C37   H5    S    
C47   O6    A    
C49   O17   A    
Cr4   O14   S    
C51   O4    A    
C12   O21   A    
C25   C32   A    
C23   O23   A    
C30   H3    S    
Cr3   O3    S    
Cr2   O20   S    
C55   H18   S    
Cr6   O10   S    
C52   C54   T    
C26   H15   S    
C21   C45   S    
C3    C44   S    
C34   C43   S    
C14   C20   A    
C24   C25   A    
C4    C6    T    
C1    O20   A    
C39   C40   A    
Cr1   O1    S    
C27   H17   S    
C33   C50   S    
Cr3   O23   S    
C7    C47   S    
C37   C43   A    
C35   C39   A    
Cr5   O8    S    
C32   C51   S    
C37   C38   A    
C11   C49   S    
Cr4   O7    S    
C19   C55   S    
C17   C18   A    
C15   H1    S    
C20   H14   S    
C45   O2    A    
C34   O25   A    
Cr1   O5    S    
Cr4   O13   S    
Cr6   O19   S    
C40   C41   A    
C17   H11   S    
C18   H13   S    
C22   C27   A    
C40   H8    S    
C39   H6    S    
C22   C24   A    
Cr5   O19   S    
C44   O8    A    
C28   H16   S    
C3    C5    T    
C41   H9    S    
C46   O10   A    
C7    C9    T    
C29   H2    S    
C1    O12   A    
C31   H4    S    
C1    C10   S    
C24   C28   A    
Cr2   O26   S    
C4    C5    S    
C44   O7    A    
C2    C53   T    
Cr2   O5    S    
C51   O24   A    
Cr1   O24   S    
C33   C38   A    
C13   C17   A    
C47   O11   A    
Cr5   O9    S    
Cr1   O12   S    
Cr4   O6    S    
C11   C13   A    
C6    C23   S    
C34   O26   A    
C33   C35   A    
C45   O3    A    
Cr3   O4    S    
Cr5   O15   S    
C23   O1    A    
Cr6   O18   S    
C15   C21   A    
C38   H7    S    
C8    C10   T    
C48   O15   A    
Cr3   O5    S    
C36   C43   A    
Cr5   O16   S    
C49   O16   A    
C13   C14   A    
C46   O9    A    
Cr6   O17   S    
