data_mof_unit_10621.cif
_audit_creation_date              2013-03-05T16:05:09-0500
_audit_creation_method            fapswitch 2.2
_symmetry_space_group_name_H-M    P1
_symmetry_Int_Tables_number       1
_space_group_crystal_system       triclinic
_cell_length_a                    10.830312
_cell_length_b                    9.51526
_cell_length_c                    10.737617
_cell_angle_alpha                 90.088349
_cell_angle_beta                  90.140588
_cell_angle_gamma                 90.004559
_cell_volume                      1106.54151285

loop_
_atom_site_label
_atom_site_type_symbol
_atom_site_description
_atom_site_fract_x
_atom_site_fract_y
_atom_site_fract_z
_atom_type_partial_charge
O1    O     O_R   0.319660 0.618740 0.499990 -0.581576
O2    O     O_R   0.319660 0.381260 0.499990 -0.578746
C1    C     C_R   0.262077 0.500004 0.499784 0.853235
O3    O     O_R   0.499990 0.618790 0.317690 -0.584037
O4    O     O_R   0.499990 0.381210 0.317690 -0.572852
C2    C     C_R   0.491826 0.499720 0.260232 0.865371
Cu1   Cu    Cu3+1 0.500020 0.640660 0.500000 0.964834
Cu2   Cu    Cu3+1 0.500020 0.359340 0.500000 0.969235
O5    O     O_R   0.680370 0.618830 0.500010 -0.590105
O6    O     O_R   0.680370 0.381170 0.500010 -0.591189
O7    O     O_R   0.500030 0.618780 0.682310 -0.591955
O8    O     O_R   0.500030 0.381220 0.682310 -0.594244
C3    C     C_R   0.737939 0.500004 0.499813 0.788228
C4    C     C_R   0.496247 0.500021 0.740164 0.787508
C5    C     C_3   0.405250 0.622960 0.069890 0.199957
C6    C     C_3   0.439506 0.352663 0.069204 0.213590
H1    H     H_    0.446056 0.723281 0.104627 0.111234
H2    H     H_    0.512371 0.273476 0.090691 0.099875
C7    C     C_3   0.414490 0.626841 0.925782 -0.417648
C8    C     C_3   0.429744 0.362515 0.926102 -0.390136
H3    H     H_    0.322230 0.627629 0.880205 0.200403
H4    H     H_    0.331396 0.360479 0.895643 0.212950
H5    H     H_    0.460216 0.726763 0.897817 0.164166
H6    H     H_    0.475131 0.268051 0.885496 0.164685
H7    H     H_    0.655129 0.624251 0.104931 0.198705
H8    H     H_    0.682250 0.439093 0.114415 0.192396
H9    H     H_    0.670882 0.605705 0.893463 0.182085
H10   H     H_    0.678387 0.417487 0.902423 0.180777
C9    C     C_3   0.619345 0.519976 0.074397 -0.510912
C10   C     C_3   0.485042 0.498296 0.122332 -0.072366
C11   C     C_3   0.491141 0.499926 0.878005 0.030562
C12   C     C_3   0.623572 0.511024 0.931112 -0.393240
C13   C     C_R   0.063895 0.372291 0.498858 -0.130168
C14   C     C_R   0.063911 0.627723 0.498815 -0.126834
H11   H     H_    0.111946 0.272445 0.498740 0.158620
H12   H     H_    0.111973 0.727569 0.498663 0.159565
C15   C     C_R   0.936169 0.372288 0.499013 -0.172628
C16   C     C_R   0.936185 0.627726 0.498964 -0.171002
H13   H     H_    0.888128 0.272431 0.499073 0.153281
H14   H     H_    0.888154 0.727581 0.498983 0.153044
C17   C     C_R   0.871802 0.500008 0.499282 -0.029418
C18   C     C_R   0.128256 0.500007 0.499094 -0.003126
C19   C     C_R   0.425415 0.074280 0.420528 -0.014678
C20   C     C_R   0.425458 0.925488 0.420510 -0.019979
H15   H     H_    0.365465 0.130178 0.357024 0.181558
H16   H     H_    0.365638 0.869427 0.356936 0.175758
N1    N     N_R   0.500030 0.852070 0.500030 -0.167178
N2    N     N_R   0.500030 0.147930 0.500030 -0.168645
C21   C     C_R   0.574577 0.925702 0.579671 -0.021456
C22   C     C_R   0.574588 0.074580 0.579662 -0.022807
H17   H     H_    0.634342 0.869668 0.643383 0.118729
H18   H     H_    0.634364 0.130835 0.643369 0.118799
N3    N     N_R   0.276274 0.618485 0.112055 0.159371
O9    O     O_R   0.191574 0.552940 0.048172 -0.319059
O10   O     O_R   0.243179 0.692165 0.208493 -0.369983
N4    N     N_R   0.323630 0.297033 0.121610 0.143487
O11   O     O_R   0.269034 0.354829 0.216541 -0.328420
O12   O     O_R   0.282884 0.176205 0.082080 -0.367624

loop_
_geom_bond_atom_site_label_1
_geom_bond_atom_site_label_2
_geom_bond_distance
_ccdc_geom_bond_type
C7    H3    1.111571 S    
O4    Cu2   1.968924 S    
C22   H18   1.081779 S    
C19   C20   1.415795 A    
Cu2   N2    2.011623 S    
C1    C18   1.449325 S    
C9    C10   1.557926 S    
N4    O12   1.301622 A    
C19   N2    1.366591 A    
C7    H5    1.113978 S    
C11   C12   1.545722 S    
C14   C18   1.400935 A    
C20   N1    1.366721 A    
Cu2   O8    1.968294 S    
C4    C11   1.481248 S    
C6    C8    1.542939 S    
C7    C11   1.552753 S    
C21   H17   1.081783 S    
C3    C17   1.449803 S    
O2    C1    1.290611 A    
Cu1   Cu2   2.676833 S    
N1    C21   1.367000 A    
C14   C16   1.383319 A    
N3    O9    1.302503 A    
C16   H14   1.083262 S    
C19   H15   1.080932 S    
C6    N4    1.475155 S    
C16   C17   1.401069 A    
O3    Cu1   1.968286 S    
C13   C18   1.400917 A    
C5    N3    1.470080 S    
N2    C22   1.367050 A    
C13   H11   1.083286 S    
O8    C4    1.289732 A    
Cu1   O7    1.968933 S    
C9    C12   1.541550 S    
C14   H12   1.083285 S    
N3    O10   1.300740 A    
H7    C9    1.113765 S    
O4    C2    1.289169 A    
C15   H13   1.083263 S    
O7    C4    1.291056 A    
C13   C15   1.383316 A    
O3    C2    1.292158 A    
C8    H4    1.113609 S    
C6    C10   1.576381 S    
C5    C7    1.551350 S    
Cu1   O5    1.964277 S    
H10   C12   1.113380 S    
N4    O11   1.300922 A    
H8    C9    1.113898 S    
C6    H2    1.115113 S    
C21   C22   1.416612 A    
C5    C10   1.571881 S    
C5    H1    1.115204 S    
O5    C3    1.291222 A    
C2    C10   1.482400 S    
H9    C12   1.113407 S    
O1    Cu1   1.964442 S    
C15   C17   1.401082 A    
O6    C3    1.291206 A    
Cu2   O6    1.964244 S    
O2    Cu2   1.964475 S    
C8    H6    1.113365 S    
C20   H16   1.080238 S    
O1    C1    1.290444 A    
C8    C11   1.556296 S    
Cu1   N1    2.011621 S    
