data_mof_unit_56496.cif
_audit_creation_date              2012-12-11T16:58:14-0500
_audit_creation_method            fapswitch 2.2
_symmetry_space_group_name_H-M    P1
_symmetry_Int_Tables_number       1
_space_group_crystal_system       triclinic
_cell_length_a                    17.090029
_cell_length_b                    7.254178
_cell_length_c                    16.80099
_cell_angle_alpha                 90.001126
_cell_angle_beta                  100.788791
_cell_angle_gamma                 89.998953
_cell_volume                      2046.07046782

loop_
_atom_site_label
_atom_site_type_symbol
_atom_type_description
_atom_site_fract_x
_atom_site_fract_y
_atom_site_fract_z
_atom_type_partial_charge
O1    O     O_R   0.413450 0.494370 0.415710 -0.525034
O2    O     O_R   0.586550 0.994370 0.584290 -0.525064
O3    O     O_R   0.578420 0.819350 0.429360 -0.549708
O4    O     O_R   0.421580 0.319350 0.570640 -0.549762
C1    C     C_R   0.602280 0.656146 0.411464 0.791906
C2    C     C_R   0.397713 0.156153 0.588530 0.791877
O5    O     O_R   0.413570 0.823780 0.406240 -0.556505
O6    O     O_R   0.586430 0.323780 0.593760 -0.556534
O7    O     O_R   0.420530 0.998740 0.561000 -0.510155
O8    O     O_R   0.579470 0.498740 0.439000 -0.510150
C3    C     C_R   0.385798 0.655449 0.383966 0.737799
C4    C     C_R   0.614202 0.155448 0.616033 0.737784
O9    O     O_3   0.502480 0.662320 0.550800 -0.371992
O10   O     O_3   0.497520 0.162320 0.449200 -0.371861
V1    V     V_3+5 0.499540 0.935370 0.490580 1.522820
V2    V     V_3+5 0.500460 0.435370 0.509420 1.522683
C5    C     C_R   0.733974 0.990500 0.694855 0.112915
C6    C     C_R   0.266026 0.490504 0.305144 0.112934
C7    C     C_R   0.685068 0.147094 0.682430 -0.083923
C8    C     C_R   0.314932 0.647095 0.317570 -0.083940
C9    C     C_R   0.708541 0.299886 0.733145 -0.161520
C10   C     C_R   0.291460 0.799883 0.266853 -0.161530
H1    H     H_    0.673969 0.425497 0.725408 0.143602
H2    H     H_    0.326032 0.925491 0.274590 0.143618
C11   C     C_R   0.774106 0.288452 0.797858 -0.128003
C12   C     C_R   0.225896 0.788448 0.202139 -0.127989
H3    H     H_    0.787789 0.406471 0.837363 0.130753
H4    H     H_    0.212214 0.906464 0.162634 0.130744
C13   C     C_R   0.818250 0.123532 0.814167 -0.092247
C14   C     C_R   0.181752 0.623531 0.185830 -0.092213
C15   C     C_R   0.798641 0.978990 0.758786 0.126608
C16   C     C_R   0.201360 0.478993 0.241212 0.126612
C17   C     C_3   0.783667 0.780170 0.772628 -0.421783
C18   C     C_3   0.216334 0.280170 0.227373 -0.421831
C19   C     C_3   0.713041 0.792691 0.702741 -0.396492
C20   C     C_3   0.286960 0.292692 0.297260 -0.396461
H5    H     H_    0.766129 0.754703 0.832166 0.173469
H6    H     H_    0.233873 0.254693 0.167836 0.173469
H7    H     H_    0.832387 0.690864 0.759069 0.209731
H8    H     H_    0.167614 0.190872 0.240932 0.209737
H9    H     H_    0.654632 0.774290 0.721833 0.215446
H10   H     H_    0.345369 0.274280 0.278170 0.215485
H11   H     H_    0.721122 0.710566 0.648995 0.169197
H12   H     H_    0.278877 0.210575 0.351007 0.169200
C21   C     C_R   0.337762 0.158223 0.642343 -0.182812
C22   C     C_R   0.662234 0.658199 0.357655 -0.182826
C23   C     C_R   0.163011 0.111669 0.859061 -0.170785
C24   C     C_R   0.836985 0.611692 0.140931 -0.170738
C25   C     C_R   0.277341 0.948398 0.826090 -0.042724
C26   C     C_R   0.722608 0.448533 0.173846 -0.042693
C27   C     C_R   0.222082 0.975717 0.875807 -0.202939
C28   C     C_R   0.777880 0.475836 0.124142 -0.203077
C29   C     C_R   0.158906 0.221363 0.788207 0.357304
C30   C     C_R   0.841108 0.721313 0.211811 0.357335
C31   C     C_R   0.220960 0.205028 0.741730 -0.022571
C32   C     C_R   0.779051 0.704988 0.258283 -0.022581
C33   C     C_R   0.280747 0.066022 0.760431 -0.025919
C34   C     C_R   0.719234 0.566066 0.239545 -0.025868
C35   C     C_R   0.342273 0.048372 0.713261 0.411326
C36   C     C_R   0.657708 0.548411 0.286714 0.411328
C37   C     C_R   0.279607 0.296387 0.626684 -0.216345
C38   C     C_R   0.720417 0.796291 0.373348 -0.216410
C39   C     C_R   0.225071 0.324535 0.676974 -0.038394
C40   C     C_R   0.774963 0.824429 0.323070 -0.038397
H13   H     H_    0.277821 0.389182 0.575776 0.152768
H14   H     H_    0.722217 0.889034 0.424276 0.152724
H15   H     H_    0.316343 0.831189 0.839804 0.206766
H16   H     H_    0.683565 0.331413 0.160083 0.206773
H17   H     H_    0.187479 0.444390 0.664656 0.208373
H18   H     H_    0.812582 0.944228 0.335421 0.208392
H19   H     H_    0.224113 0.884199 0.927177 0.147123
H20   H     H_    0.775830 0.384386 0.072745 0.147077
O11   O     O_R   0.920630 0.775410 0.061150 -0.505325
O12   O     O_R   0.079370 0.275410 0.938850 -0.505298
O13   O     O_R   0.086500 0.441450 0.093690 -0.549528
O14   O     O_R   0.913500 0.941450 0.906310 -0.549520
C41   C     C_R   0.114669 0.610043 0.115553 0.702254
C42   C     C_R   0.885332 0.110043 0.884444 0.702227
O15   O     O_R   0.921670 0.445960 0.070740 -0.542542
O16   O     O_R   0.078330 0.945960 0.929260 -0.542534
O17   O     O_R   0.913380 0.271130 0.915780 -0.524344
O18   O     O_R   0.086620 0.771130 0.084220 -0.524342
C43   C     C_R   0.897740 0.613523 0.087823 0.744994
C44   C     C_R   0.102260 0.113518 0.912176 0.744976
O19   O     O_3   0.997500 0.603030 0.949220 -0.358207
O20   O     O_3   0.002500 0.103030 0.050780 -0.358243
V3    V     V_3+5 0.000470 0.329940 0.009420 1.570015
V4    V     V_3+5 0.999530 0.829940 0.990580 1.570048
S1    S     S_3+6 0.072653 0.360004 0.752846 0.012770
O21   O     O_2   0.087789 0.551734 0.786003 -0.314425
O22   O     O_2   0.053795 0.369116 0.661849 -0.324999
O23   O     O_3   0.991659 0.274833 0.782697 -0.495856
H21   H     H_    0.981854 0.154709 0.754522 0.319820
S2    S     S_3+6 0.927382 0.859858 0.247201 0.012778
O24   O     O_2   0.912268 0.051641 0.214102 -0.314398
O25   O     O_2   0.946250 0.868837 0.338201 -0.324997
O26   O     O_3   0.008359 0.774688 0.217315 -0.495880
H22   H     H_    0.018159 0.654535 0.245463 0.319825
S3    S     S_3+6 0.427503 0.905595 0.747773 -0.020245
O27   O     O_2   0.498432 0.965646 0.713540 -0.358846
O28   O     O_2   0.450682 0.913722 0.838562 -0.325611
O29   O     O_3   0.404087 0.687203 0.719202 -0.512400
H23   H     H_    0.453894 0.616247 0.736500 0.364563
S4    S     S_3+6 0.572471 0.405698 0.252162 -0.020332
O30   O     O_2   0.501571 0.465459 0.286513 -0.358734
O31   O     O_2   0.549230 0.414255 0.161385 -0.325732
O32   O     O_3   0.595930 0.187194 0.280513 -0.512434
H24   H     H_    0.546191 0.116142 0.262954 0.364599

loop_
_geom_bond_atom_site_label_1
_geom_bond_atom_site_label_2
_ccdc_geom_bond_type
C14   C16   A    
C2    C21   S    
C35   S3    S    
C20   H10   S    
O1    C3    A    
O16   C44   A    
O2    C4    A    
C2    O7    A    
S4    O31   D    
O26   H22   S    
C24   C30   A    
C17   H7    S    
C22   C38   A    
C18   H8    S    
C7    C9    A    
O14   C42   A    
C33   C35   A    
C34   C36   A    
C25   C33   A    
C37   C39   A    
C38   C40   A    
C17   C19   S    
C14   C41   S    
C13   C42   S    
C39   H17   S    
C25   C27   A    
C31   C39   A    
C26   C28   A    
O32   H24   S    
C32   C40   A    
C40   H18   S    
O12   V3    S    
S1    O22   D    
C19   H11   S    
O14   V4    S    
C18   C20   S    
C23   C29   A    
O5    V1    S    
O6    V2    S    
O29   H23   S    
C27   H19   S    
O15   V3    S    
S4    O30   D    
C29   C31   A    
C11   C13   A    
C30   C32   A    
C3    C8    S    
C38   H14   S    
C26   C34   A    
O4    C2    A    
O20   V3    S    
C23   C27   A    
S2    O26   S    
C17   H5    S    
C16   C18   S    
O4    V2    S    
O5    C3    A    
O11   V4    S    
C28   H20   S    
S3    O27   D    
O6    C4    A    
C15   C17   S    
O1    V2    S    
C23   C44   S    
S1    O23   S    
S2    O25   D    
O2    V1    S    
O13   C41   A    
O17   V3    S    
O13   V3    S    
S3    O28   D    
C8    C10   A    
C12   C14   A    
C31   C33   A    
C29   S1    S    
C5    C15   A    
C10   H2    S    
C20   H12   S    
C6    C16   A    
O3    V1    S    
O19   V4    S    
C9    C11   A    
C21   C35   A    
C25   H15   S    
C22   C36   A    
C18   H6    S    
O12   C44   A    
O3    C1    A    
C11   H3    S    
C1    C22   S    
C12   H4    S    
C24   C43   S    
C9    H1    S    
O7    V1    S    
C1    O8    A    
C13   C15   A    
O8    V2    S    
O15   C43   A    
C42   O17   A    
C26   H16   S    
C41   O18   A    
O18   V4    S    
C4    C7    S    
C21   C37   A    
O23   H21   S    
C5    C7    A    
C32   C34   A    
C6    C8    A    
S2    O24   D    
C19   H9    S    
C30   S2    S    
C37   H13   S    
C24   C28   A    
S3    O29   S    
O16   V4    S    
C10   C12   A    
O9    V2    S    
O10   V1    S    
C5    C19   S    
S1    O21   D    
C36   S4    S    
C6    C20   S    
O11   C43   A    
S4    O32   S    
