data_mof_unit_24188.cif
_audit_creation_date              2013-03-05T16:02:28-0500
_audit_creation_method            fapswitch 2.2
_symmetry_space_group_name_H-M    P1
_symmetry_Int_Tables_number       1
_space_group_crystal_system       triclinic
_cell_length_a                    17.027965
_cell_length_b                    7.313817
_cell_length_c                    14.712466
_cell_angle_alpha                 90.00102
_cell_angle_beta                  94.625042
_cell_angle_gamma                 90.000601
_cell_volume                      1826.31557754

loop_
_atom_site_label
_atom_site_type_symbol
_atom_site_description
_atom_site_fract_x
_atom_site_fract_y
_atom_site_fract_z
_atom_type_partial_charge
O1    O     O_R   0.663460 0.361760 0.165970 -0.572101
O2    O     O_R   0.336540 0.638240 0.834030 -0.587789
O3    O     O_R   0.836540 0.861760 0.334030 -0.571896
O4    O     O_R   0.163460 0.138240 0.665970 -0.587805
O5    O     O_R   0.827100 0.689870 0.163730 -0.600858
O6    O     O_R   0.172900 0.310130 0.836270 -0.603029
O7    O     O_R   0.672900 0.189870 0.336270 -0.600932
O8    O     O_R   0.327100 0.810130 0.663730 -0.602998
H1    H     H_    0.194060 0.851246 0.500654 0.151476
H2    H     H_    0.798176 0.109215 0.502132 0.136791
H3    H     H_    0.305953 0.351216 0.999370 0.151494
H4    H     H_    0.701827 0.609170 0.997852 0.136777
C1    C     C_R   0.852833 0.523033 0.143249 0.970321
C2    C     C_R   0.147240 0.476440 0.856875 0.962400
C3    C     C_R   0.647168 0.023039 0.356752 0.970460
C4    C     C_R   0.352762 0.976440 0.643127 0.962424
O9    O     O_R   0.663490 0.691370 0.155500 -0.592901
O10   O     O_R   0.336510 0.308630 0.844500 -0.582083
O11   O     O_R   0.836510 0.191370 0.344500 -0.593050
O12   O     O_R   0.163490 0.808630 0.655500 -0.582091
O13   O     O_R   0.671770 0.863320 0.325740 -0.581911
O14   O     O_R   0.328230 0.136680 0.674260 -0.572573
O15   O     O_R   0.828230 0.363320 0.174260 -0.581945
O16   O     O_R   0.171770 0.636680 0.825740 -0.572588
C5    C     C_R   0.635253 0.523941 0.134667 0.916434
C6    C     C_R   0.365258 0.476382 0.864202 0.897933
C7    C     C_R   0.864753 0.023941 0.365323 0.916595
C8    C     C_R   0.134734 0.976378 0.635812 0.898024
O17   O     O_3   0.752910 0.528800 0.305860 -0.299081
O18   O     O_3   0.247090 0.471200 0.694140 -0.285737
O19   O     O_3   0.747090 0.028800 0.194140 -0.299218
O20   O     O_3   0.252910 0.971200 0.805860 -0.285747
V1    V     V_3+5 0.749460 0.803010 0.239640 1.144853
V2    V     V_3+5 0.250540 0.196990 0.760360 1.158248
V3    V     V_3+5 0.750540 0.303010 0.260360 1.144812
V4    V     V_3+5 0.249460 0.696990 0.739640 1.158259
C9    C     C_1   0.468526 0.990959 0.529558 0.187749
C10   C     C_1   0.531692 0.002959 0.470439 0.192279
C11   C     C_1   0.031482 0.490942 0.970453 0.187654
C12   C     C_1   0.968317 0.502929 0.029574 0.192293
C13   C     C_R   0.029141 0.968204 0.314885 -0.031991
C14   C     C_R   0.970078 0.084159 0.692082 -0.031987
C15   C     C_R   0.470864 0.468375 0.185138 -0.031773
C16   C     C_R   0.529911 0.584138 0.807918 -0.032026
C17   C     C_R   0.096935 0.871221 0.292431 0.382548
C18   C     C_R   0.895522 0.160244 0.708845 0.390277
C19   C     C_R   0.403057 0.371459 0.207606 0.382755
C20   C     C_R   0.604462 0.660246 0.791153 0.390286
C21   C     C_R   0.157058 0.830588 0.360986 0.046510
C22   C     C_R   0.832896 0.161386 0.640382 0.048134
C23   C     C_R   0.342945 0.330702 0.139050 0.046595
C24   C     C_R   0.667094 0.661370 0.859608 0.048090
C25   C     C_R   0.145000 0.875653 0.450991 -0.308308
C26   C     C_R   0.847730 0.105775 0.552913 -0.286860
C27   C     C_R   0.355005 0.375699 0.049037 -0.308429
C28   C     C_R   0.652268 0.605737 0.947076 -0.286823
C29   C     C_R   0.072438 0.943717 0.477451 0.081977
C30   C     C_R   0.923307 0.055228 0.528794 0.078293
C31   C     C_R   0.427562 0.443767 0.022569 0.081989
C32   C     C_R   0.576692 0.555208 0.971203 0.078289
C33   C     C_R   0.010914 0.977647 0.408467 0.014468
C34   C     C_R   0.987015 0.040732 0.598741 0.024136
C35   C     C_R   0.489088 0.477724 0.091548 0.014287
C36   C     C_R   0.512978 0.540720 0.901262 0.024132
C37   C     C_R   0.062775 0.983602 0.571088 -0.194855
C38   C     C_R   0.934386 0.020338 0.434909 -0.204396
C39   C     C_R   0.437219 0.483611 0.928925 -0.194805
C40   C     C_R   0.565617 0.520347 0.065091 -0.204292
C41   C     C_1   0.415303 0.983070 0.580494 -0.310602
C42   C     C_1   0.584692 0.013366 0.419335 -0.299033
C43   C     C_1   0.084702 0.483063 0.919513 -0.310611
C44   C     C_1   0.915314 0.513334 0.080673 -0.298950
N1    N     N_R   0.101879 0.808169 0.201014 0.225834
O21   O     O_R   0.117298 0.920597 0.136239 -0.451474
O22   O     O_R   0.083610 0.639449 0.181107 -0.466664
N2    N     N_R   0.886347 0.249770 0.794013 0.219038
O23   O     O_R   0.872138 0.155587 0.865930 -0.462323
O24   O     O_R   0.905205 0.421405 0.802936 -0.475664
N3    N     N_R   0.398088 0.308586 0.299043 0.225825
O25   O     O_R   0.416498 0.139992 0.319071 -0.466624
O26   O     O_R   0.382518 0.421080 0.363726 -0.451692
N4    N     N_R   0.613619 0.749854 0.706003 0.219047
O27   O     O_R   0.627831 0.655751 0.634060 -0.462319
O28   O     O_R   0.594751 0.921489 0.697124 -0.475683
C45   C     C_3   0.748657 0.225192 0.652596 -0.372172
C46   C     C_3   0.721650 0.232383 0.749550 -0.691060
H5    H     H_    0.734999 0.104206 0.786691 0.268790
H6    H     H_    0.748076 0.347555 0.789430 0.268882
H7    H     H_    0.657221 0.251788 0.746977 0.244035
H8    H     H_    0.739337 0.360470 0.619432 0.215621
H9    H     H_    0.707403 0.129691 0.614105 0.222363
C47   C     C_3   0.237601 0.748673 0.346213 -0.329049
C48   C     C_3   0.261964 0.731558 0.248735 -0.749835
H10   H     H_    0.228172 0.624677 0.209867 0.282698
H11   H     H_    0.255786 0.862006 0.211775 0.268124
H12   H     H_    0.324677 0.692742 0.250842 0.234358
H13   H     H_    0.283321 0.835387 0.383372 0.205220
H14   H     H_    0.241500 0.612517 0.379447 0.218706
C49   C     C_3   0.751328 0.725201 0.847387 -0.372081
C50   C     C_3   0.778329 0.732375 0.750431 -0.691086
H15   H     H_    0.764966 0.604202 0.713289 0.268764
H16   H     H_    0.751907 0.847555 0.710554 0.268880
H17   H     H_    0.842759 0.751758 0.752997 0.244025
H18   H     H_    0.760642 0.860490 0.880545 0.215658
H19   H     H_    0.792590 0.629724 0.885881 0.222370
C51   C     C_3   0.262418 0.248682 0.153811 -0.329355
C52   C     C_3   0.238055 0.231421 0.251281 -0.749889
H20   H     H_    0.271950 0.124724 0.290163 0.282719
H21   H     H_    0.244077 0.361909 0.288230 0.268221
H22   H     H_    0.175383 0.192227 0.249151 0.234338
H23   H     H_    0.216677 0.335366 0.116670 0.205320
H24   H     H_    0.258545 0.112548 0.120549 0.218536
C53   C     C_3   0.994919 0.105131 0.244089 -0.404109
C54   C     C_3   0.943522 0.020546 0.165209 -0.623802
H25   H     H_    0.940478 0.113861 0.105517 0.231317
H26   H     H_    0.965202 0.886352 0.143522 0.264428
H27   H     H_    0.883683 0.002171 0.185361 0.265228
H28   H     H_    0.962943 0.217017 0.275750 0.201552
H29   H     H_    0.044055 0.177717 0.214608 0.222235
C55   C     C_3   0.023016 0.040376 0.779043 -0.318670
C56   C     C_3   0.003105 0.856234 0.819041 -0.788324
H30   H     H_    0.943209 0.856879 0.842932 0.278248
H31   H     H_    0.008411 0.745653 0.768148 0.261115
H32   H     H_    0.044728 0.830565 0.879514 0.255788
H33   H     H_    0.086066 0.043979 0.775576 0.212558
H34   H     H_    0.017429 0.146029 0.832041 0.228304
C57   C     C_3   0.505091 0.605407 0.255895 -0.404241
C58   C     C_3   0.556557 0.521017 0.334771 -0.624620
H35   H     H_    0.560339 0.615358 0.394056 0.231270
H36   H     H_    0.534448 0.387831 0.357236 0.264755
H37   H     H_    0.616159 0.500733 0.314242 0.265499
H38   H     H_    0.537036 0.717258 0.224168 0.201690
H39   H     H_    0.455971 0.677981 0.285411 0.222286
C59   C     C_3   0.476972 0.540358 0.720954 -0.318497
C60   C     C_3   0.496936 0.356303 0.680896 -0.788427
H40   H     H_    0.556831 0.357071 0.657003 0.278270
H41   H     H_    0.491663 0.245649 0.731756 0.261169
H42   H     H_    0.455319 0.330634 0.620417 0.255776
H43   H     H_    0.413921 0.543792 0.724430 0.212543
H44   H     H_    0.482518 0.646100 0.667990 0.228292

loop_
_geom_bond_atom_site_label_1
_geom_bond_atom_site_label_2
_geom_bond_distance
_ccdc_geom_bond_type
C30   C34   1.437736 A    
C60   H42   1.107921 S    
C16   C20   1.425719 A    
C10   C42   1.222704 T    
C48   H10   1.102766 S    
C27   C31   1.415444 A    
C52   H21   1.099018 S    
C2    C43   1.464210 S    
O10   C6    1.343890 A    
C19   N3    1.430642 S    
C58   H35   1.109927 S    
C18   N2    1.433446 S    
C54   H25   1.110142 S    
C45   H9    1.112586 S    
C47   H14   1.109014 S    
C60   H40   1.105255 S    
C51   H24   1.109028 S    
C45   C46   1.534514 S    
C16   C36   1.460775 A    
C22   C26   1.392020 A    
C6    C39   1.490927 S    
N2    O24   1.299742 A    
C9    C41   1.223019 T    
C59   H44   1.107297 S    
C55   H34   1.107286 S    
O13   V1    1.954360 S    
C51   C52   1.529838 S    
O3    V1    1.994921 S    
C1    O15   1.333784 A    
C17   N1    1.430709 S    
N1    O21   1.301403 A    
C2    O16   1.337413 A    
C57   H38   1.106324 S    
C47   C48   1.529866 S    
C56   H32   1.107913 S    
C22   C45   1.532711 S    
C31   C39   1.430620 A    
C53   H29   1.108389 S    
C33   C38   1.424325 A    
C30   C38   1.432011 A    
O5    V1    1.979381 S    
C52   H20   1.102774 S    
O19   V1    1.781154 S    
C13   C33   1.437243 A    
O11   C7    1.341985 A    
C14   C34   1.460764 A    
O5    C1    1.339034 A    
C53   H28   1.106342 S    
O7    C3    1.338994 A    
C49   H18   1.108919 S    
C48   H11   1.099006 S    
C11   C43   1.223017 T    
O1    C5    1.346895 A    
N1    O22   1.300223 A    
C5    C40   1.502926 S    
O9    V1    2.012409 S    
O14   V2    1.954360 S    
O4    C8    1.342587 A    
C47   H13   1.112900 S    
C51   H23   1.112915 S    
C16   C59   1.538214 S    
C49   H19   1.112593 S    
O4    V2    1.994920 S    
C46   H6    1.101680 S    
C15   C35   1.437314 A    
C36   C39   1.445313 A    
N2    O23   1.301497 A    
C15   C57   1.526411 S    
C11   C12   1.439438 S    
N3    O26   1.301352 A    
C25   C29   1.415488 A    
C46   H5    1.099583 S    
C19   C23   1.409743 A    
O12   C8    1.343890 A    
C50   H17   1.103855 S    
O6    V2    1.979381 S    
O20   V2    1.781154 S    
C9    C10   1.439438 S    
O6    C2    1.335551 A    
C49   C50   1.534515 S    
C17   C21   1.409694 A    
C29   C37   1.430586 A    
C50   H16   1.101683 S    
O2    C6    1.342601 A    
O16   V4    1.954363 S    
C29   C33   1.420460 A    
O10   V2    2.012409 S    
C56   H30   1.105267 S    
H4    C28   1.081277 S    
C48   H12   1.102983 S    
N4    O28   1.299743 A    
C14   C18   1.425722 A    
C52   H22   1.102995 S    
H1    C25   1.079443 S    
C21   C47   1.528128 S    
C57   C58   1.526981 S    
C58   H37   1.092095 S    
C59   H43   1.079249 S    
H3    C27   1.079463 S    
C55   C56   1.518962 S    
O1    V3    1.994939 S    
C53   C54   1.526976 S    
C26   C30   1.411519 A    
O2    V4    1.994939 S    
C60   H41   1.110766 S    
C3    C42   1.463732 S    
O17   V3    1.781132 S    
C35   C40   1.424308 A    
C4    O14   1.337401 A    
C12   C44   1.222699 T    
C34   C37   1.445322 A    
C55   H33   1.079248 S    
O7    V3    1.979387 S    
C4    C41   1.464207 S    
C57   H39   1.108366 S    
C13   C53   1.526295 S    
C46   H7    1.103851 S    
C58   H36   1.104501 S    
C54   H26   1.104702 S    
C45   H8    1.108922 S    
O8    V4    1.979384 S    
C59   C60   1.518981 S    
C1    C44   1.463733 S    
C18   C22   1.406631 A    
C24   C49   1.532697 S    
C31   C35   1.420469 A    
O18   V4    1.781130 S    
C32   C36   1.437733 A    
O9    C5    1.341955 A    
O3    C7    1.346866 A    
C8    C37   1.490909 S    
C7    C38   1.502974 S    
O11   V3    2.012440 S    
C14   C55   1.538191 S    
C3    O13   1.333820 A    
C23   C51   1.528153 S    
C21   C25   1.395761 A    
C50   H15   1.099582 S    
C20   N4    1.433459 S    
C23   C27   1.395767 A    
H2    C26   1.081275 S    
O15   V3    1.954364 S    
C56   H31   1.110762 S    
C54   H27   1.092193 S    
N3    O25   1.300250 A    
O12   V4    2.012439 S    
C28   C32   1.411520 A    
C20   C24   1.406630 A    
C32   C40   1.432016 A    
O8    C4    1.335559 A    
N4    O27   1.301486 A    
C13   C17   1.416457 A    
C15   C19   1.416469 A    
C24   C28   1.392022 A    
