data_mof_unit_56662.cif
_audit_creation_date              2013-03-05T16:06:55-0500
_audit_creation_method            fapswitch 2.2
_symmetry_space_group_name_H-M    P1
_symmetry_Int_Tables_number       1
_space_group_crystal_system       triclinic
_cell_length_a                    8.357275
_cell_length_b                    15.15012
_cell_length_c                    27.145956
_cell_angle_alpha                 99.831993
_cell_angle_beta                  92.955759
_cell_angle_gamma                 81.723832
_cell_volume                      3350.01720835

loop_
_atom_site_label
_atom_site_type_symbol
_atom_site_description
_atom_site_fract_x
_atom_site_fract_y
_atom_site_fract_z
_atom_type_partial_charge
P1    P     P_3+3 0.071960 0.575810 0.612130 0.480897
O1    O     O_2   0.906490 0.548660 0.619040 -0.346654
O2    O     O_3   0.138490 0.548590 0.558860 -0.395547
O3    O     O_3   0.686290 0.382320 0.585720 -0.374735
O4    O     O_2   0.819378 0.443437 0.673540 -0.347648
O5    O     O_3   0.041900 0.691949 0.634236 -0.583225
O6    O     O_3   0.696767 0.294944 0.668561 -0.542113
H1    H     H_    0.648864 0.215541 0.601288 0.081099
C1    C     C_3   0.574401 0.158574 0.662598 -0.458737
H2    H     H_    0.690290 0.112854 0.661925 0.199029
P2    P     P_3+3 0.664360 0.290070 0.457280 0.445295
P3    P     P_3+3 0.148081 0.217789 0.555203 0.392869
O7    O     O_2   0.844020 0.276410 0.471510 -0.346394
O8    O     O_3   0.101490 0.335510 0.560360 -0.413659
O9    O     O_2   0.009677 0.174658 0.524486 -0.388340
O10   O     O_3   0.694666 0.272876 0.392520 -0.564735
O11   O     O_3   0.138640 0.185571 0.613937 -0.574986
C2    C     C_3   0.106400 0.263200 0.650463 0.509212
H3    H     H_    0.997425 0.307199 0.639593 0.189436
H4    H     H_    0.211676 0.301592 0.656030 0.020789
C3    C     C_3   0.073179 0.234733 0.699632 -0.984808
H5    H     H_    0.958541 0.204214 0.696138 0.287158
H6    H     H_    0.172685 0.183009 0.709414 0.236100
C4    C     C_3   0.162485 0.260825 0.411563 0.441661
H7    H     H_    0.288866 0.252002 0.424978 0.007897
C5    C     C_3   0.112047 0.167151 0.396116 -0.914490
H8    H     H_    0.188785 0.127558 0.365606 0.244136
H9    H     H_    0.126152 0.130432 0.428472 0.233299
H10   H     H_    0.983872 0.172791 0.382775 0.285851
Ba1   Ba    Ba6+2 0.860050 0.456430 0.522540 1.526785
C6    C     C_3   0.000698 0.744655 0.596907 0.267107
H11   H     H_    0.869429 0.746477 0.588218 0.097225
H12   H     H_    0.070950 0.719366 0.562558 0.131610
C7    C     C_3   0.038261 0.839276 0.619794 -0.442893
H13   H     H_    0.992185 0.855857 0.658528 0.228360
H14   H     H_    0.171710 0.838481 0.622424 0.206207
C8    C     C_3   0.548898 0.272286 0.364951 0.362306
H15   H     H_    0.559447 0.305648 0.332075 0.103683
H16   H     H_    0.447540 0.312076 0.386062 0.134200
C9    C     C_3   0.518401 0.175446 0.345965 -0.985505
H17   H     H_    0.622501 0.137754 0.323991 0.267603
H18   H     H_    0.501725 0.140534 0.377723 0.239172
P4    P     P_3+3 0.117760 0.424110 0.387870 0.468594
O12   O     O_2   0.283210 0.451320 0.380930 -0.379570
O13   O     O_3   0.051220 0.451340 0.441130 -0.442142
O14   O     O_3   0.503420 0.617610 0.414270 -0.401666
O15   O     O_3   0.148364 0.305755 0.369885 -0.558100
P5    P     P_3+3 0.047556 0.781958 0.442377 0.428743
O16   O     O_3   0.617160 0.609950 0.527080 -0.419736
O17   O     O_3   0.088220 0.664410 0.439630 -0.416504
O18   O     O_2   0.187429 0.823960 0.472613 -0.390659
O19   O     O_3   0.064779 0.806905 0.382422 -0.519004
Ba2   Ba    Ba6+2 0.329780 0.543490 0.477450 1.501393
P6    P     P_3+3 0.668807 0.401453 0.650451 0.460676
C10   C     C_3   0.594328 0.240508 0.638524 0.370596
H19   H     H_    0.471973 0.277781 0.632897 0.014044
H20   H     H_    0.485776 0.120511 0.639081 0.158811
O20   O     O_3   0.572560 0.389970 0.472910 -0.435926
C11   C     C_3   0.484669 0.680719 0.630481 0.439866
H21   H     H_    0.368354 0.661823 0.613337 0.101958
H22   H     H_    0.579839 0.620871 0.624797 0.116329
C12   C     C_3   0.461726 0.711305 0.686328 -1.000962
H23   H     H_    0.369242 0.772234 0.692828 0.262576
H24   H     H_    0.420431 0.657135 0.703174 0.223216
P7    P     P_3+3 0.530241 0.723950 0.545086 0.417424
O21   O     O_2   0.345680 0.723560 0.528460 -0.376402
O22   O     O_3   0.531582 0.752072 0.610323 -0.579165
H25   H     H_    0.063053 0.294824 0.730140 0.251367
C13   C     C_3   0.006964 0.738483 0.347465 0.472018
H26   H     H_    0.090266 0.673990 0.346316 0.138896
H27   H     H_    0.883398 0.729024 0.356620 0.007685
C14   C     C_3   0.998801 0.764842 0.295743 -0.941896
H28   H     H_    0.120853 0.774392 0.285049 0.285121
H29   H     H_    0.953870 0.710558 0.267957 0.236046
H30   H     H_    0.915040 0.828727 0.295480 0.255914
P8    P     P_3+3 0.512199 0.610475 0.348269 0.446774
C15   C     C_3   0.478004 0.783431 0.368461 0.499282
H31   H     H_    0.612304 0.773283 0.371322 -0.002242
O23   O     O_2   0.398850 0.542251 0.323854 -0.393404
O24   O     O_3   0.419087 0.714360 0.333883 -0.504012
H32   H     H_    0.428501 0.786080 0.405978 0.143237
H33   H     H_    0.470044 0.928902 0.379287 0.219515
C16   C     C_3   0.425175 0.874272 0.351721 -0.955013
H34   H     H_    0.291269 0.888050 0.348919 0.290980
H35   H     H_    0.475680 0.874189 0.314662 0.258612
C17   C     C_R   0.072350 0.430179 0.179977 0.540219
O25   O     O_2   0.158568 0.382372 0.205378 -0.595193
N1    N     N_R   0.932790 0.483597 0.199721 -0.158079
C18   C     C_R   0.833678 0.532207 0.167480 0.513279
C19   C     C_2   0.744250 0.524368 0.270657 -0.194234
C20   C     C_3   0.726688 0.577729 0.322695 0.128415
C21   C     C_1   0.989704 0.488317 0.342694 0.303939
C22   C     C_2   0.026759 0.479184 0.294382 -0.250764
C23   C     C_2   0.896460 0.493993 0.253767 0.097505
C24   C     C_R   0.006031 0.468985 0.096648 -0.070936
C25   C     C_R   0.116544 0.429524 0.129996 -0.052968
C26   C     C_R   0.271873 0.393871 0.113314 -0.081628
C27   C     C_R   0.860768 0.518223 0.115480 -0.047135
C28   C     C_2   0.859458 0.545737 0.358762 -0.204440
H36   H     H_    0.152960 0.472577 0.285579 0.219037
H37   H     H_    0.364310 0.368831 0.138924 0.163533
C29   C     C_2   0.339545 0.473733 0.639693 -0.483902
C30   C     C_R   0.240091 0.420432 0.976358 -0.058300
C31   C     C_R   0.959909 0.490216 0.960022 0.053473
C32   C     C_R   0.119442 0.458077 0.943588 0.060862
C33   C     C_R   0.392786 0.380697 0.954712 0.202550
C34   C     C_R   0.434070 0.403148 0.909228 -0.177933
C35   C     C_R   0.317388 0.443619 0.878171 -0.083792
C36   C     C_R   0.157547 0.462682 0.893323 -0.060887
C37   C     C_R   0.036454 0.487031 0.858298 -0.069816
C38   C     C_R   0.076954 0.486253 0.807930 0.516237
N2    N     N_R   0.237984 0.476159 0.794072 -0.157544
C39   C     C_R   0.357205 0.461019 0.831042 0.535315
C40   C     C_2   0.429525 0.445748 0.723612 -0.211519
C41   C     C_3   0.480727 0.471619 0.676028 0.186966
C42   C     C_1   0.202095 0.519130 0.657306 0.296770
C43   C     C_2   0.165375 0.527322 0.705664 -0.175708
C44   C     C_2   0.281387 0.482028 0.742231 0.072715
O26   O     O_2   0.498679 0.465072 0.824030 -0.622074
C45   C     C_R   0.200560 0.423427 0.027899 0.053013
C46   C     C_R   0.043515 0.462444 0.044974 0.099016
C47   C     C_R   0.925421 0.498530 0.011590 0.044210
C48   C     C_R   0.315204 0.396801 0.064671 -0.236082
H38   H     H_    0.515927 0.401811 0.742491 0.212284
H39   H     H_    0.553614 0.378115 0.894830 0.174760
H40   H     H_    0.441587 0.380702 0.057787 0.163179
O27   O     O_2   0.724572 0.590698 0.183868 -0.602115
C49   C     C_R   0.748588 0.557133 0.082428 -0.093635
H41   H     H_    0.638183 0.525446 0.246036 0.199699
H42   H     H_    0.635483 0.596050 0.095759 0.171681
C50   C     C_R   0.839290 0.512548 0.923851 -0.226173
C51   C     C_R   0.876560 0.509431 0.874020 -0.052890
O28   O     O_2   0.967677 0.493625 0.776721 -0.573203
C52   C     C_R   0.778822 0.546446 0.031629 -0.230046
H43   H     H_    0.779623 0.527314 0.848003 0.208119
H44   H     H_    0.063055 0.576024 0.719583 0.187008
H45   H     H_    0.687265 0.580149 0.009214 0.139031
H46   H     H_    0.340986 0.424918 0.605373 0.167418
C53   C     C_R   0.345661 0.172626 0.526039 0.181763
H47   H     H_    0.379295 0.305162 0.514777 0.177702
H48   H     H_    0.219205 0.038120 0.556431 0.196655
C54   C     C_R   0.573921 0.206128 0.484642 0.327397
C55   C     C_R   0.769752 0.774387 0.493041 -0.530911
C56   C     C_R   0.851153 0.830160 0.470693 0.249293
C57   C     C_R   0.784952 0.920651 0.470892 -0.320093
C58   C     C_R   0.635410 0.956749 0.494126 0.059513
C59   C     C_R   0.553385 0.897148 0.516243 -0.009614
C60   C     C_R   0.566122 0.050164 0.497332 0.053469
C61   C     C_R   0.414311 0.080433 0.520908 0.013633
C62   C     C_R   0.335934 0.018716 0.540045 -0.200109
C63   C     C_R   0.406483 0.930439 0.539585 -0.117969
C64   C     C_R   0.641806 0.114887 0.478187 -0.314534
C65   C     C_R   0.430257 0.234482 0.509911 -0.520479
C66   C     C_R   0.621134 0.805459 0.514935 0.229236
H49   H     H_    0.826178 0.706542 0.495437 0.152248
H50   H     H_    0.853824 0.960923 0.453320 0.163950
H51   H     H_    0.342145 0.888614 0.557657 0.172888
C67   C     C_3   0.962060 0.913307 0.590836 -0.382940
C68   C     C_3   0.983974 0.006115 0.620300 -0.820252
H52   H     H_    0.925070 0.016548 0.656915 0.241490
H53   H     H_    0.114344 0.011424 0.627735 0.270169
H54   H     H_    0.928873 0.059601 0.598869 0.281062
H55   H     H_    0.020653 0.904408 0.554277 0.236500
H56   H     H_    0.830607 0.909970 0.584738 0.216902
H57   H     H_    0.408031 0.175786 0.321397 0.256987
H58   H     H_    0.577805 0.727738 0.704900 0.271935
C69   C     C_3   0.512372 0.184088 0.716309 -0.203748
C70   C     C_3   0.648703 0.192217 0.755961 -0.816516
H59   H     H_    0.731771 0.127460 0.753150 0.240056
H60   H     H_    0.718612 0.247367 0.752012 0.294825
H61   H     H_    0.595905 0.207553 0.793731 0.228867
H62   H     H_    0.427226 0.248208 0.720479 0.186353
H63   H     H_    0.444883 0.129884 0.723752 0.179071
C71   C     C_3   0.498358 0.298968 0.970183 -0.382711
C72   C     C_3   0.668185 0.318910 0.988281 -0.898589
H64   H     H_    0.738857 0.328985 0.956653 0.258895
H65   H     H_    0.663311 0.380349 0.017128 0.264211
H66   H     H_    0.733087 0.260801 0.004455 0.258725
H67   H     H_    0.440164 0.268260 0.997560 0.195351
H68   H     H_    0.512174 0.244294 0.937036 0.192677
H69   H     H_    0.713208 0.530147 0.932704 0.146722
C73   C     C_3   0.814185 0.563304 0.411394 -0.332160
C74   C     C_3   0.724636 0.485648 0.418897 -0.434795
H70   H     H_    0.635926 0.466174 0.388717 0.195218
H71   H     H_    0.802581 0.421517 0.420153 0.232474
H72   H     H_    0.661955 0.509351 0.453652 0.297505
H73   H     H_    0.903512 0.575753 0.440784 0.238376
H74   H     H_    0.753815 0.633192 0.418872 0.146024
H75   H     H_    0.753122 0.096953 0.458293 0.166216
H76   H     H_    0.090334 0.296930 0.443395 0.164046

loop_
_geom_bond_atom_site_label_1
_geom_bond_atom_site_label_2
_geom_bond_distance
_ccdc_geom_bond_type
C10   H19   1.111281 S    
C22   C23   1.530373 S    
C13   C14   1.519616 S    
C2    C3    1.521142 S    
C50   H69   1.078189 S    
Ba1   O13   2.777197 S    
C38   N2    1.396178 Am   
P8    O23   1.545353 D    
O6    C10   1.406966 S    
P4    O12   1.528007 D    
C52   H45   1.077977 S    
O14   P8    1.781070 S    
C57   C58   1.423206 A    
C24   C27   1.401657 A    
C72   H65   1.106670 S    
C15   H31   1.111220 S    
C35   C36   1.393583 A    
C5    H8    1.109678 S    
C12   H23   1.110701 S    
O16   P7    1.771054 S    
C16   H34   1.109559 S    
C63   H51   1.078311 S    
C21   C22   1.342609 D    
C4    C5    1.522603 S    
P1    O1    1.527608 D    
C8    C9    1.522808 S    
C74   H71   1.093762 S    
C71   C72   1.532277 S    
C17   N1    1.395405 Am   
C27   C49   1.402235 A    
C31   C47   1.424622 A    
C33   C34   1.407264 A    
C53   C65   1.390140 A    
C29   C41   1.498649 S    
C55   C56   1.388493 A    
C42   C43   1.344527 D    
P5    C56   1.847059 S    
C2    H4    1.113032 S    
C7    H13   1.113848 S    
C29   H46   1.085511 S    
C54   C64   1.401820 A    
C13   H27   1.109026 S    
C59   C66   1.417831 A    
C73   C74   1.528637 S    
C47   C52   1.414830 A    
C28   C73   1.467036 S    
C12   H24   1.108023 S    
O19   C13   1.403380 S    
C11   O22   1.402824 S    
C39   O26   1.219028 D    
C57   H50   1.076985 S    
O12   Ba2   2.787151 S    
P4    Ba2   3.361591 S    
C70   H61   1.111614 S    
C68   H52   1.108912 S    
P2    Ba1   3.395334 S    
P7    O22   1.749138 S    
C31   C50   1.417008 A    
P3    O11   1.753972 S    
C34   C35   1.399013 A    
C6    H12   1.109334 S    
C37   C51   1.400634 A    
C1    C10   1.530831 S    
P1    C42   1.837770 S    
P3    C53   1.856362 S    
P2    O20   1.593507 S    
C1    H2    1.105669 S    
C1    H20   1.112266 S    
C45   C48   1.415871 A    
C67   H56   1.109613 S    
O10   C8    1.396804 S    
C69   H63   1.111341 S    
C40   H38   1.080343 S    
C24   C46   1.436871 A    
C9    H18   1.109823 S    
O5    C6    1.394354 S    
O13   Ba2   2.927387 S    
C11   H21   1.109700 S    
C3    H5    1.115280 S    
P6    C41   1.860703 S    
C19   H41   1.082226 S    
O8    Ba1   2.801078 S    
C14   H30   1.110683 S    
H1    C10   1.113487 S    
C31   C32   1.419137 A    
H48   C62   1.073994 S    
C19   C23   1.363709 D    
C72   H66   1.109938 S    
C58   C60   1.439793 A    
P5    O18   1.543341 D    
Ba1   Ba2   4.602854 S    
N1    C23   1.490893 S    
C11   H22   1.111653 S    
O17   Ba2   2.801683 S    
C46   C47   1.419791 A    
P1    O5    1.745516 S    
C60   C64   1.420634 A    
O7    Ba1   2.858490 S    
C1    C69   1.540046 S    
C60   C61   1.430237 A    
C34   H39   1.084103 S    
C14   H29   1.110918 S    
C74   H72   1.083784 S    
C69   C70   1.529907 S    
C17   O25   1.219971 D    
C2    H3    1.107044 S    
C55   C66   1.389156 A    
C53   C61   1.417931 A    
C37   C38   1.423112 A    
P1    O2    1.543879 S    
C35   C39   1.414688 A    
O2    Ba1   2.926619 S    
C59   C63   1.398555 A    
C74   H70   1.107091 S    
C8    H15   1.111172 S    
Ba2   O21   2.858807 S    
C49   C52   1.392690 A    
P2    O10   1.758686 S    
O4    P6    1.547201 D    
C55   H49   1.078529 S    
C72   H64   1.110093 S    
P3    O9    1.546689 D    
C15   H32   1.111176 S    
C25   C26   1.398991 A    
C64   H75   1.076958 S    
C68   H53   1.109638 S    
O11   C2    1.406055 S    
C33   C71   1.520807 S    
C68   H54   1.110425 S    
C30   C32   1.431251 A    
C73   H74   1.095537 S    
C4    H7    1.096521 S    
P5    O17   1.753722 S    
P4    O13   1.543669 S    
C22   H36   1.080253 S    
C9    H57   1.109957 S    
C40   C44   1.365296 D    
C17   C25   1.422456 A    
C67   H55   1.108281 S    
C7    C67   1.524901 S    
C70   H59   1.110900 S    
C16   H35   1.110585 S    
Ba1   O16   2.848500 S    
P3    O8    1.752843 S    
P7    O21   1.585164 D    
O3    P6    1.741668 S    
C3    H6    1.112122 S    
C3    H25   1.117759 S    
C67   C68   1.524866 S    
C50   C51   1.395151 A    
C71   H68   1.112541 S    
C6    C7    1.531275 S    
C45   C46   1.425710 A    
C58   C59   1.432301 A    
C18   O27   1.220324 D    
C15   O24   1.408468 S    
C32   C36   1.432422 A    
C9    H17   1.110386 S    
C11   C12   1.521266 S    
C12   H58   1.110619 S    
C4    O15   1.408350 S    
C6    H11   1.107581 S    
C38   O28   1.219594 D    
P8    O24   1.749593 S    
C14   H28   1.110420 S    
C48   H40   1.068001 S    
C49   H42   1.083529 S    
Ba2   O20   2.847951 S    
C40   C41   1.511097 S    
C69   H62   1.111113 S    
N2    C39   1.400788 Am   
H47   C65   1.082438 S    
C5    H9    1.110029 S    
P4    C21   1.888869 S    
O6    P6    1.746597 S    
O1    Ba1   2.786842 S    
C18   C27   1.416240 A    
C56   C57   1.401802 A    
C8    H16   1.092898 S    
C43   C44   1.529072 S    
N2    C44   1.491517 S    
P2    O7    1.524625 D    
O2    Ba2   2.777779 S    
C19   C20   1.505906 S    
C51   H43   1.082440 S    
O16   Ba2   2.914847 S    
Ba1   O20   2.915628 S    
O14   Ba2   2.773419 S    
C70   H60   1.108394 S    
P1    Ba1   3.361235 S    
C30   C45   1.445837 A    
C30   C33   1.439276 A    
C7    H14   1.112325 S    
C73   H73   1.075684 S    
C54   C65   1.390108 A    
C13   H26   1.111897 S    
P2    C54   1.843230 S    
O3    Ba1   2.773949 S    
C29   C42   1.318356 D    
P8    C20   1.922504 S    
P5    O19   1.749969 S    
N1    C18   1.401485 Am   
C5    H10   1.109104 S    
C26   C48   1.396669 A    
H33   C16   1.111073 S    
C36   C37   1.406171 A    
C24   C25   1.403410 A    
C15   C16   1.521002 S    
C62   C63   1.380033 A    
C4    H76   1.098565 S    
P7    C66   1.857727 S    
C20   C28   1.523131 S    
C61   C62   1.396594 A    
C43   H44   1.083921 S    
P4    O15   1.760916 S    
C71   H67   1.107130 S    
C26   H37   1.083664 S    
C21   C28   1.333647 D    
