data_mof_unit_11196.cif
_audit_creation_date              2013-03-05T16:04:11-0500
_audit_creation_method            fapswitch 2.2
_symmetry_space_group_name_H-M    P1
_symmetry_Int_Tables_number       1
_space_group_crystal_system       triclinic
_cell_length_a                    19.487312
_cell_length_b                    6.972657
_cell_length_c                    17.694626
_cell_angle_alpha                 90.045666
_cell_angle_beta                  108.685572
_cell_angle_gamma                 89.98438
_cell_volume                      2277.58657084

loop_
_atom_site_label
_atom_site_type_symbol
_atom_site_description
_atom_site_fract_x
_atom_site_fract_y
_atom_site_fract_z
_atom_type_partial_charge
O1    O     O_R   0.561710 0.369960 0.440200 -0.603352
O2    O     O_R   0.061710 0.630040 0.940200 -0.604128
O3    O     O_R   0.412630 0.033330 0.406330 -0.569193
O4    O     O_R   0.912630 0.966670 0.906330 -0.576360
O5    O     O_R   0.438290 0.869790 0.559800 -0.578029
O6    O     O_R   0.938290 0.130210 0.059800 -0.570492
C1    C     C_R   0.384800 0.203387 0.382845 0.943105
C2    C     C_R   0.884867 0.796445 0.882812 0.947952
O7    O     O_R   0.559570 0.039810 0.430640 -0.604785
O8    O     O_R   0.059570 0.960190 0.930640 -0.607283
O9    O     O_R   0.586280 0.876320 0.584290 -0.603312
O10   O     O_R   0.086280 0.123680 0.084290 -0.604351
C3    C     C_R   0.580830 0.208589 0.415295 0.935503
C4    C     C_R   0.080922 0.791236 0.915394 0.929646
O11   O     O_R   0.413720 0.363440 0.415710 -0.562293
O12   O     O_R   0.913720 0.636560 0.915710 -0.559157
O13   O     O_3   0.508590 0.205630 0.550380 -0.277965
O14   O     O_3   0.008590 0.794370 0.050380 -0.276700
V1    V     V_3+5 0.498410 0.928130 0.490650 1.183784
V2    V     V_3+5 0.998410 0.071870 0.990650 1.179101
O15   O     O_R   0.587370 0.546990 0.593670 -0.596571
O16   O     O_R   0.087370 0.453010 0.093670 -0.595337
C5    C     C_R   0.614675 0.717262 0.616969 0.917340
C6    C     C_R   0.114656 0.282852 0.116980 0.909366
O17   O     O_R   0.440430 0.540520 0.569360 -0.573380
O18   O     O_R   0.940430 0.459480 0.069360 -0.578038
C7    C     C_R   0.419644 0.709138 0.584853 1.023990
C8    C     C_R   0.919752 0.291013 0.084987 1.024769
V3    V     V_3+5 0.501590 0.428960 0.509350 1.197636
V4    V     V_3+5 0.001590 0.571040 0.009350 1.194304
O19   O     O_3   0.491410 0.701330 0.449620 -0.273239
O20   O     O_3   0.991410 0.298670 0.949620 -0.274885
C9    C     C_R   0.256138 0.822887 0.647987 -0.016959
C10   C     C_R   0.844425 0.175894 0.252133 0.010910
H1    H     H_    0.203989 0.891366 0.622213 0.133973
H2    H     H_    0.862941 0.105840 0.309706 0.128521
C11   C     C_R   0.303308 0.812786 0.602770 -0.096474
C12   C     C_R   0.891566 0.186383 0.206821 -0.171536
H3    H     H_    0.287102 0.875659 0.543686 0.146066
H4    H     H_    0.944834 0.121994 0.229608 0.118981
C13   C     C_R   0.370196 0.718895 0.632838 -0.165544
C14   C     C_R   0.870569 0.282032 0.133309 -0.168333
C15   C     C_R   0.389221 0.634850 0.708748 -0.151848
C16   C     C_R   0.801784 0.367179 0.105703 -0.084474
H5    H     H_    0.440537 0.561053 0.732838 0.120969
H6    H     H_    0.784665 0.441950 0.049074 0.162792
C17   C     C_R   0.343211 0.651085 0.755247 -0.056890
C18   C     C_R   0.753625 0.350917 0.149660 -0.081636
H7    H     H_    0.360432 0.590447 0.814692 0.110433
H8    H     H_    0.700043 0.412676 0.125576 0.119836
C19   C     C_R   0.276355 0.747530 0.725896 0.147918
C20   C     C_R   0.773906 0.252756 0.223080 0.147489
C21   C     C_R   0.216443 0.606153 0.818901 -0.097161
C22   C     C_R   0.681327 0.393830 0.278099 -0.094719
H9    H     H_    0.244646 0.473296 0.817922 0.186930
H10   H     H_    0.685134 0.527184 0.248732 0.188949
C23   C     C_R   0.168312 0.613169 0.862836 -0.148182
C24   C     C_R   0.636326 0.386699 0.325751 -0.140553
H11   H     H_    0.161438 0.485940 0.894753 0.136659
H12   H     H_    0.606816 0.514494 0.331513 0.133170
C25   C     C_R   0.130369 0.782213 0.866383 -0.174761
C26   C     C_R   0.629104 0.216866 0.364959 -0.173373
C27   C     C_R   0.141818 0.944257 0.824664 -0.274472
C28   C     C_R   0.667935 0.053944 0.355079 -0.273694
H13   H     H_    0.114017 0.077173 0.827725 0.166897
H14   H     H_    0.662185 0.920507 0.383806 0.167966
C29   C     C_R   0.190266 0.939186 0.780242 0.370731
C30   C     C_R   0.713864 0.059611 0.307716 0.371506
C31   C     C_R   0.227551 0.766395 0.775961 -0.082191
C32   C     C_R   0.722035 0.233313 0.269554 -0.084694
C33   C     C_R   0.804994 0.626722 0.758049 0.045177
C34   C     C_R   0.304994 0.372490 0.258088 0.005373
C35   C     C_R   0.817267 0.781083 0.812409 -0.220098
C36   C     C_R   0.317165 0.218326 0.312382 -0.199672
C37   C     C_R   0.761239 0.916743 0.799019 -0.113951
C38   C     C_R   0.260933 0.083289 0.299049 -0.116937
H15   H     H_    0.765325 0.029460 0.841445 0.188241
H16   H     H_    0.264892 0.970314 0.341310 0.182235
C39   C     C_R   0.696151 0.898076 0.734919 -0.150285
C40   C     C_R   0.195892 0.102389 0.234951 -0.143900
H17   H     H_    0.654002 0.004069 0.728227 0.137202
H18   H     H_    0.153656 0.996629 0.228158 0.134760
C41   C     C_R   0.683467 0.737536 0.683670 -0.146319
C42   C     C_R   0.183361 0.262893 0.183761 -0.141763
C43   C     C_R   0.740035 0.607568 0.694640 0.092982
C44   C     C_R   0.239962 0.392923 0.194782 0.090303
C45   C     C_3   0.736697 0.396080 0.701713 -0.587855
C46   C     C_3   0.236626 0.604532 0.203185 -0.579723
C47   C     C_3   0.805492 0.414332 0.773409 0.461739
C48   C     C_3   0.305894 0.584138 0.274000 0.413330
H19   H     H_    0.743488 0.322136 0.648958 0.190659
H20   H     H_    0.242242 0.681336 0.150628 0.171331
H21   H     H_    0.687911 0.347584 0.715936 0.219452
H22   H     H_    0.188283 0.651059 0.218795 0.222273
C49   C     C_3   0.870456 0.299765 0.762049 -0.470919
C50   C     C_3   0.914773 0.399449 0.714928 -0.298602
C51   C     C_3   0.876226 0.405539 0.624956 -0.795242
H23   H     H_    0.855640 0.261100 0.602115 0.251516
H24   H     H_    0.830874 0.509531 0.609832 0.250103
H25   H     H_    0.915049 0.452839 0.594480 0.258476
H26   H     H_    0.930821 0.546534 0.738076 0.189120
H27   H     H_    0.965848 0.317120 0.725129 0.216028
H28   H     H_    0.909518 0.267447 0.820646 0.237529
H29   H     H_    0.851349 0.157743 0.734821 0.185222
C52   C     C_3   0.372481 0.690464 0.263827 -0.423276
C53   C     C_3   0.394993 0.628955 0.191411 -0.351078
C54   C     C_3   0.460833 0.743012 0.187992 -0.864842
H30   H     H_    0.447738 0.898410 0.180994 0.255593
H31   H     H_    0.507251 0.720874 0.243324 0.252855
H32   H     H_    0.476883 0.694403 0.136277 0.252948
H33   H     H_    0.409269 0.474113 0.195939 0.201703
H34   H     H_    0.350389 0.652728 0.134789 0.212059
H35   H     H_    0.361547 0.846913 0.260344 0.197248
H36   H     H_    0.419419 0.662637 0.317007 0.242249
N1    N     N_R   0.790852 0.376499 0.848991 0.211999
O21   O     O_R   0.731976 0.441491 0.859776 -0.435380
O22   O     O_R   0.839719 0.300174 0.909538 -0.421231
N2    N     N_R   0.292910 0.621937 0.350349 0.220533
O23   O     O_R   0.235160 0.555383 0.363187 -0.417687
O24   O     O_R   0.341850 0.704472 0.409010 -0.415534
N3    N     N_R   0.202865 0.112526 0.742875 0.208108
O25   O     O_R   0.149785 0.231080 0.711515 -0.427353
O26   O     O_R   0.268428 0.162469 0.747448 -0.442818
N4    N     N_R   0.749639 0.886385 0.297175 0.206698
O27   O     O_R   0.774579 0.767858 0.356442 -0.430909
O28   O     O_R   0.751409 0.837576 0.226809 -0.440517

loop_
_geom_bond_atom_site_label_1
_geom_bond_atom_site_label_2
_geom_bond_distance
_ccdc_geom_bond_type
C24   C26   1.402642 A    
V4    O20   2.150765 S    
C27   H13   1.083421 S    
C50   H27   1.112429 S    
O13   V3    1.705524 S    
C49   C50   1.544912 S    
O4    C2    1.315276 A    
V1    O19   1.726658 S    
C30   N4    1.436043 S    
C47   N1    1.478067 S    
C51   H23   1.110979 S    
C17   H7    1.082702 S    
C53   H34   1.108607 S    
O9    V1    1.997677 S    
C37   C39   1.410767 A    
C36   C38   1.406257 A    
C28   C30   1.409144 A    
C52   H35   1.109389 S    
C42   C44   1.392508 A    
C12   C14   1.401573 A    
O3    C1    1.314854 A    
C45   H19   1.110439 S    
C22   C24   1.398681 A    
C44   C46   1.486321 S    
C23   H11   1.083167 S    
C53   C54   1.527314 S    
C24   H12   1.082706 S    
N1    O21   1.303092 A    
C8    C14   1.476090 S    
C25   C27   1.406528 A    
O7    C3    1.305058 A    
N2    O23   1.302966 A    
C26   C28   1.406295 A    
O13   V1    2.182403 S    
O5    C7    1.299055 A    
O7    V1    1.991770 S    
O6    C8    1.299392 A    
C3    C26   1.489490 S    
C46   H20   1.108897 S    
O8    V2    1.990853 S    
N1    O22   1.297986 A    
C33   C47   1.505331 S    
C54   H30   1.111003 S    
O3    V1    1.990344 S    
O14   V4    1.704536 S    
O14   V2    2.183800 S    
C40   C42   1.411487 A    
C21   H9    1.079959 S    
C21   C31   1.406916 A    
C2    O12   1.299540 A    
C33   C43   1.403192 A    
C50   H26   1.111215 S    
C13   C15   1.402532 A    
C14   C16   1.402981 A    
C29   N3    1.436563 S    
C51   H24   1.107654 S    
C49   H28   1.095373 S    
O11   V3    2.016808 S    
C1    C36   1.499925 S    
C46   H22   1.111520 S    
C53   H33   1.111382 S    
C43   C45   1.483240 S    
O17   V3    1.990525 S    
C27   C29   1.409237 A    
C52   H36   1.099301 S    
C34   C36   1.410756 A    
O8    C4    1.305708 A    
C33   C35   1.411364 A    
C21   C23   1.397705 A    
C17   C19   1.409215 A    
C1    O11   1.300204 A    
C16   H6    1.083388 S    
C4    C25   1.489933 S    
O15   V3    2.024458 S    
C9    C11   1.400439 A    
C29   C31   1.421222 A    
C28   H14   1.083466 S    
C47   C49   1.563167 S    
C34   C48   1.501199 S    
C7    C13   1.475891 S    
C22   C32   1.407470 A    
C50   C51   1.527885 S    
O10   V2    1.997367 S    
O1    V3    1.989085 S    
C18   H8    1.082715 S    
C15   H5    1.083244 S    
N3    O25   1.301418 A    
C5    C41   1.481945 S    
C40   H18   1.082805 S    
C41   C43   1.391659 A    
C46   C48   1.526055 S    
O18   V4    1.991443 S    
O15   C5    1.312120 A    
C54   H32   1.110372 S    
O16   C6    1.311654 A    
C9    C19   1.408834 A    
C35   C37   1.406069 A    
C48   N2    1.475469 S    
C51   H25   1.110757 S    
C49   H29   1.111710 S    
N4    O28   1.301600 A    
V2    O20   1.727650 S    
O16   V4    2.025054 S    
C10   C12   1.401494 A    
O18   C8    1.300318 A    
C38   C40   1.410552 A    
C48   C52   1.554419 S    
C38   H16   1.072206 S    
C34   C44   1.404168 A    
C39   H17   1.082757 S    
C22   H10   1.079647 S    
C23   C25   1.403253 A    
O5    V1    1.988669 S    
O4    V2    1.989805 S    
O17   C7    1.300730 A    
O6    V2    1.988141 S    
C52   C53   1.541918 S    
O10   C6    1.290930 A    
C10   C20   1.409739 A    
O2    V4    1.989618 S    
C45   C47   1.527411 S    
C6    C42   1.481470 S    
C11   H3    1.083525 S    
C12   H4    1.083305 S    
C54   H31   1.110567 S    
C15   C17   1.402229 A    
C45   H21   1.111378 S    
O9    C5    1.290826 A    
C2    C35   1.499042 S    
C9    H1    1.082516 S    
C10   H2    1.082493 S    
C11   C13   1.402280 A    
O2    C4    1.304777 A    
N2    O24   1.297390 A    
N3    O26   1.301582 A    
C20   C32   1.499752 S    
C39   C41   1.411160 A    
C18   C20   1.408798 A    
O1    C3    1.305086 A    
V3    O19   2.152157 S    
C37   H15   1.071637 S    
C30   C32   1.420760 A    
C19   C31   1.498726 S    
O12   V4    2.017195 S    
C16   C18   1.402324 A    
N4    O27   1.301375 A    
