data_mof_unit_29766.cif
_audit_creation_date              2012-12-10T17:18:53-0500
_audit_creation_method            fapswitch 2.2
_symmetry_space_group_name_H-M    P1
_symmetry_Int_Tables_number       1
_space_group_crystal_system       triclinic
_cell_length_a                    9.593887
_cell_length_b                    10.917315
_cell_length_c                    13.430902
_cell_angle_alpha                 93.759458
_cell_angle_beta                  73.078259
_cell_angle_gamma                 87.711414
_cell_volume                      1340.37338196

loop_
_atom_site_label
_atom_site_type_symbol
_atom_type_description
_atom_site_fract_x
_atom_site_fract_y
_atom_site_fract_z
_atom_type_partial_charge
C1    C     C_R   0.497669 0.737361 0.497648 0.817546
C2    C     C_R   0.430703 0.508325 0.980627 0.078373
C3    C     C_R   0.459509 0.543786 0.877181 0.087387
C4    C     C_R   0.531586 0.535910 0.037023 0.076549
C5    C     C_R   0.647611 0.611704 0.994977 0.176214
C6    C     C_R   0.661330 0.659652 0.899377 -0.260345
C7    C     C_R   0.570054 0.625255 0.840471 -0.218063
C8    C     C_R   0.521400 0.490005 0.133811 -0.249497
C9    C     C_R   0.732278 0.596976 0.147300 -0.201877
C10   C     C_R   0.374392 0.498983 0.814114 -0.098135
C11   C     C_R   0.246347 0.900701 0.465872 0.169165
C12   C     C_R   0.421644 0.503392 0.700086 0.768053
C13   C     C_R   0.110158 0.964135 0.506911 -0.154800
C14   C     C_R   0.092951 0.075652 0.567463 0.452694
C15   C     C_R   0.220721 0.130471 0.576391 -0.279358
C16   C     C_R   0.360250 0.069889 0.529874 -0.034646
C17   C     C_R   0.366923 0.944542 0.495479 0.033440
C18   C     C_R   0.491735 0.871216 0.497241 -0.201126
C19   C     C_R   0.612430 0.928898 0.510680 -0.286143
C20   C     C_R   0.623745 0.052879 0.498994 0.478943
C21   C     C_R   0.494678 0.128415 0.515497 -0.192221
C22   C     C_R   0.925233 0.351710 0.347365 -0.100776
C23   C     C_R   0.499225 0.262503 0.505974 0.797851
C24   C     C_R   0.033704 0.289763 0.265278 -0.262442
C25   C     C_R   0.175372 0.280905 0.270031 -0.240097
C26   C     C_R   0.210940 0.342367 0.352224 -0.098312
C27   C     C_R   0.107410 0.421645 0.428306 0.116637
C28   C     C_R   0.958619 0.423971 0.426977 0.198143
C29   C     C_R   0.896293 0.579888 0.564648 -0.182595
C30   C     C_R   0.046317 0.582612 0.562768 0.484600
C31   C     C_R   0.577367 0.502230 0.300656 0.760609
C32   C     C_R   0.747450 0.640542 0.049976 -0.205264
C33   C     C_R   0.616900 0.524058 0.190352 -0.042689
C34   C     C_R   0.248512 0.437511 0.859144 -0.200376
C35   C     C_R   0.210334 0.415517 0.963916 -0.147593
C36   C     C_R   0.301238 0.448264 0.023877 -0.187954
Cu1   Cu    Cu3+1 0.359340 0.500010 0.500010 0.941102
Cu2   Cu    Cu3+1 0.640660 0.499990 0.499990 0.929933
H1    H     H_    0.805599 0.625720 0.191117 0.160609
H2    H     H_    0.015893 0.926744 0.490591 0.166607
H3    H     H_    0.213566 0.216323 0.622449 0.162282
H4    H     H_    0.816531 0.647563 0.614089 0.141771
H5    H     H_    0.816481 0.336829 0.347695 0.186715
H6    H     H_    0.005294 0.238995 0.202675 0.147782
H7    H     H_    0.258031 0.224846 0.210352 0.149430
H8    H     H_    0.321606 0.326595 0.350705 0.191416
H9    H     H_    0.743538 0.723633 0.870075 0.136197
H10   H     H_    0.834604 0.699788 0.019262 0.143424
H11   H     H_    0.438658 0.428760 0.168213 0.137580
H12   H     H_    0.181354 0.403451 0.812437 0.155826
H13   H     H_    0.265107 0.428761 0.104531 0.150048
H14   H     H_    0.111887 0.369383 0.998177 0.145033
H15   H     H_    0.584282 0.666421 0.767418 0.155934
H16   H     H_    0.706898 0.876557 0.517699 0.182182
N1    N     N_R   0.852480 0.498790 0.499000 -0.219145
N2    N     N_R   0.148360 0.498710 0.498970 -0.240173
O1    O     O_R   0.381190 0.680360 0.500010 -0.534387
O2    O     O_R   0.618760 0.680340 0.500000 -0.591757
O3    O     O_R   0.323240 0.499990 0.650990 -0.569397
O4    O     O_R   0.560820 0.499960 0.650980 -0.579719
O5    O     O_R   0.381240 0.319660 0.500000 -0.611908
O6    O     O_R   0.618810 0.319640 0.499990 -0.555543
O7    O     O_R   0.439180 0.500040 0.349020 -0.600892
O8    O     O_R   0.676760 0.500010 0.349010 -0.601943
N3    N     N_3   0.263704 0.810924 0.379173 -0.583849
H17   H     H_    0.206981 0.733892 0.405142 0.268676
H18   H     H_    0.373650 0.784845 0.342319 0.225889
O9    O     O_3   0.949307 0.124486 0.609980 -0.584636
C37   C     C_3   0.930290 0.242417 0.663776 0.117038
H19   H     H_    0.823073 0.282730 0.661614 0.202897
H20   H     H_    0.010407 0.307509 0.624525 0.109243
C38   C     C_3   0.923590 0.232828 0.778523 -0.409167
H21   H     H_    0.852191 0.158250 0.810536 0.241274
H22   H     H_    0.034150 0.209427 0.784910 0.201365
C39   C     C_3   0.862091 0.352928 0.844202 -0.898241
H23   H     H_    0.927635 0.430252 0.811878 0.243195
H24   H     H_    0.864742 0.345308 0.925681 0.257756
H25   H     H_    0.747202 0.372702 0.845231 0.271026
O10   O     O_3   0.760842 0.097035 0.478529 -0.572139
C40   C     C_3   0.837325 0.076319 0.370254 0.053616
H26   H     H_    0.948264 0.105986 0.362962 0.213463
H27   H     H_    0.784563 0.133399 0.324176 0.114683
C41   C     C_3   0.859284 0.942114 0.321111 -0.422355
H28   H     H_    0.899508 0.880018 0.370092 0.227323
H29   H     H_    0.754795 0.910323 0.312016 0.218500
C42   C     C_3   0.969949 0.931870 0.212561 -0.889945
H30   H     H_    0.933190 0.992543 0.160649 0.247246
H31   H     H_    0.980879 0.835447 0.177942 0.259642
H32   H     H_    0.078537 0.958254 0.217525 0.266734
O11   O     O_3   0.097932 0.683144 0.605869 -0.590175
C43   C     C_3   0.029168 0.706194 0.713464 0.037037
H33   H     H_    0.015840 0.619572 0.753800 0.136148
H34   H     H_    0.921922 0.756452 0.725888 0.123995
C44   C     C_3   0.125404 0.788893 0.758066 -0.268955
H35   H     H_    0.238551 0.746377 0.735730 0.222471
H36   H     H_    0.129210 0.879398 0.724212 0.214195
C45   C     C_3   0.069406 0.809091 0.876591 -0.963612
H37   H     H_    0.955814 0.850614 0.901352 0.250301
H38   H     H_    0.139607 0.872636 0.905052 0.262968
H39   H     H_    0.073879 0.720230 0.911703 0.265493

loop_
_geom_bond_atom_site_label_1
_geom_bond_atom_site_label_2
_ccdc_geom_bond_type
C16   C21   A    
C29   H4    S    
C19   C20   A    
C4    C8    A    
C45   H37   S    
C26   C27   A    
C29   C30   A    
C18   C19   A    
C3    C7    A    
C38   C39   S    
C5    C6    A    
C42   H31   S    
C15   C16   A    
C9    H1    S    
C34   C35   A    
C37   H20   S    
C13   H2    S    
C9    C32   A    
Cu1   O7    S    
Cu2   O2    S    
Cu1   N2    S    
C23   O6    A    
Cu2   N1    S    
C35   C36   A    
O9    C37   S    
N3    H18   S    
C31   C33   S    
C30   O11   S    
C5    C32   A    
C22   C28   A    
C13   C14   A    
C9    C33   A    
C32   H10   S    
C44   H35   S    
C40   C41   S    
C45   H38   S    
C28   N1    A    
Cu2   O8    S    
C34   H12   S    
C6    H9    S    
C31   O7    A    
C24   C25   A    
C15   H3    S    
C40   H27   S    
C43   H33   S    
C42   H30   S    
C40   H26   S    
C29   N1    A    
C44   C45   S    
C25   C26   A    
C30   N2    A    
C37   C38   S    
C2    C4    A    
C39   H23   S    
Cu1   Cu2   S    
C1    O1    A    
C43   H34   S    
C41   H28   S    
C23   O5    A    
C17   C18   A    
C1    C18   S    
C10   C34   A    
C44   H36   S    
C39   H24   S    
Cu1   O3    S    
C36   H13   S    
C10   C12   S    
Cu2   O4    S    
C19   H16   S    
C38   H22   S    
C41   H29   S    
C21   C23   S    
C24   H6    S    
C22   C24   A    
C7    H15   S    
C25   H7    S    
C35   H14   S    
C45   H39   S    
C2    C36   A    
C11   C17   A    
C20   O10   S    
C27   N2    A    
C31   O8    A    
C38   H21   S    
C42   H32   S    
Cu1   O5    S    
C6    C7    A    
C2    C3    A    
C3    C10   A    
C1    O2    A    
C43   C44   S    
C11   C13   A    
O11   C43   S    
C16   C17   A    
C8    C33   A    
C12   O3    A    
C37   H19   S    
C39   H25   S    
C26   H8    S    
O10   C40   S    
C12   O4    A    
C4    C5    A    
C41   C42   S    
C20   C21   A    
N3    H17   S    
C27   C28   A    
C14   O9    S    
C14   C15   A    
C8    H11   S    
C22   H5    S    
Cu1   O1    S    
C11   N3    S    
Cu2   O6    S    
