data_mof_unit_6580.cif
_audit_creation_date              2012-12-11T15:29:06-0500
_audit_creation_method            fapswitch 2.2
_symmetry_space_group_name_H-M    P1
_symmetry_Int_Tables_number       1
_space_group_crystal_system       triclinic
_cell_length_a                    29.340153
_cell_length_b                    17.189879
_cell_length_c                    19.296064
_cell_angle_alpha                 89.987603
_cell_angle_beta                  139.486127
_cell_angle_gamma                 90.016182
_cell_volume                      6322.24635397

loop_
_atom_site_label
_atom_site_type_symbol
_atom_type_description
_atom_site_fract_x
_atom_site_fract_y
_atom_site_fract_z
_atom_type_partial_charge
C1    C     C_R   0.187536 0.401731 0.801682 -0.171843
C2    C     C_R   0.869825 0.664450 0.597199 0.133701
C3    C     C_R   0.829545 0.719970 0.053191 -0.172386
C4    C     C_R   0.313912 0.746006 0.078360 -0.167719
C5    C     C_R   0.670540 0.221169 0.945678 -0.153407
C6    C     C_R   0.688748 0.745765 0.922967 -0.173365
C7    C     C_R   0.326158 0.223576 0.056578 -0.177468
C8    C     C_R   0.780976 0.278227 0.101156 0.156859
C9    C     C_R   0.204150 0.689463 0.923240 0.151658
C10   C     C_R   0.216886 0.281161 0.900704 0.156320
C11   C     C_R   0.798496 0.687877 0.076536 0.154356
C12   C     C_R   0.282303 0.779975 0.099834 0.155769
C13   C     C_R   0.803208 0.262628 0.433099 0.121215
C14   C     C_R   0.702137 0.187927 0.923783 0.158081
C15   C     C_R   0.719336 0.778465 0.899238 0.152575
C16   C     C_R   0.293975 0.193122 0.078709 0.154041
C17   C     C_3   0.090054 0.772282 0.711742 -0.456618
C18   C     C_3   0.053843 0.802123 0.604853 -0.250169
C19   C     C_3   0.045485 0.890407 0.597214 -0.950894
C20   C     C_3   0.919438 0.222788 0.331877 -0.481794
C21   C     C_3   0.869981 0.174328 0.320563 -0.204488
C22   C     C_3   0.905633 0.100767 0.388462 -0.961933
C23   C     C_3   0.918365 0.769509 0.297469 -0.478589
C24   C     C_R   0.197217 0.735117 0.564862 0.129208
C25   C     C_3   0.854634 0.821370 0.240414 -0.207270
C26   C     C_3   0.876812 0.902928 0.288132 -0.959047
C27   C     C_3   0.082978 0.223170 0.668595 -0.480300
C28   C     C_3   0.135752 0.177637 0.685100 -0.216565
C29   C     C_3   0.105095 0.100316 0.625392 -0.949371
C30   C     C_3   0.581886 0.269903 0.703528 -0.472918
C31   C     C_3   0.642109 0.323046 0.748784 -0.214067
C32   C     C_3   0.629007 0.407440 0.754529 -0.927778
C33   C     C_3   0.416486 0.723222 0.332338 -0.479491
C34   C     C_3   0.364032 0.679551 0.318062 -0.216175
C35   C     C_R   0.697059 0.762541 0.567904 0.120945
C36   C     C_3   0.394132 0.602340 0.378055 -0.946571
C37   C     C_3   0.411741 0.273317 0.292261 -0.452912
C38   C     C_3   0.454815 0.302059 0.403504 -0.256073
C39   C     C_3   0.475691 0.387059 0.417860 -0.932483
C40   C     C_3   0.580546 0.722791 0.669011 -0.481561
C41   C     C_3   0.629745 0.673956 0.680111 -0.203663
C42   C     C_3   0.594027 0.599972 0.613157 -0.961322
C43   C     C_R   0.301954 0.234877 0.433582 0.129274
C44   C     C_R   0.373605 0.836497 0.602787 0.132281
C45   C     C_R   0.629326 0.162996 0.400991 0.133398
C46   C     C_R   0.870055 0.767411 0.682766 -0.229757
C47   C     C_R   0.128829 0.229238 0.318693 -0.229519
C48   C     C_R   0.218017 0.859820 0.534172 -0.224844
C49   C     C_R   0.822571 0.583331 0.188855 -0.172741
C50   C     C_R   0.784558 0.139039 0.468826 -0.222864
C51   C     C_R   0.280971 0.359691 0.463779 -0.224516
C52   C     C_R   0.715696 0.639196 0.531880 -0.222571
C53   C     C_R   0.629516 0.266371 0.316227 -0.229814
C54   C     C_R   0.370911 0.730073 0.681501 -0.229136
C55   C     C_R   0.900977 0.731092 0.661949 -0.176121
C56   C     C_R   0.096639 0.267363 0.336374 -0.174254
C57   C     C_R   0.174919 0.810889 0.522880 -0.176950
C58   C     C_R   0.826759 0.187741 0.477969 -0.178937
C59   C     C_R   0.323995 0.310875 0.474851 -0.178420
C60   C     C_R   0.812007 0.400934 0.199242 -0.169210
C61   C     C_R   0.673620 0.687593 0.523260 -0.179108
C62   C     C_R   0.598195 0.229618 0.336175 -0.176409
C63   C     C_R   0.403255 0.768108 0.664013 -0.174301
C64   C     C_R   0.813938 0.628215 0.567241 -0.282033
C65   C     C_R   0.181600 0.372070 0.425665 -0.283398
C66   C     C_R   0.265837 0.712046 0.627606 -0.285101
C67   C     C_R   0.733993 0.284414 0.368494 -0.284595
C68   C     C_R   0.233568 0.211457 0.371652 -0.285143
C69   C     C_R   0.766145 0.784602 0.632090 -0.284187
C70   C     C_R   0.685621 0.127171 0.431755 -0.282005
C71   C     C_R   0.179073 0.584081 0.810938 -0.155198
C72   C     C_R   0.317908 0.872473 0.573537 -0.283264
C73   C     C_R   0.780140 0.666710 0.581780 0.188504
C74   C     C_R   0.216807 0.331848 0.414598 0.188572
C75   C     C_R   0.307693 0.758978 0.634737 0.191890
C76   C     C_R   0.693109 0.237976 0.363881 0.192391
C77   C     C_R   0.191774 0.258348 0.364683 0.192089
C78   C     C_R   0.806818 0.738554 0.636005 0.192398
C79   C     C_R   0.719802 0.166125 0.418102 0.188658
C80   C     C_R   0.282495 0.832254 0.584247 0.188533
C81   C     C_R   0.856726 0.579657 0.475365 -0.119049
C82   C     C_R   0.688022 0.901017 0.800786 -0.172409
C83   C     C_R   0.141863 0.420421 0.522136 -0.124749
C84   C     C_R   0.164922 0.603244 0.576371 -0.131709
C85   C     C_R   0.834918 0.395690 0.422588 -0.130139
C86   C     C_R   0.334790 0.103075 0.422961 -0.132652
C87   C     C_R   0.665193 0.895595 0.577862 -0.130002
C88   C     C_R   0.642937 0.079131 0.524001 -0.117506
C89   C     C_R   0.358101 0.920517 0.477780 -0.125083
C90   C     C_R   0.919425 0.308432 0.515652 -0.148325
C91   C     C_R   0.080865 0.690758 0.483376 -0.167463
C92   C     C_R   0.056178 0.333495 0.429087 -0.153962
C93   C     C_R   0.319283 0.086129 0.189661 -0.155193
C94   C     C_R   0.940089 0.668626 0.565542 -0.156621
C95   C     C_R   0.443796 0.833648 0.571017 -0.154882
C96   C     C_R   0.558985 0.167285 0.432526 -0.162967
C97   C     C_R   0.580666 0.808323 0.484732 -0.148315
C98   C     C_R   0.418383 0.190826 0.515285 -0.157855
C99   C     C_R   0.102094 0.684838 0.726125 0.141361
C100  C     C_R   0.892121 0.304360 0.289380 0.136688
C101  C     C_R   0.900051 0.684002 0.275189 0.148796
C102  C     C_R   0.107511 0.304875 0.711463 0.145101
C103  C     C_R   0.601060 0.184632 0.724961 0.149726
C104  C     C_R   0.312485 0.901875 0.198104 -0.171349
C105  C     C_R   0.392378 0.804814 0.288704 0.144751
C106  C     C_R   0.396632 0.186554 0.275159 0.142564
C107  C     C_R   0.607931 0.804426 0.710913 0.137144
C108  C     C_R   0.174429 0.326155 0.806772 -0.001659
C109  C     C_R   0.841114 0.651078 0.176447 0.004323
C110  C     C_R   0.824633 0.324823 0.194489 0.000996
C111  C     C_R   0.161578 0.652069 0.823855 -0.016232
C112  C     C_R   0.675462 0.824947 0.805732 0.003849
C113  C     C_R   0.335991 0.155350 0.177448 -0.018987
C114  C     C_R   0.325479 0.826132 0.193146 -0.001653
C115  C     C_R   0.677944 0.083621 0.811098 -0.171272
C116  C     C_R   0.659894 0.151678 0.823641 -0.001424
C117  C     C_R   0.889203 0.637873 0.550065 0.061219
C118  C     C_R   0.107387 0.363421 0.444812 0.064151
C119  C     C_R   0.148367 0.677920 0.537741 0.069783
C120  C     C_R   0.851675 0.320587 0.460479 0.055659
C121  C     C_R   0.350937 0.177806 0.460889 0.068324
C122  C     C_R   0.648513 0.820428 0.540273 0.055997
C123  C     C_R   0.609968 0.136568 0.448258 0.061916
C124  C     C_R   0.392556 0.863662 0.555201 0.064201
C125  C     C_R   0.773067 0.197542 0.991464 -0.222292
C126  C     C_R   0.126194 0.336003 0.397116 0.132350
C127  C     C_R   0.211825 0.768579 0.034064 -0.209951
C128  C     C_R   0.223430 0.204760 0.011582 -0.191799
C129  C     C_R   0.789485 0.765985 0.963483 -0.212941
C130  C     C_R   0.274838 0.699920 0.990221 -0.190701
C131  C     C_R   0.710427 0.267025 0.035414 -0.209359
C132  C     C_R   0.728068 0.699266 0.010788 -0.213629
C133  C     C_R   0.287268 0.268667 0.966875 -0.210862
C134  C     C_R   0.812153 0.244208 0.079007 -0.166059
C135  C     C_R   0.172374 0.722335 0.945018 -0.177911
C136  C     C_R   0.184806 0.249627 0.922526 -0.167023
H1    H     H_    0.238316 0.429454 0.858806 0.102723
H2    H     H_    0.185918 0.455340 0.557131 0.091245
H3    H     H_    0.411757 0.566633 0.353763 0.267991
H4    H     H_    0.439040 0.612786 0.465380 0.266759
H5    H     H_    0.353227 0.569648 0.359598 0.255205
H6    H     H_    0.350565 0.715797 0.348363 0.199964
H7    H     H_    0.315140 0.667353 0.232223 0.207948
H8    H     H_    0.425324 0.690679 0.293640 0.184469
H9    H     H_    0.466361 0.726609 0.418367 0.193737
H10   H     H_    0.510899 0.393280 0.413016 0.262368
H11   H     H_    0.428322 0.423656 0.355423 0.265632
H12   H     H_    0.503767 0.408042 0.496940 0.256234
H13   H     H_    0.215860 0.575924 0.635008 0.082151
H14   H     H_    0.422332 0.297402 0.413326 0.198716
H15   H     H_    0.502872 0.266691 0.465239 0.201739
H16   H     H_    0.436402 0.290204 0.270881 0.179005
H17   H     H_    0.360795 0.304862 0.235050 0.201790
H18   H     H_    0.572148 0.566618 0.632144 0.271728
H19   H     H_    0.551260 0.614691 0.526963 0.264624
H20   H     H_    0.632816 0.562989 0.630482 0.259330
H21   H     H_    0.647370 0.708231 0.654984 0.200348
H22   H     H_    0.676996 0.657226 0.764952 0.207294
H23   H     H_    0.574032 0.693606 0.712380 0.179373
H24   H     H_    0.783827 0.422657 0.363914 0.082199
H25   H     H_    0.528133 0.726102 0.584289 0.196388
H26   H     H_    0.283908 0.075596 0.364195 0.082433
H27   H     H_    0.716282 0.922587 0.636678 0.082170
H28   H     H_    0.686665 0.043390 0.559294 0.089798
H29   H     H_    0.314028 0.955440 0.442636 0.091276
H30   H     H_    0.945665 0.253291 0.544509 0.094155
H31   H     H_    0.055402 0.746108 0.454567 0.085306
H32   H     H_    0.019356 0.288341 0.374189 0.097317
H33   H     H_    0.774814 0.550692 0.126672 0.111016
H34   H     H_    0.971950 0.717662 0.613505 0.111268
H35   H     H_    0.480601 0.788555 0.626069 0.097692
H36   H     H_    0.526030 0.215039 0.382156 0.116536
H37   H     H_    0.554336 0.753201 0.455787 0.093839
H38   H     H_    0.443044 0.246369 0.543381 0.080555
H39   H     H_    0.796896 0.173345 0.972793 0.121545
H40   H     H_    0.188052 0.794909 0.051861 0.119921
H41   H     H_    0.199337 0.181995 0.030406 0.118880
H42   H     H_    0.812622 0.791633 0.944314 0.122561
H43   H     H_    0.298693 0.675706 0.971602 0.118513
H44   H     H_    0.761273 0.428761 0.142688 0.101140
H45   H     H_    0.686837 0.293562 0.053415 0.119087
H46   H     H_    0.704780 0.676050 0.030761 0.121234
H47   H     H_    0.311334 0.293087 0.948705 0.120140
H48   H     H_    0.866453 0.255230 0.128290 0.112853
H49   H     H_    0.117086 0.713676 0.891755 0.118339
H50   H     H_    0.130205 0.260917 0.871479 0.116718
H51   H     H_    0.884649 0.710983 0.105674 0.121050
H52   H     H_    0.368515 0.756475 0.128824 0.116376
H53   H     H_    0.615210 0.212965 0.892287 0.113931
H54   H     H_    0.634734 0.757602 0.874581 0.114550
H55   H     H_    0.227242 0.551950 0.872258 0.105988
H56   H     H_    0.381271 0.213557 0.109715 0.117147
H57   H     H_    0.202629 0.427208 0.467190 0.118982
H58   H     H_    0.791578 0.574441 0.522551 0.118258
H59   H     H_    0.713519 0.340490 0.329740 0.114382
H60   H     H_    0.285243 0.654975 0.663414 0.114378
H61   H     H_    0.786575 0.840700 0.670782 0.114289
H62   H     H_    0.214396 0.154168 0.336490 0.114340
H63   H     H_    0.296796 0.927472 0.531686 0.118866
H64   H     H_    0.708010 0.073434 0.476539 0.118349
H65   H     H_    0.052070 0.239746 0.309243 0.111833
H66   H     H_    0.738765 0.928824 0.857193 0.102173
H67   H     H_    0.946248 0.758325 0.690825 0.110140
H68   H     H_    0.878960 0.168066 0.525239 0.121835
H69   H     H_    0.123158 0.831407 0.476769 0.117581
H70   H     H_    0.621553 0.667696 0.476432 0.122131
H71   H     H_    0.375538 0.331725 0.520314 0.117476
H72   H     H_    0.448035 0.740609 0.691681 0.112110
H73   H     H_    0.552687 0.256623 0.306753 0.110082
H74   H     H_    0.300357 0.416514 0.501234 0.126974
H75   H     H_    0.695179 0.583462 0.491445 0.126429
H76   H     H_    0.607661 0.320670 0.272264 0.123845
H77   H     H_    0.270855 0.054267 0.128683 0.105744
H78   H     H_    0.391572 0.674568 0.722535 0.124161
H79   H     H_    0.891894 0.821717 0.726712 0.123847
H80   H     H_    0.108273 0.173566 0.278089 0.124038
H81   H     H_    0.198489 0.916473 0.496229 0.126690
H82   H     H_    0.805129 0.083334 0.509336 0.126477
H83   H     H_    0.008071 0.907414 0.595411 0.264804
H84   H     H_    0.096923 0.918819 0.666252 0.270224
H85   H     H_    0.025422 0.911366 0.523382 0.259092
H86   H     H_    0.086908 0.787216 0.597922 0.205176
H87   H     H_    0.001574 0.774666 0.539578 0.199024
H88   H     H_    0.261821 0.929853 0.140798 0.102826
H89   H     H_    0.061830 0.790980 0.726546 0.177169
H90   H     H_    0.142104 0.801476 0.774360 0.206713
H91   H     H_    0.927700 0.066738 0.370194 0.275747
H92   H     H_    0.948233 0.116051 0.474456 0.264068
H93   H     H_    0.866741 0.064204 0.371348 0.260256
H94   H     H_    0.851899 0.209076 0.344680 0.201013
H95   H     H_    0.823005 0.157118 0.235831 0.206265
H96   H     H_    0.926306 0.193118 0.289211 0.178054
H97   H     H_    0.971734 0.226333 0.416658 0.196472
H98   H     H_    0.902410 0.900793 0.369304 0.272932
H99   H     H_    0.725554 0.050749 0.873104 0.110768
H100  H     H_    0.913407 0.928553 0.291867 0.265457
H101  H     H_    0.829808 0.940826 0.237815 0.260220
H102  H     H_    0.820909 0.827435 0.154942 0.213738
H103  H     H_    0.823010 0.795045 0.246261 0.198542
H104  H     H_    0.957104 0.779276 0.383560 0.198125
H105  H     H_    0.941616 0.786803 0.273864 0.181590
H106  H     H_    0.085899 0.066101 0.648192 0.272097
H107  H     H_    0.061155 0.110630 0.537982 0.267538
H108  H     H_    0.146143 0.066156 0.645634 0.255814
H109  H     H_    0.150579 0.212564 0.655955 0.199881
H110  H     H_    0.813075 0.543835 0.440273 0.090119
H111  H     H_    0.183889 0.165388 0.771245 0.208029
H112  H     H_    0.073036 0.192051 0.706566 0.184215
H113  H     H_    0.033672 0.226409 0.582291 0.194095
H114  H     H_    0.576771 0.427135 0.676033 0.256650
H115  H     H_    0.631422 0.413286 0.814612 0.262999
H116  H     H_    0.669871 0.445424 0.778557 0.256747
H117  H     H_    0.693248 0.305659 0.829994 0.211345
H118  H     H_    0.646745 0.319381 0.696776 0.192229
H119  H     H_    0.539281 0.280481 0.617270 0.180839
H120  H     H_    0.563929 0.286197 0.735557 0.195861
N1    N     N_R   0.127770 0.430660 0.707120 -0.042737
N2    N     N_R   0.110270 0.426120 0.547030 -0.040024
N3    N     N_R   0.110270 0.573880 0.547030 -0.035883
N4    N     N_R   0.889730 0.426120 0.452970 -0.036408
N5    N     N_R   0.389730 0.073880 0.452970 -0.036009
N6    N     N_R   0.610270 0.926120 0.547030 -0.036329
N7    N     N_R   0.610270 0.073880 0.547030 -0.040075
N8    N     N_R   0.389730 0.926120 0.452970 -0.040114
N9    N     N_R   0.941150 0.372910 0.507880 -0.039091
N10   N     N_R   0.058850 0.627090 0.492120 -0.040260
N11   N     N_R   0.058850 0.372910 0.492120 -0.043498
N12   N     N_R   0.872230 0.569340 0.292880 -0.044970
N13   N     N_R   0.941150 0.627090 0.507880 -0.045296
N14   N     N_R   0.441150 0.872910 0.507880 -0.043516
N15   N     N_R   0.558850 0.127090 0.492120 -0.046911
N16   N     N_R   0.558850 0.872910 0.492120 -0.039051
N17   N     N_R   0.441150 0.127090 0.507880 -0.040659
N18   N     N_R   0.076340 0.631640 0.652210 -0.053657
N19   N     N_R   0.923660 0.368360 0.347790 -0.057289
N20   N     N_R   0.923660 0.631640 0.347790 -0.062359
N21   N     N_R   0.076340 0.368360 0.652210 -0.059343
N22   N     N_R   0.576340 0.131640 0.652210 -0.063166
N23   N     N_R   0.872230 0.430660 0.292880 -0.040547
N24   N     N_R   0.423660 0.868360 0.347790 -0.059166
N25   N     N_R   0.423660 0.131640 0.347790 -0.053188
N26   N     N_R   0.576340 0.868360 0.652210 -0.057425
N27   N     N_R   0.127770 0.569340 0.707120 -0.044041
N28   N     N_R   0.627770 0.930660 0.707120 -0.040439
N29   N     N_R   0.372230 0.069340 0.292880 -0.043605
N30   N     N_R   0.372230 0.930660 0.292880 -0.042834
N31   N     N_R   0.627770 0.069340 0.707120 -0.044626
N32   N     N_R   0.889730 0.573880 0.452970 -0.040266
Ni1   Ni    Ni4+2 0.119340 0.500000 0.625930 0.203145
Ni2   Ni    Ni4+2 0.880660 0.500000 0.374070 0.202838
Ni3   Ni    Ni4+2 0.619340 1.000000 0.625930 0.202780
Ni4   Ni    Ni4+2 0.380660 0.000000 0.374070 0.203249
Ni5   Ni    Ni4+2 1.000000 0.373980 0.500000 0.204530
Ni6   Ni    Ni4+2 1.000000 0.626020 0.500000 0.201326
Ni7   Ni    Ni4+2 0.500000 0.873980 0.500000 0.204523
Ni8   Ni    Ni4+2 0.500000 0.126020 0.500000 0.200955

loop_
_geom_bond_atom_site_label_1
_geom_bond_atom_site_label_2
_ccdc_geom_bond_type
C125  C134  A    
C9    C111  S    
C98   C121  A    
C87   H27   S    
N1    N21   A    
C20   H96   S    
C32   H114  S    
C11   C109  S    
C41   C42   S    
C28   H111  S    
C40   H23   S    
C10   C108  S    
C19   H85   S    
C10   C133  A    
C51   H74   S    
C82   N28   A    
C11   C132  A    
C1    C108  A    
C115  H99   S    
N1    Ni1   S    
C48   C57   A    
C12   C127  A    
C54   H78   S    
C9    C130  A    
N27   Ni1   S    
C96   N15   A    
C100  C110  A    
C32   H115  S    
C97   C122  A    
C14   C125  A    
C42   H20   S    
C82   C112  A    
C83   C118  A    
C91   H31   S    
C28   C29   S    
C42   H18   S    
C10   C136  A    
C7    C133  A    
C52   C61   A    
C128  C136  A    
N25   Ni8   S    
C38   C39   S    
C98   H38   S    
C94   C117  A    
N26   Ni7   S    
C22   H92   S    
C54   C63   A    
N3    Ni1   S    
C101  C109  A    
C115  C116  A    
C21   H95   S    
N5    Ni4   S    
C57   H69   S    
C45   C62   A    
C127  H40   S    
N24   Ni7   S    
N6    Ni3   S    
C83   N2    A    
C68   H62   S    
C18   C19   S    
N8    Ni4   S    
N11   Ni5   S    
C92   C118  A    
C118  C126  S    
C84   N3    A    
C132  H46   S    
C6    C15   A    
C92   N11   A    
C17   H89   S    
C133  H47   S    
C34   H6    S    
N28   Ni3   S    
C115  N31   A    
C43   C68   A    
C60   N23   A    
C71   C111  A    
C46   C55   A    
C52   H75   S    
C70   H64   S    
C64   C73   A    
C51   C74   A    
C101  N20   A    
C102  C108  A    
C86   H26   S    
C85   H24   S    
C56   C126  A    
C23   H105  S    
C91   N10   A    
N19   Ni5   S    
C75   C80   A    
C43   C121  S    
C86   N5    A    
C65   H57   S    
C96   C123  A    
C43   C59   A    
C61   H70   S    
C84   H13   S    
C26   H98   S    
N7    N15   A    
N14   Ni7   S    
C58   H68   S    
C33   H8    S    
N18   N27   A    
C21   C22   S    
C90   H30   S    
C69   H61   S    
C6    H54   S    
C69   C78   A    
C18   H86   S    
C8    C131  A    
C88   C123  A    
C67   H59   S    
N2    N11   A    
C15   C112  S    
C35   C69   A    
C38   H14   S    
C60   C110  A    
C99   N18   A    
C2    C64   A    
C33   C34   S    
N13   N32   A    
C1    N1    A    
C48   H81   S    
C44   C63   A    
N25   N29   A    
N18   Ni6   S    
N4    Ni2   S    
C34   H7    S    
C50   C79   A    
C97   H37   S    
N22   N31   A    
C31   H117  S    
C100  N19   A    
C93   H77   S    
C50   C58   A    
C37   H17   S    
C105  C114  A    
C90   N9    A    
C33   C105  S    
C66   H60   S    
C6    C132  A    
C52   C73   A    
C46   C78   A    
C66   C75   A    
C24   C57   A    
C128  H41   S    
C4    C130  A    
C22   H91   S    
C106  C113  A    
C25   C26   S    
C88   H28   S    
C94   N13   A    
C8    C134  A    
C93   N29   A    
C74   C77   A    
C51   C59   A    
C45   C123  S    
C65   C74   A    
C41   H22   S    
C64   H58   S    
N17   Ni8   S    
N32   Ni2   S    
C30   C103  S    
C85   C120  A    
N19   N23   A    
C36   H5    S    
C37   C38   S    
C18   H87   S    
C98   N17   A    
C8    C110  S    
C23   C101  S    
C16   C113  S    
N20   Ni6   S    
C53   C62   A    
C92   H32   S    
C45   C70   A    
C31   C32   S    
C15   C129  A    
C73   C78   A    
N23   Ni2   S    
C99   C111  A    
C47   H80   S    
N12   N20   A    
C86   C121  A    
N9    Ni5   S    
C17   C18   S    
C5    C14   A    
N21   Ni5   S    
C35   C61   A    
C107  C112  A    
C93   C113  A    
C39   H12   S    
C36   H4    S    
C87   N6    A    
C89   H29   S    
N13   Ni6   S    
C104  C114  A    
C104  N30   A    
C89   N8    A    
N26   N28   A    
C40   C107  S    
C41   H21   S    
C9    C135  A    
N2    Ni1   S    
C40   C41   S    
C20   H97   S    
C63   H72   S    
C56   H65   S    
C96   H36   S    
C44   C72   A    
C37   C106  S    
C91   C119  A    
C7    H56   S    
C107  N26   A    
C19   H83   S    
C47   C77   A    
C102  N21   A    
N12   Ni2   S    
C125  H39   S    
C38   H15   S    
C13   C120  S    
C1    H1    S    
C76   C79   A    
C95   N14   A    
C82   H66   S    
C13   C67   A    
C49   N12   A    
C59   H71   S    
C68   C77   A    
C13   C58   A    
C7    C16   A    
C24   C119  S    
N8    N14   A    
C31   H118  S    
C136  H50   S    
C70   C79   A    
C3    C129  A    
N7    Ni3   S    
C81   H110  S    
C35   C122  S    
C55   H67   S    
C134  H48   S    
C16   C128  A    
C3    H51   S    
C87   C122  A    
C81   N32   A    
C97   N16   A    
C62   H73   S    
C19   H84   S    
C89   C124  A    
C24   C66   A    
C60   H44   S    
C2    C117  S    
C129  H42   S    
C32   H116  S    
C27   C102  S    
C95   C124  A    
C29   H107  S    
N30   Ni4   S    
N10   Ni6   S    
C106  N25   A    
C71   N27   A    
C65   C126  A    
C48   C80   A    
C39   H11   S    
C42   H19   S    
C27   H113  S    
C49   C109  A    
C5    H53   S    
C40   H25   S    
C72   C80   A    
N3    N10   A    
C27   H112  S    
C94   H34   S    
C72   H63   S    
C49   H33   S    
C23   H104  S    
C131  H45   S    
C26   H101  S    
C4    H52   S    
C30   C31   S    
C22   H93   S    
C95   H35   S    
C25   H102  S    
C84   C119  A    
C14   C116  S    
C21   H94   S    
C39   H10   S    
C29   H108  S    
C135  H49   S    
C2    C55   A    
C103  C116  A    
N31   Ni3   S    
C28   H109  S    
N22   Ni8   S    
C85   N4    A    
C17   C99   S    
C127  C135  A    
C36   H3    S    
N24   N30   A    
N15   Ni8   S    
C26   H100  S    
C3    C11   A    
C130  H43   S    
N16   Ni7   S    
N6    N16   A    
C54   C75   A    
C53   C76   A    
C5    C131  A    
C23   C25   S    
N5    N17   A    
C20   C21   S    
C34   C36   S    
C17   H90   S    
C46   H79   S    
C12   C114  S    
C29   H106  S    
C44   C124  S    
C27   C28   S    
C105  N24   A    
C25   H103  S    
C30   H119  S    
C81   C117  A    
C30   H120  S    
N29   Ni4   S    
C67   C76   A    
C37   H16   S    
C103  N22   A    
C71   H55   S    
N4    N9    A    
C4    C12   A    
C50   H82   S    
C104  H88   S    
C83   H2    S    
C53   H76   S    
C33   H9    S    
C88   N7    A    
C90   C120  A    
C47   C56   A    
C20   C100  S    
