data_mof_unit_50358.cif
_audit_creation_date              2012-12-10T19:45:13-0500
_audit_creation_method            fapswitch 2.2
_symmetry_space_group_name_H-M    P1
_symmetry_Int_Tables_number       1
_space_group_crystal_system       triclinic
_cell_length_a                    15.005577
_cell_length_b                    14.128544
_cell_length_c                    10.698275
_cell_angle_alpha                 90.723978
_cell_angle_beta                  90.136356
_cell_angle_gamma                 89.988811
_cell_volume                      2267.92118729

loop_
_atom_site_label
_atom_site_type_symbol
_atom_type_description
_atom_site_fract_x
_atom_site_fract_y
_atom_site_fract_z
_atom_type_partial_charge
C1    C     C_R   0.327686 0.500008 0.499794 0.849755
C2    C     C_R   0.672303 0.499983 0.499402 0.861112
C3    C     C_R   0.048071 0.500256 0.492302 0.117210
C4    C     C_R   0.951881 0.499655 0.491983 0.116704
C5    C     C_R   0.447366 0.103850 0.413231 0.007720
C6    C     C_R   0.552327 0.105528 0.587254 0.006619
C7    C     C_R   0.449236 0.203835 0.415525 -0.040566
C8    C     C_R   0.550689 0.205458 0.584578 -0.041253
C9    C     C_R   0.499842 0.052934 0.500272 0.050966
C10   C     C_R   0.553913 0.894589 0.417045 -0.283004
C11   C     C_R   0.446037 0.896035 0.583477 -0.285442
C12   C     C_R   0.553024 0.795006 0.418480 0.033457
C13   C     C_R   0.447022 0.796403 0.581786 0.032605
C14   C     C_R   0.499886 0.946454 0.500227 0.121142
C15   C     C_R   0.504490 0.499160 0.262442 0.779637
C16   C     C_R   0.492694 0.500551 0.737213 0.807214
C17   C     C_2   0.478262 0.423357 0.932759 -0.285132
C18   C     C_2   0.473424 0.428061 0.066706 -0.264797
C19   C     C_2   0.467934 0.502091 0.866355 0.465106
C20   C     C_2   0.518164 0.495180 0.130178 0.475161
C21   C     C_R   0.093572 0.580056 0.537682 -0.178701
C22   C     C_R   0.905317 0.578422 0.448216 -0.179379
C23   C     C_R   0.185568 0.580122 0.539846 -0.208055
C24   C     C_R   0.813332 0.578736 0.451164 -0.207654
C25   C     C_R   0.231948 0.500004 0.497767 -0.020106
C26   C     C_R   0.768018 0.499867 0.496743 -0.023405
C27   C     C_R   0.186481 0.420104 0.452694 -0.196031
C28   C     C_R   0.814527 0.420648 0.539117 -0.193411
C29   C     C_R   0.094522 0.420449 0.449316 -0.185422
C30   C     C_R   0.906491 0.420769 0.537382 -0.182913
H1    H     H_    0.495218 0.355620 0.889811 0.136393
H2    H     H_    0.434169 0.374458 0.113576 0.122829
H3    H     H_    0.594958 0.755573 0.354325 0.119341
H4    H     H_    0.405261 0.758022 0.646013 0.124830
H5    H     H_    0.057954 0.641519 0.572856 0.130036
H6    H     H_    0.940101 0.639174 0.411415 0.129594
H7    H     H_    0.220295 0.641980 0.575841 0.142644
H8    H     H_    0.777745 0.639883 0.416711 0.142090
H9    H     H_    0.221927 0.358135 0.418711 0.146160
H10   H     H_    0.779931 0.359530 0.575270 0.147204
H11   H     H_    0.059668 0.358906 0.412664 0.129116
H12   H     H_    0.942175 0.360105 0.573029 0.129447
H13   H     H_    0.409424 0.243198 0.349544 0.129449
H14   H     H_    0.590602 0.246078 0.650420 0.134035
H15   H     H_    0.596709 0.930887 0.351923 0.135723
H16   H     H_    0.403375 0.933486 0.648893 0.135987
N1    N     N_R   0.500000 0.252470 0.500000 -0.105455
N2    N     N_R   0.500000 0.747550 0.500000 -0.093013
O1    O     O_R   0.369060 0.579480 0.500010 -0.627884
O2    O     O_R   0.630940 0.579480 0.499990 -0.626334
O3    O     O_R   0.369050 0.420520 0.500010 -0.621788
O4    O     O_R   0.630950 0.420520 0.499990 -0.618365
O5    O     O_R   0.500000 0.579460 0.319080 -0.597288
O6    O     O_R   0.500000 0.579460 0.680920 -0.583624
O7    O     O_R   0.499990 0.420500 0.319080 -0.649059
O8    O     O_R   0.500010 0.420500 0.680920 -0.655244
Zn1   Zn    Zn3+2 0.500000 0.606140 0.500000 0.960993
Zn2   Zn    Zn3+2 0.500000 0.393860 0.500000 0.926017
O9    O     O_3   0.436992 0.585687 0.920468 -0.543132
C31   C     C_3   0.346184 0.596245 0.889445 -0.337631
H17   H     H_    0.305975 0.535684 0.923770 0.155928
H18   H     H_    0.336662 0.604521 0.786969 0.146981
H19   H     H_    0.320720 0.661434 0.935885 0.196349
O10   O     O_3   0.574381 0.558576 0.069873 -0.556297
C32   C     C_3   0.656937 0.566341 0.132858 -0.324406
H20   H     H_    0.684304 0.495877 0.158617 0.135866
H21   H     H_    0.651119 0.612846 0.216869 0.168435
H22   H     H_    0.705601 0.599797 0.069262 0.194460
C33   C     C_3   0.388414 0.054598 0.317700 -0.427039
C34   C     C_3   0.433060 0.052610 0.189015 -0.332803
C35   C     C_3   0.375288 0.000810 0.092619 -0.878605
H23   H     H_    0.364515 0.926295 0.120868 0.269962
H24   H     H_    0.309821 0.036744 0.083083 0.255490
H25   H     H_    0.409073 0.000720 0.000475 0.248030
H26   H     H_    0.444816 0.126115 0.156969 0.214470
H27   H     H_    0.498410 0.016015 0.195488 0.222991
H28   H     H_    0.372628 0.981188 0.346106 0.221113
H29   H     H_    0.323609 0.092547 0.311888 0.189686
C36   C     C_3   0.610995 0.058218 0.683254 -0.426463
C37   C     C_3   0.567383 0.061971 0.812619 -0.334313
C38   C     C_3   0.624954 0.012440 0.909649 -0.875429
H30   H     H_    0.633471 0.936536 0.884047 0.271162
H31   H     H_    0.691419 0.046753 0.916378 0.256753
H32   H     H_    0.592311 0.017200 0.002450 0.246481
H33   H     H_    0.557365 0.136849 0.842629 0.213967
H34   H     H_    0.501249 0.026707 0.808228 0.222026
H35   H     H_    0.624976 0.983425 0.657005 0.222165
H36   H     H_    0.676608 0.094776 0.686866 0.190830

loop_
_geom_bond_atom_site_label_1
_geom_bond_atom_site_label_2
_ccdc_geom_bond_type
C27   C29   A    
C33   H28   S    
C12   N2    A    
C6    C9    A    
C36   H35   S    
C38   H30   S    
N2    Zn1   S    
C31   H19   S    
C15   O5    A    
C24   C26   A    
C11   C14   A    
C28   H10   S    
O1    Zn1   S    
C31   H18   S    
C3    C29   A    
C37   H34   S    
C2    O2    A    
C27   H9    S    
C32   H21   S    
C24   H8    S    
C34   C35   S    
C7    H13   S    
O9    C31   S    
C1    C25   S    
C33   H29   S    
C10   C12   A    
C36   H36   S    
C38   H31   S    
C15   C20   S    
O4    Zn2   S    
C10   C14   A    
C5    C7    A    
O5    Zn1   S    
C6    C8    A    
C19   O9    S    
C23   H7    S    
C5    C33   S    
C31   H17   S    
C15   O7    A    
C20   O10   S    
C9    C14   S    
C16   O8    A    
C5    C9    A    
C37   H33   S    
C13   N2    A    
C4    C22   A    
C32   H22   S    
C10   H15   S    
C17   C18   S    
C2    C26   S    
O3    Zn2   S    
C1    O3    A    
C2    O4    A    
C21   C23   A    
C34   H27   S    
C17   H1    S    
C22   C24   A    
C3    C21   A    
C18   H2    S    
C3    C4    S    
C38   H32   S    
C35   H24   S    
C29   H11   S    
O2    Zn1   S    
C8    H14   S    
C37   C38   S    
C35   H25   S    
C21   H5    S    
C25   C27   A    
C22   H6    S    
C26   C28   A    
O10   C32   S    
C28   C30   A    
C8    N1    A    
C35   H23   S    
N1    Zn2   S    
C11   C13   A    
C6    C36   S    
C16   C19   S    
C17   C19   D    
O8    Zn2   S    
C18   C20   D    
C23   C25   A    
C33   C34   S    
C16   O6    A    
C36   C37   S    
C13   H4    S    
C32   H20   S    
O7    Zn2   S    
C34   H26   S    
C30   H12   S    
C11   H16   S    
C12   H3    S    
C1    O1    A    
C4    C30   A    
C7    N1    A    
O6    Zn1   S    
