data_mof_unit_40240.cif
_audit_creation_date              2012-12-10T19:09:27-0500
_audit_creation_method            fapswitch 2.2
_symmetry_space_group_name_H-M    P1
_symmetry_Int_Tables_number       1
_space_group_crystal_system       triclinic
_cell_length_a                    15.014535
_cell_length_b                    15.036811
_cell_length_c                    9.694731
_cell_angle_alpha                 89.998755
_cell_angle_beta                  90.010957
_cell_angle_gamma                 90.000219
_cell_volume                      2188.78640646

loop_
_atom_site_label
_atom_site_type_symbol
_atom_type_description
_atom_site_fract_x
_atom_site_fract_y
_atom_site_fract_z
_atom_type_partial_charge
C1    C     C_R   0.121185 0.378786 0.500287 0.836766
C2    C     C_R   0.878648 0.621208 0.500275 0.835001
C3    C     C_R   0.378620 0.878820 0.500275 0.835217
C4    C     C_R   0.378643 0.121202 0.500274 0.835121
C5    C     C_3   0.785041 0.286335 0.652034 -0.400025
C6    C     C_3   0.845899 0.226455 0.427418 -0.407739
C7    C     C_3   0.845846 0.773495 0.427035 -0.407729
C8    C     C_3   0.785311 0.713923 0.652057 -0.398980
C9    C     C_3   0.285038 0.786341 0.652039 -0.399568
C10   C     C_3   0.345899 0.726453 0.427433 -0.407780
C11   C     C_3   0.345857 0.273506 0.427111 -0.407704
C12   C     C_R   0.121159 0.621240 0.500285 0.836624
C13   C     C_3   0.285257 0.213874 0.652047 -0.399400
C14   C     C_3   0.213765 0.714734 0.652045 -0.402306
C15   C     C_3   0.273637 0.654246 0.427240 -0.407503
C16   C     C_3   0.273591 0.345711 0.426903 -0.407451
C17   C     C_3   0.213997 0.285495 0.652054 -0.401866
C18   C     C_3   0.713798 0.214699 0.652041 -0.401966
C19   C     C_3   0.773627 0.154257 0.427185 -0.407492
C20   C     C_3   0.773586 0.845706 0.426857 -0.407410
C21   C     C_3   0.714027 0.785523 0.652062 -0.402240
C22   C     C_3   0.726465 0.345475 0.425558 -0.407346
C23   C     C_R   0.621188 0.878788 0.500288 0.836763
C24   C     C_3   0.726407 0.654470 0.425965 -0.407344
C25   C     C_3   0.226466 0.845476 0.425554 -0.407311
C26   C     C_3   0.226419 0.154484 0.425888 -0.407365
C27   C     C_3   0.810438 0.310703 0.501258 0.200998
C28   C     C_3   0.810485 0.689343 0.501269 0.200759
C29   C     C_3   0.310437 0.810705 0.501262 0.200916
C30   C     C_3   0.310477 0.189335 0.501266 0.200809
C31   C     C_3   0.189255 0.689442 0.501273 0.201365
C32   C     C_3   0.189297 0.310601 0.501281 0.201184
C33   C     C_3   0.689258 0.189438 0.501271 0.201332
C34   C     C_R   0.621162 0.121237 0.500284 0.836637
C35   C     C_3   0.689303 0.810605 0.501283 0.201240
C36   C     C_3   0.154201 0.773258 0.425741 -0.407583
C37   C     C_3   0.154154 0.226699 0.426091 -0.407483
C38   C     C_3   0.654190 0.273267 0.425790 -0.407559
C39   C     C_3   0.654149 0.726691 0.426137 -0.407561
C40   C     C_3   0.049026 0.423246 0.081248 -0.231304
C41   C     C_3   0.049044 0.423262 0.918800 -0.232058
C42   C     C_3   0.040055 0.581930 0.918782 -0.233068
C43   C     C_3   0.040049 0.581937 0.081255 -0.232493
C44   C     C_3   0.545461 0.921026 0.081252 -0.231751
C45   C     C_3   0.906967 0.494869 0.081325 -0.234755
C46   C     C_3   0.545474 0.921037 0.918796 -0.232464
C47   C     C_3   0.543765 0.079950 0.918789 -0.232653
C48   C     C_3   0.543753 0.079961 0.081250 -0.232021
C49   C     C_3   0.906972 0.494857 0.918649 -0.234945
C50   C     C_3   0.406828 0.999024 0.081326 -0.234784
C51   C     C_3   0.406832 0.999022 0.918647 -0.234970
C52   C     C_R   0.878620 0.378820 0.500274 0.835350
H1    H     H_    0.759421 0.345996 0.707445 0.161892
H2    H     H_    0.906472 0.201186 0.480876 0.144305
H3    H     H_    0.906510 0.798818 0.480181 0.144137
H4    H     H_    0.844847 0.738738 0.708888 0.164471
H5    H     H_    0.344484 0.761614 0.709186 0.164673
H6    H     H_    0.406483 0.701198 0.480877 0.144252
H7    H     H_    0.406497 0.298822 0.480329 0.144187
H8    H     H_    0.344779 0.238651 0.708954 0.164571
H9    H     H_    0.239047 0.655425 0.708744 0.163073
H10   H     H_    0.298989 0.593647 0.480321 0.144517
H11   H     H_    0.299001 0.406378 0.479724 0.144469
H12   H     H_    0.864951 0.242178 0.319134 0.166969
H13   H     H_    0.239361 0.344873 0.708482 0.162768
H14   H     H_    0.739122 0.155383 0.708676 0.162923
H15   H     H_    0.798977 0.093634 0.480203 0.144494
H16   H     H_    0.799013 0.906373 0.479662 0.144483
H17   H     H_    0.739378 0.844914 0.708472 0.162828
H18   H     H_    0.153969 0.739788 0.707925 0.163179
H19   H     H_    0.257874 0.635477 0.318845 0.165890
H20   H     H_    0.257699 0.364340 0.318496 0.165739
H21   H     H_    0.154274 0.260522 0.708208 0.163325
H22   H     H_    0.654009 0.239710 0.707985 0.163238
H23   H     H_    0.864722 0.757635 0.318725 0.167036
H24   H     H_    0.757845 0.135531 0.318779 0.165786
H25   H     H_    0.757679 0.864335 0.318453 0.165792
H26   H     H_    0.654317 0.760536 0.708237 0.163356
H27   H     H_    0.700836 0.406391 0.477414 0.144144
H28   H     H_    0.742812 0.363599 0.317116 0.165530
H29   H     H_    0.742610 0.636165 0.317545 0.165751
H30   H     H_    0.700833 0.593643 0.478145 0.144057
H31   H     H_    0.200825 0.906380 0.477430 0.144119
H32   H     H_    0.242820 0.863620 0.317123 0.165590
H33   H     H_    0.242650 0.136225 0.317461 0.165642
H34   H     H_    0.759819 0.654337 0.707810 0.162204
H35   H     H_    0.200840 0.093636 0.477996 0.144086
H36   H     H_    0.093310 0.798813 0.477952 0.144355
H37   H     H_    0.135791 0.756911 0.317398 0.166024
H38   H     H_    0.135609 0.242926 0.317760 0.166034
H39   H     H_    0.093330 0.201201 0.478556 0.144354
H40   H     H_    0.593322 0.298823 0.478062 0.144368
H41   H     H_    0.635739 0.256932 0.317460 0.166030
H42   H     H_    0.635601 0.742895 0.317797 0.166059
H43   H     H_    0.593323 0.701207 0.478617 0.144352
H44   H     H_    0.019780 0.360001 0.119960 0.136572
H45   H     H_    0.259450 0.846010 0.707468 0.161937
H46   H     H_    0.019859 0.360007 0.880010 0.136212
H47   H     H_    0.003979 0.641505 0.879885 0.136237
H48   H     H_    0.003934 0.641502 0.120082 0.136635
H49   H     H_    0.513390 0.859179 0.120026 0.136551
H50   H     H_    0.513454 0.859180 0.879950 0.136174
H51   H     H_    0.510437 0.141108 0.879917 0.136175
H52   H     H_    0.510374 0.141108 0.120041 0.136554
H53   H     H_    0.118972 0.425054 0.119004 0.139949
H54   H     H_    0.118998 0.425144 0.881189 0.139576
H55   H     H_    0.109803 0.587918 0.881366 0.140571
H56   H     H_    0.364935 0.742170 0.319140 0.167012
H57   H     H_    0.109788 0.587984 0.118805 0.140936
H58   H     H_    0.615434 0.919659 0.118909 0.140386
H59   H     H_    0.615455 0.919738 0.881279 0.140027
H60   H     H_    0.613708 0.082744 0.881312 0.140193
H61   H     H_    0.613686 0.082824 0.118870 0.140569
H62   H     H_    0.873409 0.433674 0.119371 0.140292
H63   H     H_    0.873446 0.433642 0.880657 0.139890
H64   H     H_    0.866727 0.551812 0.880289 0.138841
H65   H     H_    0.866733 0.551843 0.119651 0.139297
H66   H     H_    0.370508 0.939448 0.119488 0.139898
H67   H     H_    0.364777 0.257669 0.318812 0.167061
H68   H     H_    0.370525 0.939443 0.880505 0.139482
H69   H     H_    0.369248 0.057793 0.880434 0.139286
H70   H     H_    0.369237 0.057795 0.119541 0.139729
H71   H     H_    0.259721 0.154275 0.707717 0.162047
H72   H     H_    0.844492 0.261634 0.709195 0.164658
N1    N     N_3   0.998760 0.500000 0.138610 -0.026188
N2    N     N_3   0.998760 0.500000 0.861390 -0.025343
N3    N     N_3   0.498760 0.000000 0.138610 -0.026189
N4    N     N_3   0.498760 0.000000 0.861390 -0.025342
O1    O     O_R   0.092530 0.407440 0.616040 -0.635481
O2    O     O_R   0.907330 0.407420 0.383960 -0.632320
O3    O     O_R   0.907330 0.592580 0.383960 -0.631910
O4    O     O_R   0.907330 0.592580 0.616040 -0.634063
O5    O     O_R   0.407330 0.907420 0.616040 -0.634216
O6    O     O_R   0.407330 0.907420 0.383960 -0.632142
O7    O     O_R   0.407330 0.092580 0.383960 -0.632073
O8    O     O_R   0.407330 0.092580 0.616040 -0.634175
O9    O     O_R   0.092530 0.407440 0.383960 -0.633699
O10   O     O_R   0.092530 0.592560 0.383960 -0.633717
O11   O     O_R   0.092530 0.592560 0.616040 -0.635461
O12   O     O_R   0.592530 0.907440 0.616040 -0.635464
O13   O     O_R   0.592530 0.907440 0.383960 -0.633707
O14   O     O_R   0.592530 0.092560 0.383960 -0.633724
O15   O     O_R   0.592530 0.092560 0.616040 -0.635490
O16   O     O_R   0.907330 0.407420 0.616040 -0.634340
Zn1   Zn    Zn3+2 0.999890 0.500000 0.654960 0.890399
Zn2   Zn    Zn3+2 0.999890 0.500000 0.345040 0.892172
Zn3   Zn    Zn3+2 0.499890 0.000000 0.654960 0.890398
Zn4   Zn    Zn3+2 0.499890 0.000000 0.345040 0.892171

loop_
_geom_bond_atom_site_label_1
_geom_bond_atom_site_label_2
_ccdc_geom_bond_type
C36   H37   S    
C44   N3    S    
O2    Zn2   S    
C10   H56   S    
C16   H20   S    
C7    H3    S    
C14   C31   S    
C24   H29   S    
C11   H67   S    
C43   N1    S    
C47   N4    S    
C13   H8    S    
C36   H36   S    
O15   Zn3   S    
C6    C19   S    
C46   H50   S    
C5    H72   S    
C52   O16   A    
C20   H25   S    
O4    Zn1   S    
C46   N4    S    
C19   H24   S    
C10   H6    S    
C40   H44   S    
C22   H27   S    
C1    O1    A    
N1    Zn2   S    
C31   C36   S    
C13   H71   S    
C47   H60   S    
C48   H52   S    
C38   H40   S    
C24   C39   S    
O3    Zn2   S    
C6    H12   S    
C3    C29   S    
C24   H30   S    
O13   Zn4   S    
C5    C27   S    
C20   C35   S    
C45   H62   S    
C34   O14   A    
C47   C48   S    
C11   C30   S    
C45   N1    S    
C26   H35   S    
C50   H70   S    
C21   H26   S    
C25   H32   S    
C2    O4    A    
O6    Zn4   S    
C19   H15   S    
O5    Zn3   S    
C16   H11   S    
C42   H55   S    
O1    Zn1   S    
C9    C29   S    
N3    Zn4   S    
C4    O8    A    
C18   H22   S    
C46   H59   S    
C17   H21   S    
C14   H18   S    
C8    H4    S    
C6    H2    S    
C11   H7    S    
O12   Zn3   S    
N2    Zn1   S    
C44   C46   S    
C2    O3    A    
C25   C29   S    
C34   O15   A    
C47   H51   S    
C41   H54   S    
C37   H39   S    
O14   Zn4   S    
O9    Zn2   S    
C43   H48   S    
C19   C33   S    
C7    H23   S    
C5    C18   S    
C14   H9    S    
C1    C32   S    
C7    C28   S    
C21   H17   S    
C3    O5    A    
C35   C39   S    
C9    C14   S    
C39   H42   S    
C49   N2    S    
C11   C16   S    
C13   C30   S    
C51   H68   S    
C6    C27   S    
C45   C49   S    
C50   C51   S    
C12   O11   A    
C26   C37   S    
C32   C37   S    
C23   O12   A    
C39   H43   S    
C4    O7    A    
C37   H38   S    
C40   C41   S    
C49   H63   S    
C26   C30   S    
C23   C35   S    
C22   C27   S    
C12   C31   S    
C51   H69   S    
C12   O10   A    
C40   H53   S    
C16   C32   S    
C42   C43   S    
C51   N4    S    
C1    O9    A    
C27   C52   S    
C45   H65   S    
O11   Zn1   S    
C9    H45   S    
C50   H66   S    
C41   N2    S    
C20   H16   S    
C24   C28   S    
O16   Zn1   S    
C8    C21   S    
C44   H49   S    
N4    Zn3   S    
C15   C31   S    
C21   C35   S    
C18   H14   S    
C15   H19   S    
C17   H13   S    
C33   C38   S    
C13   C17   S    
C10   C15   S    
C3    O6    A    
C52   O2    A    
C5    H1    S    
C22   H28   S    
C42   H47   S    
C48   N3    S    
C10   C29   S    
O10   Zn2   S    
C26   H33   S    
C8    C28   S    
C40   N1    S    
C38   H41   S    
C15   H10   S    
C33   C34   S    
C9    H5    S    
O7    Zn4   S    
C18   C33   S    
O8    Zn3   S    
C42   N2    S    
C25   C36   S    
C49   H64   S    
C8    H34   S    
C7    C20   S    
C25   H31   S    
C17   C32   S    
C41   H46   S    
C23   O13   A    
C2    C28   S    
C50   N3    S    
C43   H57   S    
C4    C30   S    
C48   H61   S    
C22   C38   S    
C44   H58   S    
