data_mof_unit_58335.cif
_audit_creation_date              2012-12-11T15:34:59-0500
_audit_creation_method            fapswitch 2.2
_symmetry_space_group_name_H-M    P1
_symmetry_Int_Tables_number       1
_space_group_crystal_system       triclinic
_cell_length_a                    30.469987
_cell_length_b                    7.252328
_cell_length_c                    25.924444
_cell_angle_alpha                 89.998803
_cell_angle_beta                  112.075103
_cell_angle_gamma                 89.999285
_cell_volume                      5308.77822743

loop_
_atom_site_label
_atom_site_type_symbol
_atom_type_description
_atom_site_fract_x
_atom_site_fract_y
_atom_site_fract_z
_atom_type_partial_charge
O1    O     O_R   0.295360 0.592990 0.320420 -0.534964
O2    O     O_R   0.704640 0.407010 0.679580 -0.534964
O3    O     O_R   0.204640 0.092990 0.179580 -0.534965
O4    O     O_R   0.795360 0.907010 0.820420 -0.534965
O5    O     O_R   0.294060 0.265620 0.213230 -0.519108
O6    O     O_R   0.705940 0.734380 0.786770 -0.519108
O7    O     O_R   0.205940 0.765620 0.286770 -0.519108
O8    O     O_R   0.794060 0.234380 0.713230 -0.519107
C1    C     C_R   0.305101 0.432241 0.200743 0.748496
C2    C     C_R   0.694899 0.567759 0.799257 0.748495
C3    C     C_R   0.194899 0.932241 0.299257 0.748493
C4    C     C_R   0.805101 0.067759 0.700743 0.748494
O9    O     O_R   0.300850 0.263360 0.322080 -0.530493
O10   O     O_R   0.699150 0.736640 0.677920 -0.530494
O11   O     O_R   0.199150 0.763360 0.177920 -0.530489
O12   O     O_R   0.800850 0.236640 0.822080 -0.530490
O13   O     O_R   0.211480 0.091820 0.289210 -0.539531
O14   O     O_R   0.788520 0.908180 0.710790 -0.539532
O15   O     O_R   0.288520 0.591820 0.210790 -0.539532
O16   O     O_R   0.711480 0.408180 0.789210 -0.539532
C5    C     C_R   0.313324 0.431407 0.343275 0.705165
C6    C     C_R   0.686676 0.568593 0.656725 0.705164
C7    C     C_R   0.186676 0.931412 0.156726 0.705164
C8    C     C_R   0.813324 0.068587 0.843274 0.705162
O17   O     O_3   0.220670 0.426670 0.239090 -0.366490
O18   O     O_3   0.779330 0.573330 0.760910 -0.366488
O19   O     O_3   0.279330 0.926670 0.260910 -0.366491
O20   O     O_3   0.720670 0.073330 0.739090 -0.366491
V1    V     V_3+5 0.255440 0.152290 0.252020 1.529347
V2    V     V_3+5 0.744560 0.847710 0.747980 1.529347
V3    V     V_3+5 0.244560 0.652290 0.247980 1.529345
V4    V     V_3+5 0.755440 0.347710 0.752020 1.529346
C9    C     C_R   0.850126 0.064151 0.899959 -0.092455
C10   C     C_R   0.149874 0.935849 0.100041 -0.092456
C11   C     C_R   0.649873 0.564181 0.600041 -0.092460
C12   C     C_R   0.350127 0.435819 0.399959 -0.092460
C13   C     C_R   0.872988 0.132493 0.998194 0.331876
C14   C     C_R   0.127012 0.867506 0.001805 0.331876
C15   C     C_R   0.627000 0.632721 0.501814 0.331866
C16   C     C_R   0.373000 0.367279 0.498186 0.331866
C17   C     C_R   0.838958 0.126850 0.944179 -0.194800
C18   C     C_R   0.161043 0.873151 0.055821 -0.194800
C19   C     C_R   0.661033 0.627010 0.555827 -0.194771
C20   C     C_R   0.338967 0.372990 0.444173 -0.194772
C21   C     C_R   0.897040 0.017584 0.909122 -0.158109
C22   C     C_R   0.102960 0.982415 0.090878 -0.158108
C23   C     C_R   0.602963 0.517541 0.590874 -0.158102
C24   C     C_R   0.397037 0.482459 0.409126 -0.158101
C25   C     C_R   0.933517 0.030287 0.963093 0.030878
C26   C     C_R   0.066483 0.969711 0.036907 0.030878
C27   C     C_R   0.566482 0.530311 0.536907 0.030886
C28   C     C_R   0.433518 0.469689 0.463093 0.030886
C29   C     C_R   0.920242 0.072235 0.009162 -0.030138
C30   C     C_R   0.079758 0.927763 0.990838 -0.030138
C31   C     C_R   0.579751 0.572401 0.490841 -0.030128
C32   C     C_R   0.420249 0.427599 0.509158 -0.030128
C33   C     C_R   0.982622 0.001681 0.972434 0.021608
C34   C     C_R   0.017378 0.998317 0.027565 0.021607
C35   C     C_R   0.517379 0.501641 0.527565 0.021608
C36   C     C_R   0.482621 0.498359 0.472435 0.021608
C37   C     C_R   0.001734 0.014076 0.071961 -0.182556
C38   C     C_R   0.998266 0.985921 0.928038 -0.182557
C39   C     C_R   0.498260 0.514261 0.428039 -0.182547
C40   C     C_R   0.501740 0.485739 0.571961 -0.182547
C41   C     C_R   0.954657 0.049924 0.063700 0.309346
C42   C     C_R   0.045343 0.950073 0.936300 0.309345
C43   C     C_R   0.545334 0.550167 0.436302 0.309351
C44   C     C_R   0.454666 0.449832 0.563698 0.309351
H1    H     H_    0.096151 0.028282 0.126727 0.129304
H2    H     H_    0.903849 0.971716 0.873273 0.129302
H3    H     H_    0.403840 0.528421 0.373282 0.129300
H4    H     H_    0.596160 0.471578 0.626718 0.129299
H5    H     H_    0.196682 0.825148 0.063656 0.139802
H6    H     H_    0.803318 0.174853 0.936345 0.139803
H7    H     H_    0.303331 0.324930 0.436334 0.139802
H8    H     H_    0.696668 0.675070 0.563666 0.139803
H9    H     H_    0.025374 0.991354 0.114385 0.172782
H10   H     H_    0.974626 0.008643 0.885615 0.172779
H11   H     H_    0.474619 0.491609 0.385612 0.172770
H12   H     H_    0.525381 0.508390 0.614388 0.172770
C45   C     C_R   0.081159 0.857120 0.467303 0.643522
C46   C     C_R   0.918842 0.142882 0.532697 0.643532
C47   C     C_R   0.418838 0.357135 0.032694 0.643519
C48   C     C_R   0.581162 0.642864 0.967306 0.643519
N1    N     N_R   0.072354 0.971356 0.422426 -0.556065
N2    N     N_R   0.927646 0.028644 0.577574 -0.556065
N3    N     N_R   0.427645 0.471356 0.077573 -0.556067
N4    N     N_R   0.572355 0.528643 0.922427 -0.556067
C49   C     C_R   0.035908 0.095433 0.407441 0.661450
C50   C     C_R   0.964091 0.904563 0.592558 0.661451
C51   C     C_R   0.464093 0.595416 0.092560 0.661457
C52   C     C_R   0.535907 0.404583 0.907440 0.661457
C53   C     C_R   0.006571 0.109302 0.438163 -0.083372
C54   C     C_R   0.993429 0.890694 0.561836 -0.083375
C55   C     C_R   0.493432 0.609283 0.061839 -0.083369
C56   C     C_R   0.506568 0.390715 0.938161 -0.083366
C57   C     C_R   0.014622 0.992670 0.484257 -0.076860
C58   C     C_R   0.985378 0.007326 0.515742 -0.076857
C59   C     C_R   0.485378 0.492670 0.015743 -0.076859
C60   C     C_R   0.514622 0.507328 0.984258 -0.076860
C61   C     C_R   0.051856 0.861835 0.498847 -0.065355
C62   C     C_R   0.948144 0.138164 0.501153 -0.065360
C63   C     C_R   0.448142 0.361851 0.001151 -0.065363
C64   C     C_R   0.551859 0.638146 0.998850 -0.065360
C65   C     C_R   0.969987 0.239742 0.424150 -0.191798
C66   C     C_R   0.030012 0.760255 0.575849 -0.191801
C67   C     C_R   0.530018 0.739703 0.075855 -0.191792
C68   C     C_R   0.469982 0.260292 0.924146 -0.191786
C69   C     C_R   0.941346 0.257666 0.455378 0.277386
C70   C     C_R   0.058654 0.742334 0.544622 0.277388
C71   C     C_R   0.558659 0.757629 0.044627 0.277383
C72   C     C_R   0.441342 0.242363 0.955374 0.277384
O21   O     O_2   0.118438 0.741243 0.481397 -0.479162
O22   O     O_2   0.881565 0.258766 0.518605 -0.479162
O23   O     O_2   0.381558 0.241271 0.018599 -0.479157
O24   O     O_2   0.618442 0.758728 0.981401 -0.479158
O25   O     O_2   0.028121 0.205372 0.362886 -0.462034
O26   O     O_2   0.971878 0.794622 0.637113 -0.462031
O27   O     O_2   0.471882 0.705342 0.137116 -0.462034
O28   O     O_2   0.528118 0.294657 0.862884 -0.462033
H13   H     H_    0.964078 0.332580 0.389419 0.196947
H14   H     H_    0.035921 0.667417 0.610579 0.196947
H15   H     H_    0.535930 0.832525 0.110588 0.196945
H16   H     H_    0.464071 0.167468 0.889413 0.196944
C73   C     C_R   0.907047 0.170776 0.652498 0.303772
C74   C     C_R   0.092951 0.829233 0.347499 0.303769
C75   C     C_R   0.592952 0.670775 0.847500 0.303763
C76   C     C_R   0.407049 0.329227 0.152501 0.303763
C77   C     C_R   0.877608 0.180438 0.683525 0.196217
C78   C     C_R   0.122390 0.819572 0.316471 0.196217
C79   C     C_R   0.622391 0.680436 0.816473 0.196220
C80   C     C_R   0.377610 0.319567 0.183528 0.196220
C81   C     C_R   0.838391 0.059111 0.670996 -0.158281
C82   C     C_R   0.161609 0.940889 0.329005 -0.158280
C83   C     C_R   0.661609 0.559110 0.829005 -0.158282
C84   C     C_R   0.338391 0.440889 0.170995 -0.158281
C85   C     C_R   0.830601 0.926705 0.628858 -0.194903
C86   C     C_R   0.169403 0.073284 0.371146 -0.194907
C87   C     C_R   0.669403 0.426708 0.871147 -0.194910
C88   C     C_R   0.330596 0.573289 0.128852 -0.194911
H17   H     H_    0.801076 0.831807 0.618612 0.153564
H18   H     H_    0.198930 0.168174 0.381395 0.153560
H19   H     H_    0.698930 0.331814 0.881395 0.153560
H20   H     H_    0.301069 0.668181 0.118603 0.153559
C89   C     C_R   0.860018 0.917170 0.598626 -0.097568
C90   C     C_R   0.139985 0.082819 0.401378 -0.097568
C91   C     C_R   0.639985 0.417173 0.901379 -0.097564
C92   C     C_R   0.360014 0.582824 0.098620 -0.097565
H21   H     H_    0.853076 0.815008 0.566045 0.160140
H22   H     H_    0.146929 0.184973 0.433962 0.160137
H23   H     H_    0.646929 0.315013 0.933962 0.160137
H24   H     H_    0.353069 0.684982 0.066036 0.160138
C93   C     C_R   0.897987 0.039473 0.609750 0.256355
C94   C     C_R   0.102014 0.960527 0.390251 0.256358
C95   C     C_R   0.602014 0.539472 0.890251 0.256360
C96   C     C_R   0.397985 0.460528 0.109749 0.256360
Br1   Br    Br    0.941021 0.029167 0.130246 -0.303456
Br2   Br    Br    0.058979 0.970830 0.869754 -0.303462
Br3   Br    Br    0.558967 0.529596 0.369749 -0.303447
Br4   Br    Br    0.441033 0.470403 0.630251 -0.303447
Br5   Br    Br    0.852144 0.257939 0.050311 -0.373980
Br6   Br    Br    0.147856 0.742061 0.949689 -0.373980
Br7   Br    Br    0.647830 0.758347 0.449714 -0.374018
Br8   Br    Br    0.352170 0.241653 0.550286 -0.374018
N5    N     N_2   0.906610 0.399770 0.440814 -0.453023
H25   H     H_    0.890021 0.419209 0.398441 0.277736
C97   C     C_3   0.923592 0.571587 0.469781 -0.433799
H26   H     H_    0.952057 0.629870 0.457617 0.175219
H27   H     H_    0.937485 0.549710 0.515546 0.218480
H28   H     H_    0.894032 0.672261 0.458832 0.209175
N6    N     N_2   0.093391 0.600233 0.559185 -0.453027
H29   H     H_    0.109976 0.580786 0.601558 0.277739
C98   C     C_3   0.076410 0.428424 0.530215 -0.433816
H30   H     H_    0.047944 0.370138 0.542376 0.175220
H31   H     H_    0.105970 0.327751 0.541165 0.209180
H32   H     H_    0.062519 0.450309 0.484451 0.218486
N7    N     N_2   0.593396 0.899728 0.059190 -0.453026
H33   H     H_    0.609981 0.919169 0.101562 0.277741
C99   C     C_3   0.576414 0.071542 0.030219 -0.433808
H34   H     H_    0.547947 0.129831 0.042380 0.175216
H35   H     H_    0.562522 0.049663 0.984456 0.218483
H36   H     H_    0.605974 0.172212 0.041167 0.209181
N8    N     N_2   0.406607 0.100256 0.940813 -0.453018
H37   H     H_    0.390021 0.080809 0.898441 0.277737
C100  C     C_3   0.423591 0.928444 0.969786 -0.433796
H38   H     H_    0.452058 0.870156 0.957626 0.175214
H39   H     H_    0.394033 0.827767 0.958840 0.209174
H40   H     H_    0.437485 0.950329 0.015551 0.218477
Br9   Br    Br    0.960372 0.333965 0.668308 -0.344704
Br10  Br    Br    0.039624 0.666053 0.331686 -0.344701
Br11  Br    Br    0.539626 0.833970 0.831690 -0.344711
Br12  Br    Br    0.460375 0.166035 0.168312 -0.344708
Br13  Br    Br    0.893672 0.350809 0.745105 -0.425563
Br14  Br    Br    0.106323 0.649217 0.254887 -0.425566
Br15  Br    Br    0.606324 0.850804 0.754889 -0.425546
Br16  Br    Br    0.393677 0.149203 0.245113 -0.425547

loop_
_geom_bond_atom_site_label_1
_geom_bond_atom_site_label_2
_ccdc_geom_bond_type
O17   V3    S    
C59   C63   A    
N6    H29   S    
O1    C5    A    
N5    H25   S    
N3    C51   A    
O19   V1    S    
C9    C21   A    
O3    C7    A    
C10   C18   A    
C67   H15   S    
C84   C88   A    
O15   V3    S    
C88   C92   A    
C57   C58   A    
C100  H38   S    
C25   C33   A    
C33   C38   A    
C97   H27   S    
C5    C12   S    
C45   C61   A    
C98   H30   S    
C81   C85   A    
C6    C11   S    
N6    C98   S    
C87   C91   A    
C35   C40   A    
C26   C30   A    
C47   C63   A    
C36   C39   A    
C50   O26   S    
O9    V1    S    
N2    C93   S    
C68   H16   S    
C14   C18   A    
C79   C83   A    
N8    C100  S    
C66   C70   A    
O4    C8    A    
C55   C59   A    
C100  H39   S    
C54   C58   A    
C45   N1    A    
C52   C56   A    
O13   V1    S    
C31   C43   A    
O2    V4    S    
C74   Br10  S    
C69   N5    S    
C22   H1    S    
C65   C69   A    
C28   C36   A    
C53   C65   A    
C17   H6    S    
C90   H22   S    
C87   H19   S    
C1    O15   A    
C60   C64   A    
C15   C31   A    
N4    C52   A    
C37   H9    S    
N7    C99   S    
C58   C62   A    
C90   C94   A    
O2    C6    A    
C10   C22   A    
C21   C25   A    
C72   N8    S    
C11   C19   A    
C16   C20   A    
O8    C4    A    
C99   H36   S    
C13   C29   A    
C70   N6    S    
C34   C37   A    
O11   C7    A    
C82   C86   A    
C56   C68   A    
C11   C23   A    
C35   C36   A    
O12   C8    A    
C13   C17   A    
C40   H12   S    
C78   C82   A    
O10   V2    S    
C76   C80   A    
C73   C93   A    
C22   C26   A    
C50   C54   A    
C97   H28   S    
O5    V1    S    
C98   H31   S    
O1    V3    S    
C39   C43   A    
O7    V3    S    
C38   C42   A    
C65   H13   S    
C26   C34   A    
N4    C95   S    
C88   H20   S    
C2    C83   S    
C46   O22   S    
C41   Br1   S    
C86   H18   S    
C3    C82   S    
C75   C95   A    
C97   H26   S    
N1    C49   A    
O18   V4    S    
C100  H40   S    
C23   C27   A    
C16   C32   A    
C61   C70   A    
C32   C44   A    
C75   Br11  S    
C68   C72   A    
C63   C72   A    
C76   Br12  S    
O8    V4    S    
C20   H7    S    
O7    C3    A    
N8    H37   S    
O5    C1    A    
C47   O23   S    
C45   O21   S    
C53   C57   A    
C77   Br13  S    
C59   C60   A    
C14   C30   A    
C14   Br6   S    
C80   C84   A    
C7    C10   S    
C57   C61   A    
C66   H14   S    
C46   C62   A    
O9    C5    A    
O11   V3    S    
C55   C67   A    
C77   C81   A    
C74   C94   A    
O6    V2    S    
C49   O25   S    
C4    C81   S    
C73   Br9   S    
N2    C50   A    
O14   V2    S    
C48   C64   A    
C51   O27   S    
C48   O24   S    
C12   C20   A    
C27   C35   A    
C24   H3    S    
C15   Br7   S    
C44   Br4   S    
C40   C44   A    
C42   Br2   S    
C29   C41   A    
C13   Br5   S    
O16   V4    S    
C98   H32   S    
C85   C89   A    
C19   H8    S    
C85   H17   S    
C54   C66   A    
C18   H5    S    
C71   N7    S    
C21   H2    S    
C67   C71   A    
C38   H10   S    
C79   Br15  S    
C92   H24   S    
C78   Br14  S    
C3    O13   A    
C47   N3    A    
O6    C2    A    
C64   C71   A    
C15   C19   A    
C16   Br8   S    
C39   H11   S    
C91   C95   A    
O12   V4    S    
C83   C87   A    
C8    C9    S    
C9    C17   A    
O10   C6    A    
O20   V2    S    
C52   O28   S    
C89   C93   A    
C46   N2    A    
O3    V1    S    
C33   C34   A    
C48   N4    A    
C2    O16   A    
C86   C90   A    
C25   C29   A    
C91   H23   S    
C56   C60   A    
C12   C24   A    
C27   C31   A    
N1    C94   S    
C37   C41   A    
C49   C53   A    
C75   C79   A    
C23   H4    S    
C76   C96   A    
C51   C55   A    
C99   H34   S    
C1    C84   S    
C73   C77   A    
C24   C28   A    
C89   H21   S    
N5    C97   S    
N7    H33   S    
C4    O14   A    
C80   Br16  S    
C74   C78   A    
N3    C96   S    
C62   C69   A    
C43   Br3   S    
C92   C96   A    
C30   C42   A    
O4    V2    S    
C28   C32   A    
C99   H35   S    
