data_mof_unit_24791.cif
_audit_creation_date              2012-12-10T16:43:25-0500
_audit_creation_method            fapswitch 2.2
_symmetry_space_group_name_H-M    P1
_symmetry_Int_Tables_number       1
_space_group_crystal_system       triclinic
_cell_length_a                    10.754892
_cell_length_b                    8.685809
_cell_length_c                    7.466964
_cell_angle_alpha                 102.955375
_cell_angle_beta                  95.395984
_cell_angle_gamma                 93.155298
_cell_volume                      674.671735815

loop_
_atom_site_label
_atom_site_type_symbol
_atom_type_description
_atom_site_fract_x
_atom_site_fract_y
_atom_site_fract_z
_atom_type_partial_charge
C1    C     C_R   0.494989 0.199593 0.453100 0.881297
C2    C     C_R   0.079724 0.656872 0.527531 0.103496
C3    C     C_R   0.129414 0.507842 0.498564 -0.058785
C4    C     C_R   0.051845 0.368823 0.465609 -0.217068
C5    C     C_R   0.923969 0.376278 0.465375 -0.149268
C6    C     C_R   0.873024 0.522878 0.509981 -0.064607
C7    C     C_2   0.492125 0.031516 0.426522 -0.378148
C8    C     C_2   0.496508 0.967523 0.572289 -0.292059
C9    C     C_R   0.262373 0.495447 0.499241 0.759733
C10   C     C_R   0.501310 0.800108 0.546678 0.873105
C11   C     C_R   0.737825 0.516710 0.503173 0.785571
C12   C     C_R   0.155398 0.795117 0.529460 -0.150285
C13   C     C_R   0.107512 0.942435 0.565210 -0.168129
C14   C     C_R   0.986846 0.956271 0.614535 -0.161613
C15   C     C_R   0.910881 0.821435 0.622511 -0.042243
C16   C     C_R   0.951811 0.667272 0.555164 0.022074
Cu1   Cu    Cu3+1 0.513920 0.517380 0.684380 0.986236
Cu2   Cu    Cu3+1 0.486080 0.482620 0.315620 0.967056
H1    H     H_    0.090284 0.254440 0.435690 0.131919
H2    H     H_    0.598155 0.623510 0.052658 0.227232
H3    H     H_    0.251284 0.789988 0.499400 0.129766
H4    H     H_    0.167137 0.047150 0.566143 0.133093
H5    H     H_    0.956679 0.074242 0.661400 0.169834
H6    H     H_    0.864267 0.266743 0.433406 0.148419
H7    H     H_    0.488484 0.960272 0.286061 0.178822
H8    H     H_    0.499502 0.038777 0.712648 0.194419
H9    H     H_    0.401616 0.376196 0.947857 0.223185
N1    N     N_2   0.465100 0.456430 0.038520 -0.209853
N2    N     N_2   0.534900 0.543570 0.961480 -0.203675
O1    O     O_R   0.509050 0.286130 0.619770 -0.576858
O2    O     O_R   0.485540 0.256780 0.308360 -0.582001
O3    O     O_R   0.331410 0.514680 0.655740 -0.587685
O4    O     O_R   0.307900 0.485330 0.344330 -0.577605
O5    O     O_R   0.514460 0.743220 0.691640 -0.576999
O6    O     O_R   0.490950 0.713870 0.380230 -0.599378
O7    O     O_R   0.692100 0.514670 0.655670 -0.529800
O8    O     O_R   0.668590 0.485320 0.344260 -0.579505
C17   C     C_2   0.811451 0.851472 0.746351 0.816877
O9    O     O_2   0.748187 0.963808 0.744688 -0.620351
O10   O     O_R   0.803184 0.767413 0.884367 -0.730301
H10   H     H_    0.739466 0.808859 0.971323 0.324080

loop_
_geom_bond_atom_site_label_1
_geom_bond_atom_site_label_2
_ccdc_geom_bond_type
C14   H5    S    
C9    O4    A    
C15   C17   S    
C10   O6    A    
C3    C9    S    
Cu1   O7    S    
C2    C16   A    
Cu2   O6    S    
C7    H7    S    
C2    C12   A    
C2    C3    A    
Cu2   N1    S    
C7    C8    D    
C10   O5    A    
C13   C14   A    
C17   O10   S    
Cu1   O1    S    
N1    N2    D    
C17   O9    D    
C5    H6    S    
C1    O1    A    
Cu2   O8    S    
C13   H4    S    
Cu1   Cu2   S    
H2    N2    S    
C5    C6    A    
Cu2   O4    S    
Cu1   O5    S    
C6    C16   A    
C3    C4    A    
Cu1   N2    S    
C1    O2    A    
C8    H8    S    
C12   C13   A    
C8    C10   S    
C6    C11   S    
C11   O8    A    
Cu1   O3    S    
C14   C15   A    
O10   H10   S    
Cu2   O2    S    
C9    O3    A    
C1    C7    S    
C4    H1    S    
C12   H3    S    
C15   C16   A    
C4    C5    A    
H9    N1    S    
C11   O7    A    
