data_mof_unit_41260.cif
_audit_creation_date              2012-12-10T20:27:56-0500
_audit_creation_method            fapswitch 2.2
_symmetry_space_group_name_H-M    P1
_symmetry_Int_Tables_number       1
_space_group_crystal_system       triclinic
_cell_length_a                    12.772406
_cell_length_b                    10.763255
_cell_length_c                    9.877581
_cell_angle_alpha                 88.733012
_cell_angle_beta                  97.200415
_cell_angle_gamma                 91.658268
_cell_volume                      1346.39056825

loop_
_atom_site_label
_atom_site_type_symbol
_atom_type_description
_atom_site_fract_x
_atom_site_fract_y
_atom_site_fract_z
_atom_type_partial_charge
C1    C     C_R   0.501250 0.259600 0.500936 0.883689
C2    C     C_R   0.531990 0.938753 0.380153 -0.189213
C3    C     C_R   0.523703 0.871210 0.501386 -0.130234
C4    C     C_R   0.300774 0.521907 0.473003 0.909047
C5    C     C_R   0.531429 0.933135 0.624792 0.104684
C6    C     C_3   0.469041 0.912843 0.742275 -0.119661
C7    C     C_3   0.452786 0.051651 0.736160 -0.125404
C8    C     C_R   0.415247 0.452594 0.059422 0.171918
C9    C     C_R   0.578509 0.560193 0.081550 0.009708
C10   C     C_R   0.580201 0.554220 0.938303 -0.094117
C11   C     C_R   0.413327 0.457017 0.916126 0.123079
C12   C     C_R   0.034143 0.557233 0.568979 0.164895
C13   C     C_3   0.367317 0.328594 0.903838 -0.127052
C14   C     C_3   0.375161 0.320683 0.059381 -0.166318
C15   C     C_R   0.505405 0.739839 0.499686 0.865526
C16   C     C_R   0.702919 0.496379 0.527829 0.911776
C17   C     C_R   0.817894 0.501114 0.547927 -0.112903
C18   C     C_R   0.191086 0.560715 0.455737 -0.149661
C19   C     C_R   0.021339 0.551683 0.319979 -0.270210
C20   C     C_R   0.130018 0.566461 0.326209 -0.040006
C21   C     C_R   0.142495 0.582307 0.573294 0.052339
C22   C     C_2   0.660476 0.638237 0.160442 0.381680
C23   C     C_R   0.974641 0.538653 0.440111 0.100015
C24   C     C_2   0.832175 0.471409 0.806316 0.411109
C25   C     C_2   0.173729 0.598115 0.197350 0.423457
C26   C     C_R   0.867974 0.512834 0.430907 -0.256946
C27   C     C_R   0.877500 0.507151 0.679110 -0.065578
C28   C     C_R   0.985057 0.542166 0.689261 0.034353
C29   C     C_R   0.522178 0.059678 0.624153 0.089320
C30   C     C_R   0.514189 0.127682 0.502093 -0.125416
C31   C     C_R   0.528252 0.067377 0.380834 -0.192218
H1    H     H_    0.823545 0.503306 0.330580 0.201134
H2    H     H_    0.569916 0.791825 0.848421 0.213685
H3    H     H_    0.487715 0.858951 0.942753 0.194844
H4    H     H_    0.339429 0.174638 0.658406 0.212479
H5    H     H_    0.314047 0.030054 0.603772 0.195902
H6    H     H_    0.646911 0.677809 0.255714 0.130522
H7    H     H_    0.225385 0.238534 0.848856 0.230628
H8    H     H_    0.214272 0.392753 0.866902 0.199074
H9    H     H_    0.290311 0.291278 0.219693 0.215993
H10   H     H_    0.229315 0.382711 0.096917 0.183820
H11   H     H_    0.848659 0.527979 0.896409 0.074915
H12   H     H_    0.487723 0.098044 0.830752 0.184402
H13   H     H_    0.014651 0.624310 0.873533 0.190040
H14   H     H_    0.040202 0.469865 0.875893 0.166496
H15   H     H_    0.130724 0.570090 0.100724 0.032843
H16   H     H_    0.243257 0.579710 0.751905 0.230182
H17   H     H_    0.250220 0.712114 0.655355 0.179521
H18   H     H_    0.644811 0.596427 0.891133 0.174443
H19   H     H_    0.420897 0.268138 0.859774 0.172740
H20   H     H_    0.435515 0.254488 0.105331 0.159652
H21   H     H_    0.973089 0.549585 0.221349 0.164277
H22   H     H_    0.529975 0.118045 0.285209 0.168504
H23   H     H_    0.533937 0.892831 0.284024 0.169644
H24   H     H_    0.396454 0.853375 0.720142 0.164179
N1    N     N_R   0.499290 0.499140 0.142710 -0.152770
N2    N     N_R   0.499290 0.499180 0.857070 -0.133686
N3    N     N_3   0.536307 0.876008 0.866335 -0.433072
N4    N     N_3   0.342411 0.081559 0.690047 -0.458074
N5    N     N_3   0.260195 0.325365 0.830490 -0.428586
N6    N     N_3   0.274108 0.303095 0.113897 -0.431618
N7    N     N_3   0.045851 0.553553 0.821198 -0.463213
N8    N     N_3   0.199495 0.643512 0.689187 -0.420523
O1    O     O_R   0.500010 0.316790 0.614690 -0.603310
O2    O     O_2   0.780843 0.374526 0.813585 -0.542149
O3    O     O_2   0.253604 0.663124 0.196566 -0.551890
O4    O     O_R   0.500000 0.316760 0.385350 -0.632168
O5    O     O_R   0.346360 0.499990 0.595720 -0.626322
O6    O     O_R   0.346350 0.499960 0.366370 -0.583926
O7    O     O_R   0.500000 0.683240 0.614650 -0.648816
O8    O     O_R   0.499990 0.683210 0.385310 -0.625842
O9    O     O_R   0.653650 0.500040 0.633630 -0.584823
O10   O     O_R   0.653640 0.500010 0.404280 -0.657992
O11   O     O_2   0.744210 0.663159 0.117092 -0.624398
Zn1   Zn    Zn3+2 0.500010 0.500020 0.653130 0.960807
Zn2   Zn    Zn3+2 0.499990 0.499980 0.346870 0.960793

loop_
_geom_bond_atom_site_label_1
_geom_bond_atom_site_label_2
_ccdc_geom_bond_type
C26   H1    S    
H2    N3    S    
C7    C29   S    
C18   C21   A    
C24   H11   S    
C6    N3    S    
C19   C20   A    
C16   O9    A    
C24   C27   S    
H10   N6    S    
C6    H24   S    
H5    N4    S    
C8    N1    A    
C13   N5    S    
O5    Zn1   S    
C12   C23   A    
C12   C28   A    
N1    Zn2   S    
C17   C26   A    
H16   N8    S    
O8    Zn2   S    
C9    C22   S    
C20   C25   S    
H14   N7    S    
O6    Zn2   S    
H4    N4    S    
C23   C26   A    
C19   H21   S    
C16   C17   S    
C7    H12   S    
C9    C10   A    
C4    C18   S    
C13   C14   S    
O9    Zn1   S    
C7    N4    S    
C4    O6    A    
C5    C29   A    
C16   O10   A    
C17   C27   A    
C14   N6    S    
C10   N2    A    
C2    H23   S    
C4    O5    A    
H17   N8    S    
H13   N7    S    
C22   H6    S    
C12   C21   A    
H9    N6    S    
C2    C31   A    
C19   C23   A    
C29   C30   A    
C14   H20   S    
C30   C31   A    
C9    N1    A    
C31   H22   S    
C24   O2    D    
H7    N5    S    
O10   Zn2   S    
C22   O11   D    
C1    O1    A    
C27   C28   A    
C3    C15   S    
C15   O7    A    
C8    C14   S    
C25   O3    D    
C3    C5    A    
C6    C7    S    
C15   O8    A    
N2    Zn1   S    
C2    C3    A    
C11   C13   S    
C5    C6    S    
C8    C11   A    
H8    N5    S    
C1    C30   S    
C1    O4    A    
O1    Zn1   S    
C18   C20   A    
C21   N8    S    
C13   H19   S    
O7    Zn1   S    
H3    N3    S    
O4    Zn2   S    
C11   N2    A    
C10   H18   S    
C25   H15   S    
C28   N7    S    
