data_mof_unit_57945.cif
_audit_creation_date              2013-03-05T15:45:12-0500
_audit_creation_method            fapswitch 2.2
_symmetry_space_group_name_H-M    P1
_symmetry_Int_Tables_number       1
_space_group_crystal_system       triclinic
_cell_length_a                    11.607521
_cell_length_b                    11.476789
_cell_length_c                    19.581789
_cell_angle_alpha                 90.341038
_cell_angle_beta                  90.114864
_cell_angle_gamma                 60.208986
_cell_volume                      2263.83955959

loop_
_atom_site_label
_atom_site_type_symbol
_atom_site_description
_atom_site_fract_x
_atom_site_fract_y
_atom_site_fract_z
_atom_type_partial_charge
O1    O     O_R   0.267740 0.231990 0.575440 -0.503884
O2    O     O_R   0.527280 0.186680 0.570530 -0.493435
C1    C     C_R   0.640101 0.117286 0.599322 0.544192
O3    O     O_R   0.728090 0.003480 0.576380 -0.500928
O4    O     O_R   0.682970 0.789220 0.570490 -0.497164
C2    C     C_R   0.611905 0.746477 0.598697 0.536065
O5    O     O_R   0.499290 0.771920 0.575530 -0.504725
O6    O     O_R   0.285330 0.030900 0.569730 -0.493451
C3    C     C_R   0.241103 0.145132 0.598275 0.541868
O7    O     O_R   0.270980 0.227040 0.423900 -0.536671
O8    O     O_R   0.530280 0.182090 0.430050 -0.507571
C4    C     C_R   0.641910 0.112501 0.401645 0.543817
O9    O     O_R   0.731330 0.998530 0.424830 -0.514749
O10   O     O_R   0.685970 0.784630 0.430010 -0.509874
C5    C     C_R   0.619786 0.732030 0.405006 0.547803
O11   O     O_R   0.502530 0.766960 0.423990 -0.453097
O12   O     O_R   0.288330 0.026310 0.429250 -0.427082
C6    C     C_R   0.247943 0.137870 0.399864 0.551187
Cr1   Cr    Cr6+3 0.404720 0.198220 0.499960 1.044143
Cr2   Cr    Cr6+3 0.698290 0.897110 0.500380 1.038789
Cr3   Cr    Cr6+3 0.396970 0.904720 0.499610 1.112015
O13   O     O_3   0.499990 0.000020 0.499980 -0.273012
C7    C     C_1   0.670599 0.646455 0.860052 0.007229
C8    C     C_1   0.654233 0.683910 0.728446 -0.028985
C9    C     C_1   0.663348 0.666762 0.799651 -0.028740
C10   C     C_1   0.640499 0.704245 0.668058 0.007126
C11   C     C_1   0.126229 0.199097 0.859190 0.008548
C12   C     C_1   0.171714 0.169967 0.727724 -0.028344
C13   C     C_1   0.149886 0.182387 0.798912 -0.027763
C14   C     C_1   0.195684 0.160412 0.667456 0.005376
C15   C     C_1   0.679245 0.191276 0.860652 0.008408
C16   C     C_1   0.658612 0.167151 0.729011 -0.028573
C17   C     C_1   0.666162 0.180835 0.800270 -0.027727
C18   C     C_1   0.652720 0.149648 0.668679 0.005578
C19   C     C_R   0.569340 0.633311 0.306027 0.146215
C20   C     C_R   0.561791 0.648218 0.235348 0.212507
C21   C     C_R   0.671160 0.641381 0.199732 -0.029247
C22   C     C_R   0.779265 0.632923 0.235982 -0.197381
H1    H     H_    0.867538 0.618881 0.210055 0.181137
C23   C     C_R   0.770840 0.649589 0.306171 -0.176535
H2    H     H_    0.846222 0.661607 0.332793 0.165956
C24   C     C_R   0.661323 0.658497 0.340761 -0.029008
C25   C     C_R   0.196863 0.264996 0.295433 -0.169253
H3    H     H_    0.210280 0.339705 0.322719 0.184800
C26   C     C_R   0.185879 0.277774 0.225638 0.178702
C27   C     C_R   0.156573 0.190612 0.188756 -0.019294
C28   C     C_R   0.164742 0.077584 0.220651 -0.129578
H4    H     H_    0.143304 0.010381 0.191346 0.194639
C29   C     C_R   0.193946 0.052799 0.290292 0.162928
C30   C     C_R   0.203253 0.153617 0.329051 -0.050923
C31   C     C_R   0.776042 0.081704 0.300326 -0.012090
C32   C     C_R   0.777612 0.066593 0.229881 0.006955
C33   C     C_R   0.675004 0.173761 0.192220 0.017808
C34   C     C_R   0.556174 0.261230 0.225649 -0.116178
H5    H     H_    0.475094 0.342155 0.198531 0.230291
C35   C     C_R   0.542065 0.241293 0.294674 -0.128448
H6    H     H_    0.445621 0.298415 0.318514 0.166868
C36   C     C_R   0.654408 0.151978 0.332773 0.024026
O14   O     O_R   0.821500 0.119550 0.952820 -0.507704
O15   O     O_R   0.037130 0.162750 0.957360 -0.491467
C37   C     C_R   0.081529 0.231374 0.928462 0.553612
O16   O     O_R   0.056440 0.344950 0.951330 -0.494942
O17   O     O_R   0.797900 0.560570 0.957460 -0.499919
C38   C     C_R   0.684149 0.604290 0.929431 0.541461
O18   O     O_R   0.596140 0.579600 0.952720 -0.495255
O19   O     O_R   0.639070 0.321380 0.958660 -0.489799
C39   C     C_R   0.708894 0.206868 0.929998 0.542489
O20   O     O_R   0.821240 0.124490 0.104360 -0.535750
O21   O     O_R   0.036900 0.167320 0.097830 -0.516916
C40   C     C_R   0.087365 0.233813 0.123728 0.571018
O22   O     O_R   0.056190 0.349890 0.102870 -0.446627
O23   O     O_R   0.797670 0.565150 0.097930 -0.521057
C41   C     C_R   0.684964 0.606721 0.127520 0.553161
O24   O     O_R   0.595880 0.584540 0.104260 -0.436410
O25   O     O_R   0.638830 0.325960 0.099140 -0.473657
C42   C     C_R   0.707368 0.207945 0.125682 0.542443
Cr4   Cr    Cr6+3 0.926180 0.152240 0.028110 1.041037
Cr5   Cr    Cr6+3 0.921340 0.452070 0.027460 1.072962
Cr6   Cr    Cr6+3 0.626260 0.447120 0.028700 1.112882
O26   O     O_3   0.824590 0.350480 0.028090 -0.280777
N1    N     N_R   0.475494 0.612261 0.344599 -0.145812
O27   O     O_R   0.418698 0.548227 0.319690 -0.000004
O28   O     O_R   0.418699 0.548229 0.319691 -0.000004
C43   C     C_3   0.884401 0.933925 0.199034 -0.238323
C44   C     C_3   0.824857 0.871480 0.151433 -0.398766
H7    H     H_    0.742793 0.866439 0.177630 0.155266
H8    H     H_    0.785004 0.930329 0.104033 0.176228
H9    H     H_    0.902789 0.768583 0.136614 0.169053
H10   H     H_    0.963280 0.944587 0.172888 0.193317
H11   H     H_    0.936121 0.859699 0.240340 0.175030
N2    N     N_R   0.438287 0.688912 0.200681 0.144398
O29   O     O_R   0.384515 0.800902 0.166764 -0.332351
O30   O     O_R   0.401905 0.601064 0.186279 -0.266357
N3    N     N_R   0.204661 0.379552 0.193287 0.084400
O31   O     O_R   0.168125 0.493614 0.223978 -0.337190
O32   O     O_R   0.274331 0.351536 0.137427 -0.324943
N4    N     N_R   0.210637 0.927802 0.318080 0.076208
O33   O     O_R   0.177187 0.919418 0.380357 -0.345262
O34   O     O_R   0.221164 0.834709 0.276276 -0.289158
C45   C     C_3   0.901702 0.049316 0.337550 -0.237032
C46   C     C_3   0.889576 0.173506 0.374428 -0.410583
H12   H     H_    0.864343 0.255641 0.337301 0.143898
H13   H     H_    0.812371 0.209767 0.414818 0.152369
H14   H     H_    0.984221 0.149370 0.399629 0.179326
H15   H     H_    0.932195 0.964503 0.373295 0.216799
H16   H     H_    0.979583 0.019204 0.298804 0.187441

loop_
_geom_bond_atom_site_label_1
_geom_bond_atom_site_label_2
_geom_bond_distance
_ccdc_geom_bond_type
C46   H12   1.111704 S    
O18   Cr6   2.035738 S    
C11   C13   1.204862 T    
C41   O24   1.264832 A    
O21   Cr4   1.938222 S    
C19   C20   1.392807 A    
O25   C42   1.293660 A    
O14   Cr4   2.056694 S    
N1    O27   1.299412 A    
C19   N1    1.443060 S    
C28   C29   1.400879 A    
O4    Cr2   1.920845 S    
C2    C10   1.426878 S    
C44   H7    1.109486 S    
C15   C39   1.432059 S    
O19   Cr6   1.936412 S    
O8    Cr1   1.941480 S    
C45   H15   1.107899 S    
O11   Cr3   2.061102 S    
C12   C13   1.410998 S    
C8    C10   1.201564 T    
O4    C2    1.278010 A    
Cr5   O26   1.980415 S    
Cr4   O26   1.975086 S    
C5    O11   1.268638 A    
C31   C45   1.502402 S    
O14   C39   1.270374 A    
C35   H6    1.081714 S    
C32   C43   1.528505 S    
C19   C24   1.409812 A    
O23   Cr5   1.945394 S    
C11   C37   1.432569 S    
N4    O34   1.298772 A    
C34   H5    1.079635 S    
O6    C3    1.272166 A    
C15   C17   1.204632 T    
C40   O22   1.264655 A    
C37   O16   1.265220 A    
C4    C36   1.455513 S    
C23   C24   1.399546 A    
O19   C39   1.278167 A    
C46   H13   1.109136 S    
Cr3   O13   1.981355 S    
O21   C40   1.273214 A    
C43   H11   1.112842 S    
C26   N3    1.440720 S    
N1    O28   1.299382 A    
N4    O33   1.299089 A    
C44   H8    1.107672 S    
C34   C35   1.395677 A    
O15   Cr4   1.938037 S    
O1    Cr1   2.062318 S    
C31   C32   1.388308 A    
O10   Cr2   1.935762 S    
Cr1   O13   1.974234 S    
O1    C3    1.265448 A    
C8    C9    1.405721 S    
N2    O29   1.301540 A    
C1    C18   1.432203 S    
O5    Cr3   2.040791 S    
O12   Cr3   1.924349 S    
Cr6   O26   1.998204 S    
O15   C37   1.271185 A    
C16   C18   1.204668 T    
C25   H3    1.082494 S    
C21   C22   1.401468 A    
N2    O30   1.301378 A    
C28   H4    1.082100 S    
O7    Cr1   2.055231 S    
O12   C6    1.265476 A    
C31   C36   1.383306 A    
C43   C44   1.530293 S    
N3    O32   1.301869 A    
C25   C26   1.374340 A    
C3    C14   1.432501 S    
C20   N2    1.438276 S    
C23   H2    1.083347 S    
Cr2   O13   1.997953 S    
C46   H14   1.106447 S    
O24   Cr6   2.054901 S    
C33   C42   1.465314 S    
C43   H10   1.108763 S    
C1    O3    1.272879 A    
C32   C33   1.423665 A    
C6    C30   1.459976 S    
C44   H9    1.110206 S    
O20   Cr4   2.052561 S    
C21   C41   1.454076 S    
C27   C28   1.403211 A    
C7    C38   1.426864 S    
O9    Cr2   2.038850 S    
O2    Cr1   1.938572 S    
O16   Cr5   2.065138 S    
C5    C24   1.453539 S    
O23   C41   1.286221 A    
O6    Cr3   1.944338 S    
O8    C4    1.263130 A    
C25   C30   1.410114 A    
C33   C34   1.399528 A    
C2    O5    1.272677 A    
O20   C42   1.256283 A    
C45   H16   1.096137 S    
C38   O18   1.273934 A    
C12   C14   1.204843 T    
O2    C1    1.277944 A    
C16   C17   1.410690 S    
C22   C23   1.383480 A    
C22   H1    1.081951 S    
O7    C6    1.267299 A    
C45   C46   1.536729 S    
C35   C36   1.408810 A    
C7    C9    1.201555 T    
N3    O31   1.301806 A    
C27   C40   1.456111 S    
C29   N4    1.457489 S    
O17   C38   1.280013 A    
O3    Cr2   2.054425 S    
C26   C27   1.402322 A    
C4    O9    1.284708 A    
C20   C21   1.417076 A    
C29   C30   1.428259 A    
O10   C5    1.284575 A    
O25   Cr6   1.917775 S    
O22   Cr5   2.047729 S    
O17   Cr5   1.929254 S    
