data_mof_unit_14523.cif
_audit_creation_date              2012-10-26T19:57:20-0400
_audit_creation_method            fapswitch 2.2
_symmetry_space_group_name_H-M    P1
_symmetry_Int_Tables_number       1
_space_group_crystal_system       triclinic
_cell_length_a                    13.012121
_cell_length_b                    10.963055
_cell_length_c                    9.702687
_cell_angle_alpha                 88.91975
_cell_angle_beta                  96.81346
_cell_angle_gamma                 91.067616
_cell_volume                      1373.90676872

loop_
_atom_site_label
_atom_site_type_symbol
_atom_type_description
_atom_site_fract_x
_atom_site_fract_y
_atom_site_fract_z
_atom_type_partial_charge
C1    C     C_R   0.506248 0.265911 0.502579 0.569760
C2    C     C_2   0.529172 0.136670 0.511183 0.193696
C3    C     C_2   0.467146 0.409974 0.919601 0.061688
C4    C     C_R   0.300693 0.501992 0.473615 0.609505
C5    C     C_2   0.443128 0.426589 0.065361 0.323526
C6    C     C_R   0.499477 0.734554 0.497979 0.565414
C7    C     C_R   0.699489 0.500622 0.526481 0.617975
C8    C     C_R   0.812481 0.497419 0.541384 -0.038394
C9    C     C_R   0.188046 0.508661 0.457901 -0.022558
C10   C     C_R   0.027793 0.575410 0.326215 0.287069
C11   C     C_R   0.135904 0.571477 0.344648 0.349192
C12   C     C_R   0.026578 0.471035 0.553298 -0.113423
C13   C     C_R   0.133391 0.456337 0.560138 0.370400
C14   C     C_R   0.972209 0.531093 0.435735 -0.145112
C15   C     C_R   0.864951 0.546280 0.434244 0.354974
C16   C     C_R   0.867308 0.440746 0.656959 0.362349
C17   C     C_R   0.973452 0.427610 0.663186 0.474516
C18   C     C_2   0.522094 0.939106 0.392362 0.238228
C19   C     C_2   0.488187 0.865664 0.491116 -0.037101
C20   C     C_2   0.503476 0.069230 0.397556 -0.107999
Cu1   Cu    Cu3+1 0.500020 0.500020 0.638640 1.152117
Cu2   Cu    Cu3+1 0.499980 0.499980 0.361360 1.211726
F1    F     F_    0.810527 0.614801 0.334445 -0.512907
F2    F     F_    0.818143 0.395949 0.763372 -0.521552
F3    F     F_    0.023682 0.372160 0.777600 -0.473462
F4    F     F_    0.191330 0.634190 0.255746 -0.523115
F5    F     F_    0.185123 0.392139 0.667223 -0.511463
H1    H     H_    0.444855 0.324995 0.868184 0.218661
H2    H     H_    0.510716 0.581623 0.894721 0.237640
H3    H     H_    0.565168 0.534837 0.118892 0.231982
H4    H     H_    0.447612 0.904412 0.570956 0.137659
H5    H     H_    0.468129 0.111386 0.301738 0.189309
H6    H     H_    0.706491 0.163697 0.831443 0.399965
H7    H     H_    0.209398 0.241337 0.980778 0.418942
H8    H     H_    0.009553 0.660329 0.955301 0.372392
H9    H     H_    0.667015 0.979024 0.094589 0.397222
N1    N     N_2   0.498860 0.498660 0.846770 -0.357888
N2    N     N_2   0.498840 0.498630 0.152900 -0.331777
O1    O     O_R   0.500020 0.321960 0.617050 -0.462699
O2    O     O_2   0.676010 0.983695 0.633836 -0.237741
O3    O     O_3   0.674401 0.197788 0.741588 -0.432525
O4    O     O_2   0.329361 0.286273 0.231484 -0.283477
O5    O     O_2   0.244706 0.455794 0.097950 -0.144489
O6    O     O_3   0.282230 0.261638 0.968141 -0.469335
O7    O     O_2   0.880359 0.544379 0.109820 -0.174818
O8    O     O_2   0.925501 0.754861 0.179153 -0.162349
O9    O     O_3   0.051731 0.638066 0.043675 -0.377502
O10   O     O_2   0.674612 0.808054 0.308395 -0.160963
O11   O     O_2   0.513115 0.823029 0.150258 -0.239839
O12   O     O_R   0.499980 0.321920 0.382890 -0.506641
O13   O     O_3   0.636214 0.012498 0.174187 -0.482672
O14   O     O_R   0.349010 0.500000 0.598060 -0.459229
O15   O     O_R   0.348980 0.499950 0.363910 -0.408488
O16   O     O_R   0.500020 0.678080 0.617110 -0.505282
O17   O     O_R   0.499980 0.678040 0.382950 -0.438575
O18   O     O_R   0.651020 0.500050 0.636090 -0.436791
O19   O     O_R   0.650990 0.500000 0.401940 -0.455657
O20   O     O_2   0.532328 0.032953 0.765059 -0.271334
S1    S     S_3+6 0.603824 0.082085 0.665701 0.042774
S2    S     S_3+6 0.323278 0.357441 0.097473 0.112713
S3    S     S_3+6 0.967404 0.629825 0.162424 0.198849
S4    S     S_3+6 0.587627 0.890372 0.253555 0.106915

loop_
_geom_bond_atom_site_label_1
_geom_bond_atom_site_label_2
_ccdc_geom_bond_type
C12   C17   A    
O9    S3    S    
Cu1   O18   S    
Cu2   O17   S    
C11   F4    S    
C4    O15   A    
C8    C15   A    
C1    O12   A    
O10   S4    D    
Cu1   O1    S    
C6    O17   A    
Cu2   O12   S    
C17   F3    S    
Cu2   O19   S    
C15   F1    S    
C4    C9    S    
C19   H4    S    
C7    C8    S    
C16   F2    S    
O2    S1    D    
C5    N2    D    
C12   C13   A    
C6    C19   S    
C9    C11   A    
H3    N2    S    
H9    O13   S    
O5    S2    D    
O6    S2    S    
O13   S4    S    
C7    O18   A    
O7    S3    D    
C3    H1    S    
C2    S1    S    
C4    O14   A    
C1    C2    S    
Cu2   O15   S    
C18   C20   S    
Cu1   O14   S    
C20   H5    S    
Cu1   O16   S    
C10   S3    S    
H2    N1    S    
C10   C11   A    
C1    O1    A    
O8    S3    D    
C2    C20   D    
Cu2   N2    S    
Cu1   N1    S    
H6    O3    S    
C3    N1    D    
C8    C16   A    
C18   C19   D    
C10   C14   A    
O3    S1    S    
O4    S2    D    
H7    O6    S    
C9    C13   A    
C14   C15   A    
C18   S4    S    
C13   F5    S    
O11   S4    D    
C5    S2    S    
O20   S1    D    
Cu1   Cu2   S    
C7    O19   A    
C6    O16   A    
H8    O9    S    
C12   C14   A    
C16   C17   A    
C3    C5    S    
