data_mof_unit_68443.cif
_audit_creation_date              2012-12-11T16:11:42-0500
_audit_creation_method            fapswitch 2.2
_symmetry_space_group_name_H-M    P1
_symmetry_Int_Tables_number       1
_space_group_crystal_system       triclinic
_cell_length_a                    7.006855
_cell_length_b                    14.778037
_cell_length_c                    15.674501
_cell_angle_alpha                 89.602193
_cell_angle_beta                  91.418805
_cell_angle_gamma                 90.085887
_cell_volume                      1622.51823172

loop_
_atom_site_label
_atom_site_type_symbol
_atom_type_description
_atom_site_fract_x
_atom_site_fract_y
_atom_site_fract_z
_atom_type_partial_charge
O1    O     O_R   0.638960 0.835150 0.161940 -0.546903
O2    O     O_R   0.361040 0.164850 0.838060 -0.545342
O3    O     O_R   0.309170 0.846340 0.337470 -0.534635
O4    O     O_R   0.690830 0.153660 0.662530 -0.550635
O5    O     O_R   0.138810 0.664830 0.338070 -0.527611
O6    O     O_R   0.861190 0.335170 0.661930 -0.526792
C1    C     C_R   0.479508 0.865021 0.369103 0.773320
C2    C     C_R   0.520856 0.131688 0.633590 0.718605
O7    O     O_R   0.309250 0.846350 0.162570 -0.535281
O8    O     O_R   0.690750 0.153650 0.837430 -0.536689
O9    O     O_R   0.138880 0.664840 0.161920 -0.534641
O10   O     O_R   0.861120 0.335160 0.838080 -0.532722
C3    C     C_R   0.476600 0.870169 0.134792 0.695803
C4    C     C_R   0.523827 0.134733 0.868860 0.688537
O11   O     O_R   0.638880 0.835150 0.338090 -0.555384
O12   O     O_R   0.361120 0.164850 0.661910 -0.545377
O13   O     O_3   0.472380 0.690440 0.250000 -0.363429
O14   O     O_3   0.527620 0.309560 0.750000 -0.364335
V1    V     V_3+5 0.197550 0.761040 0.250010 1.458134
V2    V     V_3+5 0.802450 0.238960 0.749990 1.467551
O15   O     O_R   0.809160 0.653640 0.162540 -0.530973
O16   O     O_R   0.190840 0.346360 0.837460 -0.534614
C5    C     C_R   0.976107 0.629170 0.135172 0.715332
C6    C     C_R   0.024067 0.366021 0.868392 0.716118
O17   O     O_R   0.809090 0.653640 0.337440 -0.548927
O18   O     O_R   0.190910 0.346360 0.662560 -0.546382
C7    C     C_R   0.979094 0.630153 0.365082 0.739582
C8    C     C_R   0.021493 0.369216 0.634049 0.734233
V3    V     V_3+5 0.697540 0.738950 0.250000 1.439568
V4    V     V_3+5 0.302460 0.261050 0.750000 1.452474
O19   O     O_3   0.972580 0.809550 0.250010 -0.392854
O20   O     O_3   0.027420 0.190450 0.749990 -0.386663
C9    C     C_3   0.082270 0.577778 0.523610 -0.286824
C10   C     C_3   0.923096 0.419834 0.473223 -0.289624
C11   C     C_3   0.909851 0.529840 0.563523 0.506322
C12   C     C_3   0.094229 0.468449 0.432597 0.511455
C13   C     C_3   0.013702 0.438970 0.562390 -0.112149
C14   C     C_3   0.990040 0.559241 0.435149 -0.095652
C15   C     C_3   0.188760 0.485667 0.520752 -0.252654
C16   C     C_3   0.816459 0.511609 0.475373 -0.255985
C17   C     C_3   0.849895 0.438470 0.003388 -0.188836
C18   C     C_3   0.148661 0.550111 0.004502 -0.195048
C19   C     C_3   0.991712 0.452134 0.080755 -0.306281
C20   C     C_3   0.006632 0.536875 0.926665 -0.316240
H1    H     H_    0.979082 0.416972 0.142913 0.141273
H2    H     H_    0.021195 0.569856 0.863289 0.141964
C21   C     C_3   0.980223 0.555694 0.066566 -0.139573
C22   C     C_3   0.017114 0.434001 0.940651 -0.148144
C23   C     C_3   0.840458 0.541809 0.989993 0.541242
C24   C     C_3   0.156107 0.447185 0.016876 0.532389
C25   C     C_3   0.681294 0.972362 0.481102 -0.314113
C26   C     C_3   0.321310 0.016365 0.528217 -0.402300
C27   C     C_3   0.589888 0.067791 0.475360 0.373707
C28   C     C_3   0.415081 0.921138 0.532966 0.408786
C29   C     C_3   0.510852 0.057643 0.566685 -0.257593
C30   C     C_3   0.493741 0.931832 0.442483 -0.186694
C31   C     C_3   0.600523 0.961285 0.571607 0.343638
C32   C     C_3   0.403150 0.026534 0.437347 0.345722
C33   C     C_3   0.646863 0.947698 0.001268 -0.266293
C34   C     C_3   0.350444 0.063092 0.005275 -0.209584
C35   C     C_3   0.499661 0.964241 0.926606 -0.304530
C36   C     C_3   0.495626 0.046234 0.080487 -0.303772
C37   C     C_3   0.514988 0.066908 0.941240 -0.095427
C38   C     C_3   0.483024 0.943041 0.065751 -0.152771
C39   C     C_3   0.657932 0.050286 0.015486 0.541194
C40   C     C_3   0.339181 0.960496 0.991895 0.520252
O21   O     O_3   0.812669 0.563040 0.633574 -0.557601
C41   C     C_3   0.710112 0.640541 0.606720 0.095868
H3    H     H_    0.580582 0.620928 0.568599 0.128073
H4    H     H_    0.796350 0.688363 0.568159 0.124245
C42   C     C_3   0.647188 0.688763 0.684687 -0.716731
H5    H     H_    0.768104 0.697232 0.731019 0.229609
H6    H     H_    0.588835 0.755665 0.667049 0.252697
H7    H     H_    0.535059 0.646298 0.712348 0.216960
O22   O     O_3   0.183677 0.445644 0.356854 -0.554950
C43   C     C_3   0.253432 0.356921 0.361789 0.088711
H8    H     H_    0.162378 0.309572 0.398353 0.097159
H9    H     H_    0.396527 0.358204 0.392976 0.129604
C44   C     C_3   0.263239 0.322738 0.271158 -0.745169
H10   H     H_    0.356198 0.368218 0.233799 0.256955
H11   H     H_    0.318019 0.252897 0.268204 0.179813
H12   H     H_    0.117208 0.322636 0.242507 0.219413
H13   H     H_    0.492096 0.930326 0.863910 0.117092
H14   H     H_    0.492341 0.075705 0.145270 0.128080
H15   H     H_    0.773968 0.904438 0.003394 0.177539
H16   H     H_    0.228701 0.110754 0.003173 0.164129
O23   O     O_3   0.830134 0.097996 0.026019 -0.562691
C45   C     C_3   0.916908 0.075369 0.105731 0.127169
H17   H     H_    0.034303 0.026881 0.095971 0.170417
H18   H     H_    0.821981 0.041414 0.152071 0.100693
C46   C     C_3   0.994122 0.160963 0.146846 -0.825613
H19   H     H_    0.948391 0.221794 0.109792 0.239752
H20   H     H_    0.935907 0.167441 0.211001 0.205870
H21   H     H_    0.152051 0.158159 0.152722 0.204870
O24   O     O_3   0.162459 0.917646 0.981028 -0.560314
C47   C     C_3   0.195943 0.829628 0.953059 0.099013
H22   H     H_    0.307196 0.794585 0.993010 0.114200
H23   H     H_    0.236691 0.830556 0.884997 0.119759
C48   C     C_3   0.015512 0.776772 0.960280 -0.788702
H24   H     H_    0.905098 0.805483 0.916723 0.212949
H25   H     H_    0.043574 0.707707 0.940248 0.171593
H26   H     H_    0.966852 0.776734 0.027072 0.222513
H27   H     H_    0.145639 0.643901 0.540456 0.154768
H28   H     H_    0.866828 0.351394 0.462125 0.151205
H29   H     H_    0.341319 0.473841 0.538076 0.136824
H30   H     H_    0.664453 0.521744 0.456041 0.134826
H31   H     H_    0.722973 0.394583 0.998751 0.188315
H32   H     H_    0.279029 0.590307 0.016582 0.190608
O25   O     O_3   0.654171 0.578078 0.979850 -0.537277
C49   C     C_3   0.651427 0.657055 0.929001 0.088489
H33   H     H_    0.767940 0.660559 0.882821 0.122430
H34   H     H_    0.654065 0.716942 0.971325 0.125849
C50   C     C_3   0.470091 0.660498 0.874591 -0.763116
H35   H     H_    0.345232 0.670425 0.912973 0.202016
H36   H     H_    0.474594 0.720318 0.831693 0.173530
H37   H     H_    0.450858 0.596418 0.838863 0.252269
O26   O     O_3   0.337521 0.406906 0.027645 -0.539344
C51   C     C_3   0.317598 0.315321 0.050295 0.083212
H38   H     H_    0.271958 0.274799 0.993975 0.123576
H39   H     H_    0.212180 0.306842 0.100730 0.118326
C52   C     C_3   0.507648 0.279849 0.085601 -0.733748
H40   H     H_    0.585270 0.333267 0.121942 0.232072
H41   H     H_    0.482600 0.223550 0.130462 0.186022
H42   H     H_    0.597045 0.255443 0.033057 0.216655
O27   O     O_3   0.694577 0.144946 0.447929 -0.566419
C53   C     C_3   0.618121 0.176226 0.369016 0.112327
H43   H     H_    0.471337 0.200396 0.379162 0.153442
H44   H     H_    0.619522 0.121720 0.320516 0.152596
C54   C     C_3   0.731047 0.254579 0.332247 -0.812478
H45   H     H_    0.884964 0.246053 0.345827 0.228274
H46   H     H_    0.704933 0.258621 0.262273 0.196721
H47   H     H_    0.682569 0.319737 0.357402 0.219301
O28   O     O_3   0.326090 0.840902 0.560969 -0.557224
C55   C     C_3   0.255735 0.854002 0.643611 0.090705
H48   H     H_    0.142335 0.906456 0.642327 0.143025
H49   H     H_    0.370827 0.874819 0.689440 0.130847
C56   C     C_3   0.170322 0.765949 0.676002 -0.741019
H50   H     H_    0.259644 0.707614 0.659322 0.230237
H51   H     H_    0.159514 0.766349 0.746401 0.174884
H52   H     H_    0.026615 0.757216 0.646869 0.244823
H53   H     H_    0.829915 0.953700 0.467696 0.153712
H54   H     H_    0.176547 0.031947 0.551147 0.143571
O29   O     O_3   0.705639 0.912494 0.635266 -0.566348
C57   C     C_3   0.746505 0.966716 0.706684 0.110298
H55   H     H_    0.614273 0.997742 0.730869 0.096511
H56   H     H_    0.856749 0.017555 0.690436 0.161417
C58   C     C_3   0.828274 0.909880 0.779444 -0.776605
H57   H     H_    0.972313 0.886343 0.764948 0.220805
H58   H     H_    0.842268 0.951952 0.837617 0.227039
H59   H     H_    0.734106 0.851111 0.791871 0.214061
O30   O     O_3   0.319446 0.054818 0.358797 -0.590158
C59   C     C_3   0.124265 0.074647 0.363867 0.033056
H60   H     H_    0.101356 0.138480 0.328691 0.142903
H61   H     H_    0.071031 0.087044 0.428643 0.150805
C60   C     C_3   0.010149 0.000555 0.319672 -0.598340
H62   H     H_    0.019750 0.937730 0.358165 0.225500
H63   H     H_    0.858326 0.019956 0.312214 0.155769
H64   H     H_    0.068866 0.987535 0.255843 0.218552

loop_
_geom_bond_atom_site_label_1
_geom_bond_atom_site_label_2
_ccdc_geom_bond_type
C20   C23   S    
V4    O20   S    
O23   C45   S    
C37   C39   S    
C53   H43   S    
C60   H63   S    
C24   O26   S    
O13   V3    S    
C58   H57   S    
C43   C44   S    
O4    C2    A    
V1    O19   S    
C55   C56   S    
C21   C23   S    
C56   H51   S    
O9    V1    S    
C33   C38   S    
C9    C15   S    
C34   C37   S    
C10   C16   S    
C23   O25   S    
C11   C13   S    
C43   H9    S    
C50   H35   S    
O3    C1    A    
C7    C14   S    
O12   V4    S    
O29   C57   S    
C10   C13   S    
C47   C48   S    
C34   C36   S    
C25   C30   S    
C35   C37   S    
O7    C3    A    
C51   H38   S    
C52   H42   S    
C36   C38   S    
C42   H7    S    
C9    C11   S    
O5    C7    A    
C35   C40   S    
O7    V1    S    
O6    C8    A    
O24   C47   S    
C20   H2    S    
C41   H3    S    
C47   H23   S    
O30   C59   S    
C45   C46   S    
O3    V1    S    
C25   C31   S    
C17   H31   S    
C10   C12   S    
C26   C29   S    
C27   O27   S    
C54   H47   S    
C27   C29   S    
C34   C40   S    
C2    O12   A    
C60   H64   S    
C17   C19   S    
C18   C20   S    
C1    C30   S    
C57   C58   S    
C2    C29   S    
C17   C23   S    
C26   C28   S    
O11   V3    S    
C51   H39   S    
C25   H53   S    
O17   V3    S    
C56   H52   S    
C28   C30   S    
C33   C35   S    
C5    C21   S    
C31   O29   S    
O21   C41   S    
C6    C22   S    
C58   H59   S    
C43   H8    S    
C57   H56   S    
C35   H13   S    
O8    V2    S    
C46   H19   S    
C42   H6    S    
C34   H16   S    
C55   H49   S    
C1    O11   A    
C53   C54   S    
C28   O28   S    
O15   V3    S    
C26   H54   S    
C49   H33   S    
C25   C27   S    
C51   C52   S    
C38   C40   S    
O22   C43   S    
C33   H15   S    
C12   O22   S    
C46   H20   S    
C48   H24   S    
C59   C60   S    
C11   O21   S    
V3    O19   S    
C47   H22   S    
O10   V2    S    
O1    V3    S    
C59   H60   S    
C39   O23   S    
C22   C24   S    
C19   H1    S    
C49   C50   S    
C10   H28   S    
C52   H40   S    
C26   C32   S    
C18   C24   S    
O14   V4    S    
C48   H25   S    
C59   H61   S    
O18   V4    S    
C29   C31   S    
O8    C4    A    
O28   C55   S    
O16   C6    A    
O1    C3    A    
C12   C14   S    
C32   O30   S    
C16   H30   S    
C54   H45   S    
V2    O20   S    
C15   H29   S    
C36   H14   S    
C53   H44   S    
O16   V4    S    
C36   C39   S    
C58   H58   S    
C9    H27   S    
O18   C8    A    
C12   C15   S    
C45   H18   S    
C57   H55   S    
C44   H12   S    
C27   C32   S    
C19   C24   S    
C55   H48   S    
O5    V1    S    
O17   C7    A    
O6    V2    S    
C56   H50   S    
O10   C6    A    
C44   H11   S    
C9    C14   S    
O2    V4    S    
C50   H37   S    
O15   C5    A    
C11   C16   S    
C42   H5    S    
C13   C15   S    
O25   C49   S    
C33   C39   S    
C46   H21   S    
C14   C16   S    
O27   C53   S    
C3    C38   S    
C18   H32   S    
C8    C13   S    
C41   C42   S    
C4    C37   S    
O9    C5    A    
O13   V1    S    
C17   C22   S    
C30   C32   S    
O14   V2    S    
C18   C21   S    
O2    C4    A    
C49   H34   S    
C52   H41   S    
C44   H10   S    
O4    V2    S    
C48   H26   S    
C45   H17   S    
C41   H4    S    
C60   H62   S    
C54   H46   S    
O26   C51   S    
C19   C21   S    
C20   C22   S    
C40   O24   S    
C50   H36   S    
C28   C31   S    
