data_mof_unit_15712.cif
_audit_creation_date              2012-12-10T18:12:32-0500
_audit_creation_method            fapswitch 2.2
_symmetry_space_group_name_H-M    P1
_symmetry_Int_Tables_number       1
_space_group_crystal_system       triclinic
_cell_length_a                    12.585058
_cell_length_b                    13.195609
_cell_length_c                    15.726603
_cell_angle_alpha                 89.168593
_cell_angle_beta                  102.062727
_cell_angle_gamma                 82.602877
_cell_volume                      2530.44414313

loop_
_atom_site_label
_atom_site_type_symbol
_atom_type_description
_atom_site_fract_x
_atom_site_fract_y
_atom_site_fract_z
_atom_type_partial_charge
C1    C     C_R   0.438832 0.690628 0.493992 0.838505
C2    C     C_R   0.597964 0.199836 0.514874 -0.118533
C3    C     C_R   0.345944 0.814529 0.579985 -0.041915
C4    C     C_R   0.500100 0.500358 0.661615 0.887655
C5    C     C_R   0.370620 0.893875 0.635360 -0.099679
C6    C     C_R   0.443822 0.958394 0.619842 -0.163716
C7    C     C_R   0.482725 0.954995 0.541877 0.107551
C8    C     C_R   0.466277 0.870041 0.489611 0.092471
C9    C     C_R   0.544063 0.029287 0.517119 0.059047
C10   C     C_R   0.610234 0.003065 0.455379 0.148582
C11   C     C_R   0.597697 0.915841 0.407566 -0.233104
C12   C     C_3   0.498243 0.497497 0.916244 0.133456
C13   C     C_R   0.520472 0.854623 0.419936 -0.185319
C14   C     C_R   0.535120 0.131309 0.544752 -0.086386
C15   C     C_R   0.677953 0.165713 0.468366 -0.182833
C16   C     C_R   0.561033 0.309065 0.511778 0.851367
C17   C     C_R   0.404048 0.796397 0.512297 -0.201340
C18   C     C_R   0.073210 0.412630 0.343802 -0.294456
C19   C     C_R   0.807445 0.575858 0.629070 -0.099010
C20   C     C_R   0.914922 0.549214 0.675158 -0.069773
C21   C     C_R   0.994678 0.506129 0.629699 -0.019637
C22   C     C_R   0.965395 0.504138 0.536708 -0.098245
C23   C     C_3   0.443053 0.423561 0.018860 -0.067262
C24   C     C_R   0.853393 0.532349 0.494934 0.116318
C25   C     C_R   0.041125 0.475015 0.482780 -0.012882
C26   C     C_R   0.000825 0.453632 0.394651 0.143311
C27   C     C_R   0.891938 0.487650 0.355247 -0.238575
C28   C     C_R   0.499710 0.499922 0.338284 0.893345
C29   C     C_R   0.823468 0.540803 0.403562 -0.002924
C30   C     C_R   0.154625 0.477476 0.508817 -0.070556
C31   C     C_R   0.185068 0.406811 0.376765 0.078265
C32   C     C_3   0.450614 0.588413 0.018939 -0.169153
C33   C     C_3   0.554543 0.571607 0.979751 -0.178732
C34   C     C_3   0.499037 0.496656 0.082885 0.128092
C35   C     C_1   0.499955 0.500502 0.750433 -0.120869
C36   C     C_1   0.499446 0.498983 0.249275 -0.117682
C37   C     C_3   0.394050 0.514643 0.953583 -0.194028
C38   C     C_2   0.449273 0.174093 0.591813 0.412496
C39   C     C_2   0.267107 0.746947 0.598748 0.411695
C40   C     C_2   0.102651 0.455955 0.679095 0.471654
C41   C     C_2   0.934216 0.558745 0.771168 0.470550
C42   C     C_2   0.738953 0.624838 0.360123 0.446149
C43   C     C_3   0.719702 0.461319 0.097674 -0.446722
C44   C     C_3   0.803068 0.457175 0.038870 -0.326140
C45   C     C_3   0.546021 0.406154 0.980016 -0.051175
C46   C     C_3   0.920269 0.438202 0.092251 -0.838946
C47   C     C_2   0.598200 0.303072 0.960067 0.351441
C48   C     C_2   0.379422 0.340882 0.038482 0.396509
C49   C     C_3   0.602015 0.479607 0.044455 0.071479
C50   C     C_1   0.498875 0.499667 0.825506 0.052220
C51   C     C_1   0.499389 0.497992 0.173956 0.035531
C52   C     C_R   0.682689 0.068030 0.437265 -0.189222
H1    H     H_    0.599975 0.632602 0.961901 0.144341
H2    H     H_    0.411469 0.663151 0.036586 0.161847
H3    H     H_    0.308758 0.528738 0.914595 0.208424
H4    H     H_    0.726824 0.218484 0.446385 0.164632
H5    H     H_    0.643374 0.897963 0.357156 0.159616
H6    H     H_    0.736775 0.046322 0.393316 0.146340
H7    H     H_    0.470843 0.221644 0.646880 0.071004
H8    H     H_    0.226388 0.701462 0.548463 0.093391
H9    H     H_    0.133562 0.379333 0.663645 0.063357
H10   H     H_    0.881856 0.615846 0.798088 0.029906
H11   H     H_    0.697619 0.677452 0.398942 0.084563
H12   H     H_    0.470027 0.009872 0.670338 0.140814
H13   H     H_    0.935813 0.500578 0.138039 0.258953
H14   H     H_    0.934522 0.363772 0.129475 0.254082
H15   H     H_    0.978728 0.436000 0.048091 0.278173
H16   H     H_    0.790626 0.394827 0.992620 0.245340
H17   H     H_    0.791791 0.530736 0.000663 0.227844
H18   H     H_    0.731963 0.524803 0.142662 0.254695
H19   H     H_    0.731508 0.388387 0.136814 0.197439
H20   H     H_    0.628916 0.245293 0.012175 0.075623
H21   H     H_    0.343466 0.294797 0.986393 0.086444
H22   H     H_    0.336078 0.904138 0.692730 0.186424
H23   H     H_    0.507303 0.791682 0.377209 0.149298
H24   H     H_    0.241922 0.381501 0.336082 0.156577
H25   H     H_    0.865780 0.485854 0.285176 0.178733
H26   H     H_    0.043939 0.392450 0.277351 0.150335
H27   H     H_    0.189486 0.514784 0.566447 0.155279
H28   H     H_    0.745160 0.603386 0.664160 0.152279
N1    N     N_R   0.222180 0.444680 0.455580 -0.104743
N2    N     N_R   0.776980 0.554790 0.543960 -0.138593
O1    O     O_R   0.366730 0.627160 0.478790 -0.634550
O2    O     O_2   0.244507 0.743114 0.670473 -0.554950
O3    O     O_2   0.160472 0.501783 0.733330 -0.520980
O4    O     O_2   0.003025 0.500506 0.821354 -0.533651
O5    O     O_2   0.715527 0.637424 0.280994 -0.621487
O6    O     O_2   0.606538 0.283642 0.885952 -0.571380
O7    O     O_2   0.367705 0.324905 0.112351 -0.564067
O8    O     O_R   0.544830 0.662520 0.507160 -0.614074
O9    O     O_R   0.410960 0.482330 0.609040 -0.609152
O10   O     O_R   0.589060 0.517690 0.637410 -0.630980
O11   O     O_R   0.455170 0.337480 0.492840 -0.587274
O12   O     O_R   0.633270 0.372840 0.521210 -0.602676
O13   O     O_R   0.410940 0.482310 0.362590 -0.613276
O14   O     O_R   0.589040 0.517670 0.390960 -0.627624
O15   O     O_2   0.353304 0.162690 0.565441 -0.543876
Zn1   Zn    Zn3+2 0.381080 0.476390 0.481050 0.974646
Zn2   Zn    Zn3+2 0.618920 0.523610 0.518950 0.944059

loop_
_geom_bond_atom_site_label_1
_geom_bond_atom_site_label_2
_ccdc_geom_bond_type
C1    O8    A    
C23   C45   S    
C29   C42   S    
C27   C29   A    
N2    Zn2   S    
C19   C20   A    
C18   C26   A    
C43   C44   S    
C10   C52   A    
C20   C41   S    
O13   Zn1   S    
C7    C8    A    
C41   O4    D    
C26   C27   A    
C8    C13   A    
C28   O13   A    
C39   O2    D    
C46   H14   S    
C5    C6    A    
N1    Zn1   S    
C33   C49   S    
O14   Zn2   S    
C12   C37   S    
C6    H12   S    
C5    H22   S    
C24   N2    A    
C24   C29   A    
C13   H23   S    
C22   C25   A    
C19   N2    A    
C2    C16   S    
C9    C10   A    
C16   O11   A    
C4    O9    A    
C4    C35   S    
C3    C39   S    
C21   C22   A    
C41   H10   S    
C38   O15   D    
C32   H2    S    
C44   C46   S    
C45   C47   S    
C33   H1    S    
C46   H13   S    
C43   C49   S    
C3    C5    A    
C25   C26   A    
C32   C37   S    
O1    Zn1   S    
C40   H9    S    
C32   C34   S    
C40   O3    D    
C9    C14   A    
C14   C38   S    
C45   C49   S    
C18   H26   S    
C23   C34   S    
C35   C50   T    
C34   C51   S    
C44   H17   S    
C15   C52   A    
C2    C15   A    
C36   C51   T    
C52   H6    S    
C30   H27   S    
C43   H18   S    
C48   O7    D    
C22   C24   A    
C44   H16   S    
O8    Zn2   S    
C25   C30   A    
C7    C9    A    
C34   C49   S    
C43   H19   S    
C23   C48   S    
C16   O12   A    
C48   H21   S    
C12   C45   S    
C27   H25   S    
C12   C50   S    
C6    C7    A    
C42   O5    D    
C1    O1    A    
C1    C17   S    
C8    C17   A    
C31   N1    A    
C28   O14   A    
C32   C33   S    
C30   N1    A    
C46   H15   S    
C23   C37   S    
C47   O6    D    
C11   C13   A    
C31   H24   S    
C21   C40   S    
O12   Zn2   S    
C39   H8    S    
C42   H11   S    
C3    C17   A    
O9    Zn1   S    
C19   H28   S    
C2    C14   A    
C15   H4    S    
C47   H20   S    
C10   C11   A    
C38   H7    S    
C37   H3    S    
C20   C21   A    
C28   C36   S    
C18   C31   A    
C12   C33   S    
C11   H5    S    
O11   Zn1   S    
O10   Zn2   S    
C4    O10   A    
