data_mof_unit_57700.cif
_audit_creation_date              2012-12-10T18:00:48-0500
_audit_creation_method            fapswitch 2.2
_symmetry_space_group_name_H-M    P1
_symmetry_Int_Tables_number       1
_space_group_crystal_system       triclinic
_cell_length_a                    15.855842
_cell_length_b                    10.800052
_cell_length_c                    9.598988
_cell_angle_alpha                 88.92634
_cell_angle_beta                  88.767501
_cell_angle_gamma                 91.120433
_cell_volume                      1642.77198374

loop_
_atom_site_label
_atom_site_type_symbol
_atom_type_description
_atom_site_fract_x
_atom_site_fract_y
_atom_site_fract_z
_atom_type_partial_charge
C1    C     C_R   0.502209 0.262627 0.500874 0.843077
C2    C     C_R   0.497790 0.737373 0.499125 0.843084
C3    C     C_R   0.554832 0.935976 0.413239 -0.202385
C4    C     C_R   0.445165 0.064024 0.586760 -0.202381
C5    C     C_R   0.495195 0.871360 0.497382 -0.112695
C6    C     C_R   0.504803 0.128640 0.502618 -0.112696
C7    C     C_R   0.434908 0.447500 0.079326 -0.050001
C8    C     C_R   0.565092 0.552499 0.920674 -0.050001
C9    C     C_R   0.434459 0.446596 0.931804 0.098539
C10   C     C_R   0.565541 0.553404 0.068196 0.098537
C11   C     C_R   0.339974 0.499307 0.501241 0.857235
C12   C     C_R   0.660026 0.500693 0.498759 0.857233
C13   C     C_3   0.969967 0.474610 0.627682 0.026885
C14   C     C_3   0.030033 0.525390 0.372318 0.026884
C15   C     C_3   0.025926 0.387325 0.542020 -0.227826
C16   C     C_3   0.974074 0.612675 0.457981 -0.227827
C17   C     C_1   0.250279 0.499099 0.503682 -0.077347
C18   C     C_1   0.749721 0.500900 0.496318 -0.077345
C19   C     C_3   0.028189 0.586572 0.588198 -0.196862
C20   C     C_3   0.971811 0.413428 0.411802 -0.196861
C21   C     C_3   0.083092 0.499631 0.500895 0.101065
C22   C     C_3   0.916908 0.500370 0.499105 0.101065
C23   C     C_1   0.174734 0.499170 0.503423 0.032358
C24   C     C_1   0.825266 0.500830 0.496577 0.032359
C25   C     C_R   0.561217 0.064591 0.415299 -0.022052
C26   C     C_R   0.438780 0.935409 0.584700 -0.022057
Cu1   Cu    Cu3+1 0.500000 0.500020 0.640660 1.027706
Cu2   Cu    Cu3+1 0.500000 0.499980 0.359340 1.027703
H1    H     H_    0.047980 0.295225 0.577330 0.164629
H2    H     H_    0.952020 0.704776 0.422671 0.164629
H3    H     H_    0.947907 0.343051 0.338784 0.173286
H4    H     H_    0.052093 0.656949 0.661216 0.173285
N1    N     N_R   0.500020 0.500030 0.852070 -0.209557
N2    N     N_R   0.499980 0.499970 0.147930 -0.209558
O1    O     O_R   0.500000 0.319660 0.618740 -0.542840
O2    O     O_R   0.500000 0.680340 0.381260 -0.542841
O3    O     O_R   0.499990 0.319630 0.381170 -0.577218
O4    O     O_R   0.500010 0.680370 0.618830 -0.577210
O5    O     O_R   0.379080 0.500000 0.618760 -0.553470
O6    O     O_R   0.620920 0.500000 0.381240 -0.553476
O7    O     O_R   0.379080 0.499970 0.381190 -0.585721
O8    O     O_R   0.620920 0.500030 0.618810 -0.585720
C27   C     C_2   0.938117 0.445890 0.773038 0.864228
O9    O     O_2   0.988448 0.424832 0.864728 -0.553053
O10   O     O_R   0.851514 0.443396 0.803285 -0.747336
H5    H     H_    0.838161 0.423285 0.905069 0.364204
C28   C     C_2   0.061882 0.554110 0.226962 0.864228
O11   O     O_2   0.011552 0.575169 0.135272 -0.553054
O12   O     O_R   0.148485 0.556604 0.196715 -0.747336
H6    H     H_    0.161839 0.576715 0.094932 0.364204
C29   C     C_2   0.629677 0.127050 0.330162 0.855862
O13   O     O_2   0.662208 0.223860 0.368265 -0.603530
O14   O     O_R   0.659077 0.072331 0.207920 -0.736622
H7    H     H_    0.706200 0.122628 0.159615 0.346051
C30   C     C_2   0.370318 0.872950 0.669835 0.855857
O15   O     O_2   0.337797 0.776130 0.631744 -0.603528
O16   O     O_R   0.340906 0.927681 0.792062 -0.736626
H8    H     H_    0.293784 0.877383 0.840365 0.346053
H9    H     H_    0.599409 0.885310 0.350750 0.223641
H10   H     H_    0.400589 0.114692 0.649248 0.223647
H11   H     H_    0.383298 0.404146 0.139005 0.159775
H12   H     H_    0.616702 0.595854 0.860995 0.159775
C31   C     C_2   0.360868 0.385976 0.870064 0.871398
O17   O     O_2   0.369713 0.294769 0.798698 -0.592915
O18   O     O_R   0.280147 0.429329 0.900327 -0.761579
H13   H     H_    0.234260 0.379727 0.853286 0.343072
C32   C     C_2   0.639132 0.614024 0.129936 0.871396
O19   O     O_2   0.630287 0.705231 0.201302 -0.592916
O20   O     O_R   0.719853 0.570672 0.099672 -0.761580
H14   H     H_    0.765740 0.620274 0.146714 0.343071

loop_
_geom_bond_atom_site_label_1
_geom_bond_atom_site_label_2
_ccdc_geom_bond_type
C12   O6    A    
C4    C26   A    
C30   O15   D    
C25   C29   S    
C11   O7    A    
C14   C28   S    
C1    C6    S    
C2    O4    A    
C15   C20   S    
C28   O11   D    
C13   C15   S    
C1    O3    A    
C27   O9    D    
Cu1   O1    S    
C26   C30   S    
C4    H10   S    
C13   C27   S    
C31   O18   S    
Cu2   N2    S    
C28   O12   S    
C9    C31   S    
O14   H7    S    
Cu1   N1    S    
C11   O5    A    
C27   O10   S    
Cu1   O8    S    
C1    O1    A    
O16   H8    S    
C17   C23   T    
C12   O8    A    
Cu1   O5    S    
Cu2   O3    S    
C9    N1    A    
C16   C19   S    
C18   C24   T    
C19   H4    S    
C14   C21   S    
C4    C6    A    
C32   O19   D    
C19   C21   S    
C20   C22   S    
C13   C22   S    
C15   H1    S    
C14   C16   S    
C8    N1    A    
C30   O16   S    
C21   C23   S    
O20   H14   S    
C7    N2    A    
C22   C24   S    
O10   H5    S    
C2    C5    S    
Cu2   O6    S    
Cu1   O4    S    
C16   H2    S    
C5    C26   A    
C6    C25   A    
C14   C20   S    
Cu2   O7    S    
C15   C21   S    
C10   N2    A    
C2    O2    A    
C29   O14   S    
Cu2   O2    S    
C8    C10   A    
O18   H13   S    
C12   C18   S    
Cu1   Cu2   S    
O12   H6    S    
C7    C9    A    
C7    H11   S    
C13   C19   S    
C16   C22   S    
C3    C25   A    
C3    C5    A    
C10   C32   S    
C11   C17   S    
C29   O13   D    
C8    H12   S    
C31   O17   D    
C32   O20   S    
C20   H3    S    
C3    H9    S    
