data_mof_unit_22754.cif
_audit_creation_date              2013-03-05T16:12:46-0500
_audit_creation_method            fapswitch 2.2
_symmetry_space_group_name_H-M    P1
_symmetry_Int_Tables_number       1
_space_group_crystal_system       triclinic
_cell_length_a                    10.830825
_cell_length_b                    9.95676
_cell_length_c                    27.379712
_cell_angle_alpha                 90.539612
_cell_angle_beta                  92.516767
_cell_angle_gamma                 89.981367
_cell_volume                      2949.64719894

loop_
_atom_site_label
_atom_site_type_symbol
_atom_site_description
_atom_site_fract_x
_atom_site_fract_y
_atom_site_fract_z
_atom_type_partial_charge
O1    O     O_R   0.316770 0.614620 0.500000 -0.622539
O2    O     O_R   0.683230 0.385380 0.500000 -0.626056
O3    O     O_R   0.683230 0.614620 0.500000 -0.614232
O4    O     O_R   0.316770 0.385380 0.500000 -0.618905
C1    C     C_R   0.260493 0.500498 0.499429 0.928323
C2    C     C_R   0.739979 0.500370 0.499028 0.916918
O5    O     O_R   0.500030 0.614650 0.428760 -0.619318
O6    O     O_R   0.499970 0.385350 0.571240 -0.614403
O7    O     O_R   0.499970 0.614650 0.571240 -0.603815
O8    O     O_R   0.500030 0.385350 0.428760 -0.606490
C3    C     C_R   0.500025 0.499230 0.405957 0.858751
C4    C     C_R   0.503952 0.500624 0.593875 0.873398
Zn1   Zn    Zn3+2 0.500000 0.653120 0.500000 0.952785
Zn2   Zn    Zn3+2 0.500000 0.346880 0.500000 0.954811
C5    C     C_R   0.551482 0.365418 0.180283 0.539691
C6    C     C_R   0.623632 0.602917 0.825662 0.576366
O9    O     O_2   0.480746 0.277484 0.203816 -0.539003
O10   O     O_2   0.646564 0.718593 0.802404 -0.531686
N1    N     N_R   0.613186 0.464575 0.206072 -0.355372
N2    N     N_R   0.586159 0.491831 0.799376 -0.332203
C7    C     C_R   0.689710 0.552243 0.184154 0.511247
C8    C     C_R   0.563768 0.372173 0.821295 0.558201
C9    C     C_R   0.657456 0.415563 0.291602 -0.140398
C10   C     C_R   0.453121 0.534201 0.727194 -0.187436
C11   C     C_R   0.626934 0.422538 0.340090 -0.222867
C12   C     C_R   0.432718 0.534109 0.676827 -0.226751
C13   C     C_R   0.448382 0.563613 0.318351 0.163200
C14   C     C_R   0.648676 0.473030 0.666523 0.084290
C15   C     C_R   0.483518 0.562063 0.269399 0.490579
C16   C     C_R   0.667477 0.468565 0.717895 0.502147
C17   C     C_R   0.586773 0.484195 0.256246 0.149162
C18   C     C_R   0.569351 0.500528 0.747559 0.237838
C19   C     C_R   0.629360 0.452760 0.105573 -0.057994
C20   C     C_R   0.611068 0.475951 0.900216 -0.058479
C21   C     C_R   0.558500 0.357455 0.129384 -0.081762
C22   C     C_R   0.637542 0.596893 0.876727 -0.069560
C23   C     C_R   0.488651 0.263132 0.102019 -0.155217
C24   C     C_R   0.672011 0.710179 0.904610 -0.202164
C25   C     C_R   0.698690 0.548705 0.133307 -0.018992
C26   C     C_R   0.575374 0.361955 0.872177 -0.021759
C27   C     C_R   0.523493 0.495874 0.353909 -0.160643
C28   C     C_R   0.528788 0.501774 0.646443 -0.091417
H1    H     H_    0.430128 0.195034 0.121007 0.205866
H2    H     H_    0.686251 0.805509 0.886917 0.191365
C29   C     C_R   0.577975 0.351531 0.975004 0.057088
C30   C     C_R   0.687205 0.562201 0.030583 0.054266
C31   C     C_R   0.664759 0.580058 0.979679 0.004567
C32   C     C_R   0.564236 0.353737 0.026308 -0.041110
C33   C     C_R   0.618604 0.469125 0.951741 0.045987
C34   C     C_R   0.627922 0.455177 0.054059 0.042846
C35   C     C_R   0.554933 0.235455 0.946165 -0.229015
C36   C     C_R   0.767118 0.646930 0.058856 -0.180717
C37   C     C_R   0.552545 0.240775 0.895498 -0.137867
C38   C     C_R   0.771955 0.641031 0.109570 -0.147585
O11   O     O_2   0.529287 0.264091 0.793855 -0.530770
O12   O     O_2   0.753059 0.645078 0.211316 -0.543919
C39   C     C_R   0.487031 0.261797 0.050663 0.184134
C40   C     C_R   0.682970 0.704576 0.955660 0.186666
H3    H     H_    0.341580 0.557805 0.661570 0.153948
H4    H     H_    0.684478 0.370063 0.367130 0.173199
H5    H     H_    0.377900 0.557700 0.750620 0.167125
H6    H     H_    0.735790 0.355660 0.281276 0.167568
H7    H     H_    0.531016 0.149964 0.874738 0.195648
H8    H     H_    0.830697 0.711509 0.130061 0.194054
H9    H     H_    0.541044 0.138695 0.962294 0.180694
H10   H     H_    0.827698 0.717622 0.042209 0.179433
C41   C     C_R   0.062904 0.393881 0.476119 0.133498
C42   C     C_R   0.938545 0.621644 0.509646 0.102516
C43   C     C_R   0.935945 0.387647 0.480405 0.106903
C44   C     C_R   0.066130 0.617004 0.514954 0.121696
C45   C     C_R   0.873136 0.502616 0.496709 -0.180238
C46   C     C_R   0.127995 0.502980 0.497497 -0.172454
C47   C     C_R   0.562598 0.071810 0.536193 0.379376
C48   C     C_R   0.435473 0.928009 0.464347 0.397399
C49   C     C_R   0.436577 0.069940 0.464071 0.386006
C50   C     C_R   0.563460 0.929784 0.535984 0.380065
N3    N     N_R   0.500000 0.857200 0.500000 -0.265614
N4    N     N_R   0.500000 0.142800 0.500000 -0.264759
N5    N     N_2   0.336867 0.630084 0.331053 -0.254206
H11   H     H_    0.327452 0.647717 0.367723 0.233209
C51   C     C_3   0.223861 0.577609 0.307747 -0.667494
H12   H     H_    0.142740 0.616406 0.326984 0.221435
H13   H     H_    0.222777 0.466114 0.308896 0.222997
H14   H     H_    0.213495 0.610835 0.269287 0.301200
N6    N     N_2   0.750167 0.450876 0.635878 -0.319053
H15   H     H_    0.728175 0.409813 0.602047 0.232319
C52   C     C_3   0.834114 0.563232 0.633092 -0.782743
H16   H     H_    0.787082 0.648700 0.614406 0.257603
H17   H     H_    0.914872 0.532737 0.611987 0.236089
H18   H     H_    0.868438 0.595978 0.670115 0.275185
O13   O     O_3   0.629831 0.135326 0.573265 -0.690818
H19   H     H_    0.651937 0.224326 0.561378 0.363635
O14   O     O_3   0.364725 0.864529 0.428237 -0.697593
H20   H     H_    0.342765 0.775637 0.440373 0.363844
O15   O     O_3   0.368925 0.131448 0.427151 -0.697714
H21   H     H_    0.352919 0.223607 0.437967 0.390638
O16   O     O_3   0.632750 0.868047 0.572531 -0.692142
H22   H     H_    0.651505 0.776784 0.561270 0.375904
O17   O     O_3   0.415396 0.637373 0.235661 -0.747794
H23   H     H_    0.452189 0.631713 0.203299 0.334511
O18   O     O_3   0.778814 0.431674 0.740550 -0.750331
H24   H     H_    0.833209 0.391714 0.716204 0.364386
N7    N     N_2   0.396362 0.183586 0.023341 -0.322169
H25   H     H_    0.343778 0.236761 0.997834 0.243963
C53   C     C_3   0.331410 0.075315 0.046096 -0.799760
H26   H     H_    0.281731 0.014191 0.017371 0.248677
H27   H     H_    0.262499 0.116546 0.071100 0.252212
H28   H     H_    0.397591 0.008557 0.066305 0.254920
N8    N     N_2   0.698481 0.827805 0.982129 -0.323505
H29   H     H_    0.742796 0.902087 0.963546 0.229374
C54   C     C_3   0.587702 0.876508 0.004110 -0.770939
H30   H     H_    0.609544 0.969392 0.025528 0.250339
H31   H     H_    0.551171 0.801139 0.029375 0.258091
H32   H     H_    0.515467 0.899212 0.975292 0.242522
N9    N     N_2   0.124182 0.296371 0.447389 -0.287035
H33   H     H_    0.094959 0.198630 0.450561 0.249170
C55   C     C_3   0.135776 0.336345 0.397150 -0.786603
H34   H     H_    0.182731 0.256205 0.376504 0.282684
H35   H     H_    0.191863 0.429421 0.395866 0.232763
H36   H     H_    0.043118 0.353901 0.379265 0.232305
N10   N     N_2   0.876533 0.746639 0.515425 -0.289193
H37   H     H_    0.904636 0.805476 0.545021 0.240520
C56   C     C_3   0.856228 0.820028 0.470320 -0.689364
H38   H     H_    0.771390 0.881371 0.472591 0.229519
H39   H     H_    0.841880 0.750816 0.438432 0.248465
H40   H     H_    0.936504 0.885942 0.463998 0.212816
N11   N     N_2   0.871137 0.267477 0.467227 -0.288703
H41   H     H_    0.887403 0.229372 0.432960 0.225576
C57   C     C_3   0.875323 0.167161 0.505171 -0.703519
H42   H     H_    0.798394 0.095842 0.498198 0.238364
H43   H     H_    0.864560 0.214073 0.541741 0.257356
H44   H     H_    0.964127 0.111562 0.505648 0.209715
N12   N     N_2   0.132715 0.728291 0.536226 -0.274890
H45   H     H_    0.104728 0.821995 0.524525 0.231487
C58   C     C_3   0.154847 0.720247 0.588545 -0.736529
H46   H     H_    0.219431 0.801350 0.601038 0.254674
H47   H     H_    0.197260 0.622085 0.598362 0.229670
H48   H     H_    0.066806 0.732247 0.607443 0.227848

loop_
_geom_bond_atom_site_label_1
_geom_bond_atom_site_label_2
_geom_bond_distance
_ccdc_geom_bond_type
C58   H48   1.110566 S    
C52   H16   1.109255 S    
O18   H24   0.989468 S    
C13   C15   1.409196 A    
C40   N8    1.425321 S    
C32   C39   1.429289 A    
O15   H21   0.979310 S    
O3    C2    1.293420 A    
N1    C17   1.427109 S    
C10   C18   1.396296 A    
C51   H12   1.111407 S    
C49   O15   1.371172 S    
C58   H46   1.110201 S    
C31   C33   1.416279 A    
N6    H15   1.027365 S    
O5    C3    1.302669 A    
C53   H27   1.110697 S    
C19   C25   1.410601 A    
O1    C1    1.289265 A    
C21   C23   1.397543 A    
C10   C12   1.387002 A    
C1    C46   1.433927 S    
C13   N5    1.431707 S    
N8    C54   1.447243 S    
C56   H39   1.112716 S    
C25   C38   1.397885 A    
C29   C35   1.409675 A    
N9    H33   1.029087 S    
C30   C36   1.410457 A    
C5    O9    1.350223 S    
C41   C46   1.404246 A    
C35   H9    1.076921 S    
C14   C28   1.417834 A    
C43   C45   1.410291 A    
O7    Zn1   1.991333 S    
C4    C28   1.452488 S    
C24   C40   1.399206 A    
C9    H6    1.083083 S    
C54   H30   1.110348 S    
N9    C55   1.446303 S    
C48   N3    1.375187 A    
C44   N12   1.427777 S    
C47   N4    1.376648 A    
C11   H4    1.084465 S    
C12   H3    1.081681 S    
O3    Zn1   2.021093 S    
C6    N2    1.365908 A    
C57   H44   1.109234 S    
C32   C34   1.418871 A    
C48   O14   1.373365 S    
O2    C2    1.300699 A    
C5    C21   1.400476 A    
C51   H13   1.110946 S    
C36   C38   1.389039 A    
O16   H22   0.980885 S    
N6    C52   1.446491 S    
C2    C45   1.446577 S    
C39   N7    1.433676 S    
C53   H28   1.110653 S    
Zn1   N3    2.031976 S    
C48   C49   1.413321 A    
C15   O17   1.383032 S    
C56   H38   1.106878 S    
C50   N3    1.375808 A    
C47   O13   1.372504 S    
C54   H31   1.110055 S    
O8    Zn2   1.991338 S    
C55   H36   1.111666 S    
C11   C27   1.401074 A    
O13   H19   0.980266 S    
N5    C51   1.450438 S    
C56   H40   1.110122 S    
C50   O16   1.373932 S    
C35   C37   1.387869 A    
C9    C17   1.391830 A    
C23   H1    1.080567 S    
C5    N1    1.365944 A    
N11   C57   1.447184 S    
C24   H2    1.083849 S    
C13   C27   1.416681 A    
O17   H23   0.988508 S    
C7    C25   1.399947 A    
C29   C33   1.417464 A    
O6    C4    1.299064 A    
C8    C26   1.397956 A    
N7    C53   1.448042 S    
O14   H20   0.981302 S    
N10   H37   1.030530 S    
C10   H5    1.082969 S    
C6    O10   1.349677 S    
N2    C8    1.365589 A    
O8    C3    1.299538 A    
C52   H17   1.109983 S    
N12   H45   1.030485 S    
C47   C50   1.414106 A    
C20   C26   1.408876 A    
O1    Zn1   2.021338 S    
N11   H41   1.031031 S    
N7    H25   1.031615 S    
C51   H14   1.107725 S    
C36   H10   1.079937 S    
C12   C28   1.396135 A    
C57   H42   1.103990 S    
N2    C18   1.425866 S    
C29   C32   1.419007 A    
C58   H47   1.110109 S    
C30   C31   1.417089 A    
C20   C33   1.411789 A    
O6    Zn2   1.984253 S    
N1    C7    1.364917 A    
O4    C1    1.297915 A    
C42   N10   1.424815 S    
C7    O12   1.349411 S    
C8    O11   1.349955 S    
C53   H26   1.110187 S    
C30   C34   1.417930 A    
C55   H35   1.109926 S    
C19   C34   1.410270 A    
C14   C16   1.413463 A    
C15   C17   1.418106 A    
C55   H34   1.109671 S    
C6    C22   1.401502 A    
C31   C40   1.426666 A    
C16   C18   1.400414 A    
C37   H7    1.083423 S    
C38   H8    1.083281 S    
C42   C45   1.415099 A    
C16   O18   1.382782 S    
C22   C24   1.397676 A    
C19   C21   1.403784 A    
C3    C27   1.458575 S    
C54   H32   1.111224 S    
C20   C22   1.406026 A    
Zn2   N4    2.031976 S    
O4    Zn2   2.021093 S    
O2    Zn2   2.021338 S    
C49   N4    1.375997 A    
C41   N9    1.425799 S    
N10   C56   1.449304 S    
O7    C4    1.298382 A    
N5    H11   1.027082 S    
O5    Zn1   1.984258 S    
C9    C11   1.383252 A    
C43   N11   1.422915 S    
C42   C44   1.383907 A    
C26   C37   1.397573 A    
C52   H18   1.110332 S    
C14   N6    1.427688 S    
N12   C58   1.444961 S    
C44   C46   1.408459 A    
C41   C43   1.386663 A    
N8    H29   1.031995 S    
C23   C39   1.405389 A    
C57   H43   1.111645 S    
