data_mof_unit_12181.cif
_audit_creation_date              2012-10-26T20:37:57-0400
_audit_creation_method            fapswitch 2.2
_symmetry_space_group_name_H-M    P1
_symmetry_Int_Tables_number       1
_space_group_crystal_system       triclinic
_cell_length_a                    9.840133
_cell_length_b                    11.07323
_cell_length_c                    12.993871
_cell_angle_alpha                 89.903728
_cell_angle_beta                  75.708021
_cell_angle_gamma                 110.867994
_cell_volume                      1275.72525356

loop_
_atom_site_label
_atom_site_type_symbol
_atom_type_description
_atom_site_fract_x
_atom_site_fract_y
_atom_site_fract_z
_atom_type_partial_charge
C1    C     C_R   0.439414 0.254344 0.510459 0.588115
C2    C     C_R   0.693831 0.517491 0.002935 -0.119679
C3    C     C_R   0.320088 0.482809 0.888120 -0.115012
C4    C     C_R   0.679911 0.517191 0.111880 -0.115010
C5    C     C_R   0.582716 0.506124 0.855443 -0.097073
C6    C     C_R   0.417284 0.493875 0.144557 -0.097072
C7    C     C_R   0.569671 0.505926 0.964324 0.049827
C8    C     C_R   0.430328 0.494073 0.035676 0.049829
C9    C     C_2   0.406718 0.116686 0.505975 -0.052922
C10   C     C_2   0.593283 0.883315 0.494018 -0.052909
C11   C     C_2   0.499166 0.060213 0.525365 0.219890
C12   C     C_R   0.560586 0.745655 0.489540 0.588111
C13   C     C_2   0.500831 0.939786 0.474629 0.219886
C14   C     C_2   0.082180 0.507470 0.488750 0.021505
C15   C     C_2   0.917818 0.492527 0.511248 0.021501
C16   C     C_R   0.473471 0.496143 0.702712 0.572468
C17   C     C_R   0.526529 0.503857 0.297287 0.572446
C18   C     C_R   0.541607 0.505195 0.183013 0.022391
C19   C     C_R   0.458393 0.494804 0.816987 0.022395
C20   C     C_R   0.306168 0.482508 0.997066 -0.119679
Cu1   Cu    Cu3+1 0.647370 0.522180 0.481340 1.037078
Cu2   Cu    Cu3+1 0.352630 0.477820 0.518660 1.037086
H1    H     H_    0.310367 0.484982 0.199091 0.134049
H2    H     H_    0.162595 0.573503 0.421222 0.204411
H3    H     H_    0.947727 0.617637 0.389549 0.230245
H4    H     H_    0.052275 0.382371 0.610455 0.230252
H5    H     H_    0.352486 0.970719 0.248107 0.375062
H6    H     H_    0.647106 0.029369 0.752153 0.375117
H7    H     H_    0.689633 0.515018 0.800909 0.134051
H8    H     H_    0.777287 0.525890 0.140312 0.140421
H9    H     H_    0.222713 0.474110 0.859688 0.140422
H10   H     H_    0.198785 0.473381 0.050913 0.116475
H11   H     H_    0.801215 0.526618 0.949087 0.116475
H12   H     H_    0.684793 0.933329 0.528938 0.159986
H13   H     H_    0.315214 0.066678 0.471048 0.159897
H14   H     H_    0.837403 0.426490 0.578774 0.204405
N1    N     N_2   0.131210 0.444490 0.546730 -0.351585
N2    N     N_2   0.868790 0.555510 0.453270 -0.351585
O1    O     O_R   0.578710 0.332530 0.490040 -0.441768
O2    O     O_2   0.231524 0.821543 0.434394 -0.334107
O3    O     O_3   0.425180 0.006508 0.291312 -0.540273
O4    O     O_2   0.768464 0.178445 0.565631 -0.333969
O5    O     O_2   0.555036 0.217519 0.684620 -0.288786
O6    O     O_3   0.574783 0.993468 0.708691 -0.540296
O7    O     O_R   0.421290 0.667470 0.509960 -0.441756
O8    O     O_R   0.329810 0.295070 0.521560 -0.498410
O9    O     O_R   0.670190 0.704930 0.478440 -0.498411
O10   O     O_R   0.604230 0.515670 0.637800 -0.496784
O11   O     O_R   0.395770 0.484330 0.362200 -0.496798
O12   O     O_R   0.355330 0.478200 0.669330 -0.509931
O13   O     O_R   0.644670 0.521800 0.330670 -0.509937
O14   O     O_2   0.444929 0.782461 0.315386 -0.288620
S1    S     S_3+6 0.396552 0.881096 0.377842 -0.025703
S2    S     S_3+6 0.603427 0.118890 0.622163 -0.025723

loop_
_geom_bond_atom_site_label_1
_geom_bond_atom_site_label_2
_ccdc_geom_bond_type
C2    C4    A    
H4    N1    S    
C3    C19   A    
C5    C19   A    
H3    N2    S    
C9    C11   D    
H5    O3    S    
O5    S2    D    
C13   S1    S    
C2    C7    A    
Cu1   O1    S    
Cu1   O13   S    
Cu2   O12   S    
Cu1   O10   S    
C4    C18   A    
C17   O13   A    
Cu2   N1    S    
C17   C18   S    
C3    C20   A    
C10   H12   S    
Cu1   Cu2   S    
O4    S2    D    
C14   N1    D    
C3    H9    S    
C11   C13   S    
O3    S1    S    
C8    C20   A    
C15   N2    D    
C10   C12   S    
C12   O9    A    
C6    H1    S    
C2    H11   S    
C11   S2    S    
Cu2   O8    S    
C16   O12   A    
C5    H7    S    
Cu2   O11   S    
C16   C19   S    
C6    C18   A    
C1    O8    A    
C1    O1    A    
C14   H2    S    
O6    S2    S    
C15   H14   S    
C7    C8    A    
Cu2   O7    S    
C1    C9    S    
O14   S1    D    
C9    H13   S    
O2    S1    D    
C20   H10   S    
C17   O11   A    
C5    C7    A    
C14   C15   S    
C6    C8    A    
C16   O10   A    
H6    O6    S    
C4    H8    S    
Cu1   N2    S    
C12   O7    A    
Cu1   O9    S    
C10   C13   D    
