data_mof_unit_58131.cif
_audit_creation_date              2012-12-11T15:17:36-0500
_audit_creation_method            fapswitch 2.2
_symmetry_space_group_name_H-M    P1
_symmetry_Int_Tables_number       1
_space_group_crystal_system       triclinic
_cell_length_a                    15.709435
_cell_length_b                    15.758235
_cell_length_c                    34.464886
_cell_angle_alpha                 89.948174
_cell_angle_beta                  90.136589
_cell_angle_gamma                 120.015424
_cell_volume                      7387.65895184

loop_
_atom_site_label
_atom_site_type_symbol
_atom_type_description
_atom_site_fract_x
_atom_site_fract_y
_atom_site_fract_z
_atom_type_partial_charge
C1    C     C_R   0.577777 0.441874 0.554677 0.567170
C2    C     C_R   0.558194 0.135944 0.554732 0.579650
C3    C     C_R   0.864259 0.422187 0.554656 0.564558
C4    C     C_R   0.441673 0.578236 0.054991 0.565752
C5    C     C_R   0.135935 0.558051 0.054693 0.560765
C6    C     C_R   0.422023 0.863741 0.054904 0.556797
C7    C     C_R   0.006319 0.513046 0.709333 0.367289
C8    C     C_R   0.489205 0.490402 0.709816 0.368305
C9    C     C_R   0.510815 0.997841 0.709963 0.367875
C10   C     C_R   0.562909 0.082469 0.196998 0.367404
C11   C     C_R   0.476987 0.489125 0.212074 0.368971
C12   C     C_R   0.988954 0.503470 0.208767 0.366854
C13   C     C_R   0.018476 0.439269 0.850566 -0.090811
C14   C     C_R   0.562961 0.572309 0.851645 -0.121963
C15   C     C_R   0.418441 0.978959 0.850311 -0.092295
C16   C     C_R   0.511967 0.161796 0.333132 -0.107982
C17   C     C_R   0.580498 0.558042 0.350021 -0.097958
C18   C     C_R   0.976891 0.417330 0.350123 -0.094781
C19   C     C_R   0.042545 0.447208 0.889887 0.243847
C20   C     C_R   0.554356 0.592309 0.890993 0.253580
C21   C     C_R   0.401004 0.953891 0.889446 0.241618
C22   C     C_R   0.506784 0.167618 0.373575 0.222646
C23   C     C_R   0.602518 0.551054 0.388563 0.234141
C24   C     C_R   0.955585 0.403051 0.389664 0.242904
C25   C     C_R   0.068795 0.613395 0.890093 0.111890
C26   C     C_R   0.383595 0.457921 0.889509 0.103642
C27   C     C_R   0.547490 0.937981 0.891481 0.104885
C28   C     C_R   0.648031 0.143608 0.379870 0.114321
C29   C     C_R   0.445017 0.400717 0.395047 0.141009
C30   C     C_R   0.929918 0.543276 0.389888 0.115412
C31   C     C_R   0.043428 0.603416 0.850919 -0.097025
C32   C     C_R   0.393747 0.442146 0.850573 -0.096896
C33   C     C_R   0.563861 0.963683 0.852333 -0.101421
C34   C     C_R   0.649002 0.134206 0.339623 -0.097749
C35   C     C_R   0.424638 0.408059 0.356016 -0.092529
C36   C     C_R   0.952566 0.556976 0.350471 -0.096951
C37   C     C_R   0.023920 0.518976 0.830422 -0.047739
C38   C     C_R   0.481017 0.502575 0.830852 -0.038206
C39   C     C_R   0.496618 0.978780 0.831028 -0.044993
C40   C     C_R   0.582118 0.144062 0.315949 -0.042833
C41   C     C_R   0.494467 0.484175 0.332894 -0.048401
C42   C     C_R   0.970437 0.490974 0.329890 -0.050161
C43   C     C_R   0.077195 0.538072 0.909218 0.015811
C44   C     C_R   0.461318 0.538808 0.909229 0.043696
C45   C     C_R   0.460338 0.923843 0.909557 0.023090
C46   C     C_R   0.577465 0.162691 0.397659 0.019252
C47   C     C_R   0.539012 0.466536 0.410431 0.026556
C48   C     C_R   0.921978 0.459986 0.409114 0.015375
C49   C     C_R   0.577072 0.443179 0.445875 0.583484
C50   C     C_R   0.580524 0.185370 0.439884 0.587780
C51   C     C_R   0.865042 0.422628 0.445555 0.570271
C52   C     C_R   0.442271 0.577243 0.945528 0.596036
C53   C     C_R   0.134979 0.557707 0.945515 0.578620
C54   C     C_R   0.422708 0.865349 0.945631 0.581491
C55   C     C_R   0.924082 0.459776 0.590259 0.007823
C56   C     C_R   0.540744 0.463467 0.590473 0.009210
C57   C     C_R   0.537010 0.077240 0.590537 0.007837
C58   C     C_R   0.464304 0.931913 0.088179 -0.000348
C59   C     C_R   0.461874 0.542264 0.091532 0.006190
C60   C     C_R   0.075825 0.535523 0.090171 0.006034
C61   C     C_R   0.962348 0.406655 0.609132 0.261110
C62   C     C_R   0.594802 0.554365 0.609549 0.261902
C63   C     C_R   0.445940 0.039439 0.609595 0.261554
C64   C     C_R   0.411616 0.971067 0.106798 0.257386
C65   C     C_R   0.548738 0.600190 0.112842 0.262277
C66   C     C_R   0.037211 0.443881 0.108761 0.261366
C67   C     C_R   0.998340 0.432463 0.647112 -0.121018
C68   C     C_R   0.569940 0.563779 0.647723 -0.121897
C69   C     C_R   0.436779 0.004422 0.647660 -0.120947
C70   C     C_R   0.449992 0.027296 0.140513 -0.121698
C71   C     C_R   0.555130 0.574187 0.151143 -0.121542
C72   C     C_R   0.999750 0.432749 0.146451 -0.117351
C73   C     C_R   0.993431 0.507687 0.666898 0.004741
C74   C     C_R   0.494597 0.483459 0.667418 0.004877
C75   C     C_R   0.517726 0.010109 0.667446 0.004468
C76   C     C_R   0.538248 0.042310 0.157097 0.001579
C77   C     C_R   0.474695 0.494842 0.169333 0.003928
C78   C     C_R   0.003602 0.512217 0.166390 0.003854
C79   C     C_R   0.964772 0.567033 0.646421 0.153142
C80   C     C_R   0.434515 0.395911 0.646860 0.152469
C81   C     C_R   0.605508 0.038459 0.646813 0.152932
C82   C     C_R   0.594274 0.009288 0.136766 0.154758
C83   C     C_R   0.391766 0.431638 0.146764 0.150961
C84   C     C_R   0.032987 0.600662 0.146197 0.152096
C85   C     C_R   0.931460 0.543047 0.608304 -0.149335
C86   C     C_R   0.457579 0.387274 0.608582 -0.149249
C87   C     C_R   0.613742 0.070643 0.608582 -0.150182
C88   C     C_R   0.556983 0.954830 0.102712 -0.154386
C89   C     C_R   0.386776 0.455415 0.108106 -0.151608
C90   C     C_R   0.067804 0.610936 0.108308 -0.150424
C91   C     C_R   0.015025 0.516306 0.787908 0.346020
C92   C     C_R   0.484638 0.495789 0.788352 0.347204
C93   C     C_R   0.504400 0.988803 0.788559 0.345579
C94   C     C_R   0.580886 0.128574 0.273676 0.343346
C95   C     C_R   0.481937 0.486014 0.290711 0.343992
C96   C     C_R   0.978565 0.496636 0.287331 0.343708
Cr1   Cr    Cr6+3 0.522350 0.263930 0.500020 1.099851
Cr2   Cr    Cr6+3 0.736070 0.258420 0.500020 1.098874
Cr3   Cr    Cr6+3 0.741580 0.477650 0.500020 1.094073
Cr4   Cr    Cr6+3 0.263930 0.522350 0.000020 1.102671
Cr5   Cr    Cr6+3 0.258420 0.736070 0.000020 1.107983
Cr6   Cr    Cr6+3 0.477650 0.741580 0.000020 1.111420
H1    H     H_    0.905138 0.586311 0.593634 0.151982
H2    H     H_    0.413774 0.317997 0.593821 0.152430
H3    H     H_    0.683142 0.096651 0.593786 0.151456
H4    H     H_    0.600266 0.928827 0.087899 0.152530
H5    H     H_    0.320667 0.408709 0.091717 0.153435
H6    H     H_    0.094480 0.680739 0.093884 0.153116
H7    H     H_    0.026398 0.390783 0.661881 0.155807
H8    H     H_    0.612225 0.633078 0.662670 0.153886
H9    H     H_    0.367105 0.976501 0.662472 0.156973
H10   H     H_    0.407742 0.055501 0.154643 0.164654
H11   H     H_    0.621931 0.619457 0.167400 0.160060
H12   H     H_    0.971342 0.362669 0.160882 0.163969
H13   H     H_    0.999998 0.371801 0.835566 0.177341
H14   H     H_    0.632168 0.612882 0.836584 0.139041
H15   H     H_    0.367395 0.993909 0.834736 0.177102
H16   H     H_    0.458899 0.168712 0.315293 0.165320
H17   H     H_    0.634133 0.619471 0.333063 0.176644
H18   H     H_    0.994672 0.367832 0.335117 0.176867
H19   H     H_    0.042591 0.663697 0.836143 0.187157
H20   H     H_    0.331616 0.383719 0.835390 0.189109
H21   H     H_    0.627906 0.968868 0.838284 0.181278
H22   H     H_    0.702860 0.119034 0.326770 0.187334
H23   H     H_    0.354730 0.354041 0.343727 0.177498
H24   H     H_    0.953217 0.617974 0.335679 0.187854
N1    N     N_R   0.983406 0.431192 0.768263 -0.206606
N2    N     N_R   0.570947 0.546390 0.769053 -0.210319
N3    N     N_R   0.448484 0.017327 0.768617 -0.206908
N4    N     N_R   0.529504 0.154853 0.249612 -0.203333
N5    N     N_R   0.534822 0.571083 0.271006 -0.213180
N6    N     N_R   0.009036 0.442165 0.267690 -0.208590
N7    N     N_R   0.978752 0.429577 0.729753 -0.212976
N8    N     N_R   0.573183 0.543395 0.730552 -0.214588
N9    N     N_R   0.451987 0.022159 0.730130 -0.213727
N10   N     N_R   0.520662 0.132185 0.212073 -0.213691
N11   N     N_R   0.531995 0.572649 0.232560 -0.225902
N12   N     N_R   0.014487 0.445853 0.229202 -0.214978
N13   N     N_R   0.039549 0.598401 0.728950 -0.131162
N14   N     N_R   0.402761 0.441134 0.729052 -0.131756
N15   N     N_R   0.565737 0.968028 0.729881 -0.131622
N16   N     N_R   0.615479 0.057662 0.221033 -0.140855
N17   N     N_R   0.423673 0.403803 0.231765 -0.125762
N18   N     N_R   0.956600 0.556390 0.228373 -0.130081
N19   N     N_R   0.043932 0.600052 0.767498 -0.194791
N20   N     N_R   0.400503 0.443870 0.767572 -0.196055
N21   N     N_R   0.562542 0.963461 0.768441 -0.198023
N22   N     N_R   0.624856 0.080750 0.258517 -0.200038
N23   N     N_R   0.426194 0.402156 0.270404 -0.194040
N24   N     N_R   0.951406 0.553002 0.266906 -0.196040
O1    O     O_R   0.498680 0.159540 0.541860 -0.462069
O2    O     O_R   0.840460 0.339140 0.541860 -0.468666
O3    O     O_R   0.660860 0.501320 0.541860 -0.468641
O4    O     O_R   0.159540 0.498680 0.041860 -0.470717
O5    O     O_R   0.339140 0.840460 0.041860 -0.464884
O6    O     O_R   0.501320 0.660860 0.041860 -0.459549
O7    O     O_R   0.532760 0.358060 0.540030 -0.522501
O8    O     O_R   0.641940 0.174700 0.540030 -0.519419
O9    O     O_R   0.825300 0.467240 0.540030 -0.522393
O10   O     O_R   0.358060 0.532760 0.040030 -0.526728
O11   O     O_R   0.174700 0.641940 0.040030 -0.523636
O12   O     O_R   0.467240 0.825300 0.040030 -0.524727
O13   O     O_R   0.498590 0.161190 0.456930 -0.453819
O14   O     O_R   0.838810 0.337400 0.456930 -0.449011
O15   O     O_R   0.662600 0.501410 0.456930 -0.446795
O16   O     O_R   0.161190 0.498590 0.956930 -0.438367
O17   O     O_R   0.337400 0.838810 0.956930 -0.441502
O18   O     O_R   0.501410 0.662600 0.956930 -0.436342
O19   O     O_R   0.532680 0.359580 0.461300 -0.465842
O20   O     O_R   0.640420 0.173100 0.461300 -0.457898
O21   O     O_R   0.826900 0.467320 0.461300 -0.466044
O22   O     O_R   0.359580 0.532680 0.961300 -0.470861
O23   O     O_R   0.173100 0.640420 0.961300 -0.465333
O24   O     O_R   0.467320 0.826900 0.961300 -0.465056
O25   O     O_3   0.666667 0.333333 0.499990 -0.313174
O26   O     O_3   0.333333 0.666667 0.999990 -0.293476
O27   O     O_3   0.966497 0.331636 0.589834 -0.540290
C97   C     C_3   0.908492 0.242073 0.609411 -0.056224
H25   H     H_    0.836711 0.232954 0.619026 0.134505
H26   H     H_    0.949124 0.235176 0.634495 0.160589
H27   H     H_    0.892252 0.181163 0.589128 0.167096
O28   O     O_3   0.669779 0.633781 0.590252 -0.540391
C98   C     C_3   0.759934 0.665519 0.609689 -0.057127
H28   H     H_    0.769131 0.603078 0.619363 0.134651
H29   H     H_    0.767365 0.713127 0.634710 0.159957
H30   H     H_    0.820709 0.710062 0.589288 0.166971
O29   O     O_3   0.366036 0.034804 0.590414 -0.535640
C99   C     C_3   0.335103 0.093534 0.609806 -0.055090
H31   H     H_    0.398208 0.165501 0.618905 0.132648
H32   H     H_    0.288631 0.054201 0.635214 0.160526
H33   H     H_    0.289392 0.108839 0.589578 0.168689
O30   O     O_3   0.324543 0.957781 0.091176 -0.536489
C100  C     C_3   0.245723 0.892553 0.114905 -0.057210
H34   H     H_    0.244687 0.928077 0.142602 0.155616
H35   H     H_    0.247785 0.824051 0.120792 0.123810
H36   H     H_    0.175900 0.871535 0.099461 0.178750
O31   O     O_3   0.627579 0.681016 0.095925 -0.526597
C101  C     C_3   0.641899 0.767264 0.114300 -0.054662
H37   H     H_    0.677298 0.776847 0.143143 0.150965
H38   H     H_    0.571893 0.768549 0.117161 0.111450
H39   H     H_    0.692336 0.830997 0.096209 0.175861
O32   O     O_3   0.033973 0.365132 0.089511 -0.535465
C102  C     C_3   0.095197 0.336610 0.108664 -0.048984
H40   H     H_    0.058464 0.292302 0.134855 0.166018
H41   H     H_    0.167889 0.400693 0.116494 0.128287
H42   H     H_    0.109252 0.289746 0.088740 0.170855
O33   O     O_3   0.041693 0.368367 0.907824 -0.502649
C103  C     C_3   0.951739 0.314797 0.927638 -0.058825
H43   H     H_    0.943731 0.359789 0.950680 0.119283
H44   H     H_    0.950399 0.251107 0.941991 0.182229
H45   H     H_    0.888286 0.285848 0.907197 0.120017
O34   O     O_3   0.634120 0.659148 0.913436 -0.528456
C104  C     C_3   0.709013 0.736049 0.891677 -0.049280
H46   H     H_    0.756917 0.795861 0.911913 0.196930
H47   H     H_    0.678888 0.767295 0.870298 0.146736
H48   H     H_    0.755985 0.711163 0.877339 0.128043
O35   O     O_3   0.319123 0.949163 0.906369 -0.503520
C105  C     C_3   0.348880 0.038705 0.925530 -0.058467
H49   H     H_    0.402896 0.051699 0.949011 0.118931
H50   H     H_    0.283460 0.035392 0.939230 0.181589
H51   H     H_    0.379882 0.101152 0.904734 0.119690
O36   O     O_3   0.434308 0.182045 0.389446 -0.526070
C106  C     C_3   0.343865 0.093167 0.387091 -0.046366
H52   H     H_    0.287956 0.100588 0.403954 0.195258
H53   H     H_    0.348920 0.030891 0.399933 0.131278
H54   H     H_    0.317248 0.076341 0.356613 0.120199
O37   O     O_3   0.691578 0.623126 0.403122 -0.502581
C107  C     C_3   0.677056 0.696072 0.420252 -0.053619
H55   H     H_    0.652713 0.731591 0.398380 0.121510
H56   H     H_    0.748104 0.753591 0.432454 0.182288
H57   H     H_    0.623439 0.665835 0.444577 0.122181
O38   O     O_3   0.958805 0.326591 0.407871 -0.504087
C108  C     C_3   0.049492 0.364984 0.427478 -0.056176
H58   H     H_    0.052864 0.303776 0.441906 0.183231
H59   H     H_    0.056836 0.417917 0.450437 0.119769
H60   H     H_    0.112319 0.400096 0.406882 0.122687
Br1   Br    Br    0.958617 0.675189 0.669166 -0.474397
Br2   Br    Br    0.326857 0.281328 0.669824 -0.472648
Br3   Br    Br    0.720810 0.045216 0.669350 -0.475278
Br4   Br    Br    0.723220 0.037852 0.152784 -0.456434
Br5   Br    Br    0.278725 0.317170 0.166999 -0.470257
Br6   Br    Br    0.037626 0.714166 0.169020 -0.475641
Br7   Br    Br    0.093621 0.733795 0.914218 -0.401170
Br8   Br    Br    0.259333 0.366009 0.912416 -0.402372
Br9   Br    Br    0.647306 0.922817 0.917621 -0.500901
Br10  Br    Br    0.743687 0.123868 0.407249 -0.395009
Br11  Br    Br    0.339880 0.304398 0.426266 -0.479162
Br12  Br    Br    0.909928 0.641309 0.414591 -0.411213

loop_
_geom_bond_atom_site_label_1
_geom_bond_atom_site_label_2
_ccdc_geom_bond_type
Cr2   O8    S    
C25   C31   A    
C3    O9    A    
C102  H40   S    
C26   C32   A    
Cr1   O25   S    
Cr3   O9    S    
Cr4   O22   S    
C91   N19   A    
C6    C58   S    
C68   C74   A    
Cr5   O23   S    
C106  H52   S    
C71   C77   A    
C54   O17   A    
Cr4   O16   S    
C86   H2    S    
C25   C43   A    
C107  H56   S    
C97   H25   S    
C106  H54   S    
C26   C44   A    
C7    C73   S    
Cr2   O2    S    
C104  H46   S    
C27   C33   A    
C12   N18   A    
C102  H41   S    
C28   C46   A    
C3    O2    A    
C33   C39   A    
C91   N1    A    
C29   C47   A    
C99   H33   S    
C42   C96   S    
C30   C48   A    
C1    C56   S    
C10   N10   A    
C7    N7    A    
N2    N8    A    
C27   Br9   S    
C10   N16   A    
C32   H20   S    
C82   C88   A    
C53   O23   A    
C62   O28   S    
C27   C45   A    
Cr5   O5    S    
Cr6   O26   S    
C5    O4    A    
C49   O19   A    
C72   H12   S    
Cr1   O19   S    
C71   H11   S    
C99   H32   S    
C59   C89   A    
C80   Br2   S    
Cr5   O17   S    
Cr4   O10   S    
O28   C98   S    
C39   C93   S    
Cr3   O21   S    
N18   N24   A    
C11   C77   S    
C35   H23   S    
N3    N9    A    
C3    C55   S    
C43   C53   S    
C48   C51   S    
C66   C72   A    
C63   C69   A    
C103  H43   S    
C100  H35   S    
C82   Br4   S    
Cr4   O26   S    
C34   H22   S    
C69   C75   A    
C101  H37   S    
C67   C73   A    
C32   C38   A    
C84   Br6   S    
C108  H58   S    
Cr6   O6    S    
C13   C37   A    
C6    O5    A    
C85   H1    S    
Cr6   O12   S    
C96   N6    A    
C44   C52   S    
C46   C50   S    
C104  H47   S    
C60   C66   A    
C74   C80   A    
C19   O33   S    
C29   Br11  S    
C52   O22   A    
C41   C95   S    
C84   C90   A    
C93   N3    A    
C92   N2    A    
C107  H55   S    
C64   O30   S    
C19   C43   A    
C88   H4    S    
C57   C63   A    
C21   C45   A    
C25   Br7   S    
C58   C64   A    
C83   C89   A    
C102  H42   S    
N4    N10   A    
C2    C57   S    
C23   C47   A    
O32   C102  S    
C37   C91   S    
N15   N21   A    
C92   N20   A    
O33   C103  S    
C24   C48   A    
C14   C20   A    
C13   H13   S    
C31   H19   S    
C18   C24   A    
C47   C49   S    
C68   H8    S    
C98   H30   S    
C76   C82   A    
C51   O21   A    
C16   C22   A    
C9    N15   A    
C75   C81   A    
C13   C19   A    
C28   Br10  S    
Cr5   O26   S    
C94   N22   A    
Cr1   O13   S    
O35   C105  S    
C65   C71   A    
C8    N8    A    
C95   N5    A    
C78   C84   A    
C57   C87   A    
C31   C37   A    
C99   H31   S    
C5    O11   A    
C55   C85   A    
C12   C78   S    
C98   H28   S    
C49   O15   A    
N5    N11   A    
C16   H16   S    
C14   C38   A    
C98   H29   S    
C22   O36   S    
C61   C67   A    
C56   C86   A    
O37   C107  S    
C87   H3    S    
N17   N23   A    
C61   O27   S    
C2    O8    A    
C100  H36   S    
C96   N24   A    
C89   H5    S    
C101  H39   S    
C8    C74   S    
Cr1   O1    S    
Cr3   O25   S    
C51   O14   A    
C50   O20   A    
C17   C23   A    
C1    O7    A    
C1    O3    A    
C108  H59   S    
N16   N22   A    
C15   C39   A    
C81   C87   A    
C70   H10   S    
C16   C40   A    
C65   O31   S    
C9    N9    A    
C22   C46   A    
C45   C54   S    
C20   C44   A    
C64   C70   A    
C70   C76   A    
C34   C40   A    
C23   O37   S    
Cr3   O3    S    
C79   Br1   S    
N14   N20   A    
C94   N4    A    
C18   H18   S    
C79   C85   A    
C105  H51   S    
C104  H48   S    
Cr4   O4    S    
C2    O1    A    
C29   C35   A    
N13   N19   A    
Cr6   O18   S    
C5    C60   S    
C4    O6    A    
C50   O13   A    
C10   C76   S    
O27   C97   S    
C6    O12   A    
C36   H24   S    
N1    N7    A    
C40   C94   S    
C101  H38   S    
C24   O38   S    
C58   C88   A    
C36   C42   A    
C97   H26   S    
C106  H53   S    
C95   N23   A    
C60   C90   A    
Cr6   O24   S    
C73   C79   A    
C83   Br5   S    
C63   O29   S    
C30   C36   A    
C105  H50   S    
C8    N14   A    
C66   O32   S    
C15   H15   S    
O30   C100  S    
C54   O24   A    
C18   C42   A    
C11   N11   A    
C90   H6    S    
O29   C99   S    
C52   O18   A    
C7    N13   A    
Cr2   O25   S    
C69   H9    S    
Cr2   O14   S    
C67   H7    S    
C105  H49   S    
C4    O10   A    
C11   N17   A    
C103  H45   S    
C14   H14   S    
C55   C61   A    
C4    C59   S    
Cr5   O11   S    
O38   C108  S    
C93   N21   A    
C26   Br8   S    
C56   C62   A    
C62   C68   A    
C20   O34   S    
O31   C101  S    
C35   C41   A    
C108  H60   S    
C17   C41   A    
C97   H27   S    
C17   H17   S    
C28   C34   A    
Cr2   O20   S    
C81   Br3   S    
C80   C86   A    
C15   C21   A    
C53   O16   A    
O34   C104  S    
C103  H44   S    
C100  H34   S    
C72   C78   A    
C33   H21   S    
C77   C83   A    
C12   N12   A    
C30   Br12  S    
C21   O35   S    
C9    C75   S    
N6    N12   A    
O36   C106  S    
C107  H57   S    
C59   C65   A    
C38   C92   S    
Cr1   O7    S    
Cr3   O15   S    
