data_mof_unit_11002.cif
_audit_creation_date              2012-12-10T17:04:31-0500
_audit_creation_method            fapswitch 2.2
_symmetry_space_group_name_H-M    P1
_symmetry_Int_Tables_number       1
_space_group_crystal_system       triclinic
_cell_length_a                    14.911489
_cell_length_b                    10.715306
_cell_length_c                    10.044707
_cell_angle_alpha                 89.07486
_cell_angle_beta                  89.803813
_cell_angle_gamma                 89.839154
_cell_volume                      1604.73031119

loop_
_atom_site_label
_atom_site_type_symbol
_atom_type_description
_atom_site_fract_x
_atom_site_fract_y
_atom_site_fract_z
_atom_type_partial_charge
C1    C     C_R   0.496503 0.262670 0.500785 0.953544
C2    C     C_R   0.906736 0.591873 0.400775 0.089482
C3    C     C_R   0.950493 0.479064 0.747995 0.167516
C4    C     C_R   0.045016 0.486414 0.752372 0.034229
C5    C     C_R   0.092483 0.506164 0.631224 0.049482
C6    C     C_R   0.046433 0.545253 0.515111 0.071657
C7    C     C_R   0.093596 0.578633 0.397624 0.143249
C8    C     C_R   0.047964 0.625369 0.286349 -0.240977
C9    C     C_R   0.955204 0.634703 0.288886 -0.130276
C10   C     C_R   0.184774 0.488208 0.622225 -0.252416
C11   C     C_R   0.230480 0.514756 0.503530 -0.064289
C12   C     C_R   0.326518 0.501682 0.500460 0.873896
C13   C     C_R   0.185637 0.562599 0.392468 -0.265792
C14   C     C_2   0.484961 0.934443 0.396051 -0.219884
C15   C     C_2   0.522330 0.866954 0.494386 0.040749
C16   C     C_2   0.493535 0.067487 0.390294 -0.121763
C17   C     C_2   0.484335 0.131148 0.502189 -0.307714
C18   C     C_2   0.442124 0.555324 0.927802 -0.053465
C19   C     C_2   0.433100 0.530964 0.074687 -0.180447
C20   C     C_R   0.504069 0.737053 0.498901 0.884109
C21   C     C_R   0.673396 0.503691 0.499552 0.965583
C22   C     C_R   0.813067 0.591342 0.402075 0.097280
C23   C     C_R   0.769463 0.517416 0.500093 -0.188377
C24   C     C_R   0.817545 0.460910 0.604830 0.139820
C25   C     C_R   0.906471 0.495343 0.624420 -0.015935
C26   C     C_R   0.953174 0.546158 0.514286 -0.041998
H1    H     H_    0.503552 0.112554 0.293704 0.184765
H2    H     H_    0.467501 0.085457 0.596404 0.168124
H3    H     H_    0.394084 0.618468 0.881548 0.136364
H4    H     H_    0.367661 0.541118 0.120667 0.155846
H5    H     H_    0.562251 0.528062 0.109922 0.211706
H6    H     H_    0.221770 0.449814 0.705770 0.164609
H7    H     H_    0.222218 0.587123 0.302262 0.151654
H8    H     H_    0.083926 0.652998 0.196683 0.146702
H9    H     H_    0.922366 0.668751 0.199717 0.194524
H10   H     H_    0.443048 0.891756 0.321061 0.156722
N1    N     N_2   0.500970 0.501330 0.852150 -0.098964
N2    N     N_2   0.500990 0.501360 0.147810 -0.190066
O1    O     O_R   0.499990 0.319060 0.613040 -0.636371
O2    O     O_R   0.500010 0.319100 0.386900 -0.609203
O3    O     O_R   0.367830 0.499950 0.613080 -0.637299
O4    O     O_R   0.367860 0.499990 0.386940 -0.628047
O5    O     O_R   0.499990 0.680900 0.613100 -0.597242
O6    O     O_R   0.500010 0.680940 0.386960 -0.609478
O7    O     O_R   0.632140 0.500010 0.613060 -0.600935
O8    O     O_R   0.632170 0.500050 0.386920 -0.590778
Zn1   Zn    Zn3+2 0.499980 0.499970 0.650990 0.963325
Zn2   Zn    Zn3+2 0.500020 0.500030 0.349010 0.970557
I1    I     I_    0.740231 0.706660 0.261618 -0.287366
I2    I     I_    0.625599 0.928130 0.625866 -0.293550
C27   C     C_3   0.543250 0.383260 0.893405 -0.119839
C28   C     C_3   0.474441 0.278234 0.918652 -0.408244
C29   C     C_3   0.520415 0.151061 0.928584 -0.830650
H11   H     H_    0.556280 0.130689 0.834372 0.292813
H12   H     H_    0.568998 0.149327 0.012202 0.273809
H13   H     H_    0.469440 0.077346 0.946819 0.248906
H14   H     H_    0.437540 0.293480 0.013046 0.224847
H15   H     H_    0.424485 0.276900 0.836945 0.241760
H16   H     H_    0.587993 0.354642 0.811484 0.241120
H17   H     H_    0.590540 0.391362 0.976667 0.150329
I3    I     I_    0.769845 0.286953 0.687410 -0.292994
I4    I     I_    0.873594 0.476490 0.929956 -0.351325
C30   C     C_3   0.093959 0.480693 0.885289 -0.406605
C31   C     C_3   0.110642 0.345571 0.931348 -0.313200
C32   C     C_3   0.161444 0.340903 0.063065 -0.870857
H18   H     H_    0.227647 0.387321 0.051903 0.246668
H19   H     H_    0.122129 0.388009 0.141938 0.277447
H20   H     H_    0.172648 0.242188 0.094098 0.256608
H21   H     H_    0.045631 0.296370 0.944424 0.258609
H22   H     H_    0.150461 0.295648 0.855010 0.215780
H23   H     H_    0.158421 0.532103 0.879529 0.187853
H24   H     H_    0.055956 0.531628 0.962430 0.224306

loop_
_geom_bond_atom_site_label_1
_geom_bond_atom_site_label_2
_ccdc_geom_bond_type
C2    C22   A    
C12   O4    A    
C23   C24   A    
C13   H7    S    
C6    C7    A    
C19   N2    D    
C31   H22   S    
N1    Zn1   S    
O5    Zn1   S    
C1    C17   S    
H5    N2    S    
C7    C13   A    
C11   C12   S    
C32   H20   S    
C31   C32   S    
C29   H13   S    
C16   H1    S    
O7    Zn1   S    
O3    Zn1   S    
C7    C8    A    
C2    C26   A    
C18   H3    S    
O4    Zn2   S    
C31   H21   S    
C28   C29   S    
C11   C13   A    
C4    C30   S    
C6    C26   A    
C19   H4    S    
C28   H15   S    
C24   I3    S    
C4    C5    A    
C5    C10   A    
C30   H24   S    
C20   O6    A    
C18   N1    D    
C30   H23   S    
C21   O8    A    
O8    Zn2   S    
C29   H12   S    
C21   C23   S    
C14   H10   S    
C5    C6    A    
N1    C27   S    
C14   C16   S    
C3    I4    S    
C27   H16   S    
C28   H14   S    
C1    O1    A    
C30   C31   S    
C16   C17   D    
C10   H6    S    
C3    C25   A    
C20   O5    A    
C27   C28   S    
C24   C25   A    
C12   O3    A    
O1    Zn1   S    
C32   H18   S    
C10   C11   A    
C15   I2    S    
C22   I1    S    
C9    H9    S    
O2    Zn2   S    
C14   C15   D    
C18   C19   S    
C8    H8    S    
C27   H17   S    
C1    O2    A    
C25   C26   A    
C2    C9    A    
C17   H2    S    
N2    Zn2   S    
C15   C20   S    
C22   C23   A    
C3    C4    A    
O6    Zn2   S    
C29   H11   S    
C8    C9    A    
C32   H19   S    
C21   O7    A    
