data_mof_unit_39622.cif
_audit_creation_date              2012-12-10T20:45:34-0500
_audit_creation_method            fapswitch 2.2
_symmetry_space_group_name_H-M    P1
_symmetry_Int_Tables_number       1
_space_group_crystal_system       triclinic
_cell_length_a                    10.606729
_cell_length_b                    10.700676
_cell_length_c                    9.931651
_cell_angle_alpha                 89.262761
_cell_angle_beta                  90.565966
_cell_angle_gamma                 91.027025
_cell_volume                      1126.90729348

loop_
_atom_site_label
_atom_site_type_symbol
_atom_type_description
_atom_site_fract_x
_atom_site_fract_y
_atom_site_fract_z
_atom_type_partial_charge
C1    C     C_R   0.504979 0.260066 0.500300 0.882309
C2    C     C_R   0.790699 0.839458 0.815407 -0.150836
C3    C     C_R   0.797603 0.787803 0.945134 -0.146687
C4    C     C_R   0.261448 0.516890 0.498605 0.918625
C5    C     C_R   0.840249 0.665976 0.964216 -0.116237
C6    C     C_R   0.879042 0.596698 0.854086 -0.100312
C7    C     C_R   0.874885 0.649127 0.723958 0.202142
C8    C     C_R   0.538465 0.062303 0.619698 0.125217
C9    C     C_R   0.527609 0.128850 0.499257 -0.094358
C10   C     C_R   0.542133 0.066753 0.376592 -0.223442
C11   C     C_R   0.542044 0.937301 0.375950 -0.243890
C12   C     C_R   0.245620 0.702013 0.020097 -0.028602
C13   C     C_R   0.527603 0.871415 0.497958 -0.088233
C14   C     C_R   0.538553 0.934533 0.619213 0.118522
C15   C     C_3   0.458950 0.924102 0.742135 -0.466204
C16   C     C_R   0.505078 0.739872 0.499199 0.871355
C17   C     C_3   0.457783 0.064966 0.741308 -0.505372
C18   C     C_R   0.471070 0.393568 0.072746 0.215515
C19   C     C_R   0.539076 0.602061 0.070622 -0.140321
C20   C     C_R   0.538703 0.601943 0.927236 -0.129020
C21   C     C_R   0.469174 0.393878 0.930571 0.216537
C22   C     C_3   0.344939 0.325218 0.930362 -0.522532
C23   C     C_R   0.935675 0.532155 0.374949 -0.248092
C24   C     C_3   0.351161 0.320822 0.082774 -0.500699
C25   C     C_R   0.740490 0.509857 0.500414 0.881619
C26   C     C_R   0.260343 0.761937 0.142939 -0.171776
C27   C     C_R   0.198340 0.714562 0.256083 -0.078516
C28   C     C_R   0.122429 0.605288 0.247397 0.174495
C29   C     C_R   0.104061 0.548697 0.122562 -0.250492
C30   C     C_R   0.166370 0.596556 0.009798 -0.068324
C31   C     C_R   0.873935 0.537541 0.499010 -0.149968
C32   C     C_R   0.939183 0.587536 0.611872 -0.083946
C33   C     C_R   0.070400 0.597355 0.605637 0.317604
C34   C     C_R   0.130219 0.551519 0.493173 -0.180258
C35   C     C_R   0.064217 0.552315 0.370685 -0.026479
C36   C     C_R   0.828382 0.770181 0.704853 -0.087770
Cl1   Cl    Cl    0.153988 0.706566 0.704587 -0.728227
H1    H     H_    0.296581 0.737342 0.933590 0.173100
H2    H     H_    0.509251 0.106021 0.828676 0.199209
H3    H     H_    0.568735 0.685631 0.123085 0.138389
H4    H     H_    0.320867 0.844093 0.150837 0.126699
H5    H     H_    0.568066 0.684687 0.872578 0.161139
H6    H     H_    0.267174 0.381472 0.888222 0.213810
H7    H     H_    0.348437 0.231122 0.888324 0.201149
H8    H     H_    0.275633 0.372551 0.132574 0.232712
H9    H     H_    0.366438 0.225315 0.124476 0.194147
H10   H     H_    0.211549 0.761655 0.351239 0.133258
H11   H     H_    0.045266 0.465413 0.113217 0.125451
H12   H     H_    0.768496 0.841549 0.030646 0.124629
H13   H     H_    0.153404 0.550407 0.914914 0.171373
H14   H     H_    0.883851 0.519941 0.281439 0.166984
H15   H     H_    0.826665 0.812734 0.605306 0.118376
H16   H     H_    0.757901 0.933876 0.800831 0.137741
H17   H     H_    0.844063 0.625725 0.064526 0.128729
H18   H     H_    0.915836 0.503934 0.870464 0.106269
H19   H     H_    0.543891 0.116728 0.281067 0.165471
H20   H     H_    0.543591 0.889978 0.280229 0.157042
H21   H     H_    0.364746 0.880927 0.722293 0.258869
H22   H     H_    0.510652 0.885510 0.830434 0.183504
H23   H     H_    0.362797 0.102226 0.717721 0.212003
N1    N     N_R   0.499160 0.499140 0.142800 -0.100059
N2    N     N_R   0.499160 0.499180 0.857150 -0.102398
O1    O     O_R   0.500020 0.316790 0.614690 -0.613722
O2    O     O_R   0.500000 0.316760 0.385350 -0.622457
O3    O     O_R   0.316770 0.500030 0.614670 -0.580957
O4    O     O_R   0.316750 0.499990 0.385330 -0.615951
O5    O     O_R   0.500000 0.683240 0.614650 -0.609578
O6    O     O_R   0.499980 0.683210 0.385310 -0.638584
O7    O     O_R   0.683250 0.500010 0.614670 -0.619511
O8    O     O_R   0.683230 0.499970 0.385330 -0.625534
Zn1   Zn    Zn3+2 0.500010 0.500020 0.653130 0.964230
Zn2   Zn    Zn3+2 0.499990 0.499980 0.346870 0.941118

loop_
_geom_bond_atom_site_label_1
_geom_bond_atom_site_label_2
_ccdc_geom_bond_type
C25   C31   S    
C20   H5    S    
C18   N1    A    
C8    C14   A    
C29   C30   A    
C16   O6    A    
C18   C21   A    
C10   H19   S    
C9    C10   A    
C19   C20   A    
C23   H14   S    
C8    C17   S    
C36   H15   S    
C6    H18   S    
O6    Zn2   S    
C24   H9    S    
C32   C33   A    
C22   C24   S    
C14   C15   S    
C2    C3    A    
C30   H13   S    
C16   O5    A    
C11   H20   S    
C13   C14   A    
C20   N2    A    
C11   C13   A    
C26   C27   A    
C6    C7    A    
C15   H22   S    
C19   N1    A    
C18   C24   S    
C24   H8    S    
C1    O1    A    
N1    Zn2   S    
C21   C22   S    
C28   C29   A    
C15   H21   S    
C12   C26   A    
O1    Zn1   S    
N2    Zn1   S    
C33   C34   A    
O5    Zn1   S    
C19   H3    S    
O2    Zn2   S    
C12   H1    S    
C5    C6    A    
C7    C32   S    
C23   C35   A    
C4    C34   S    
C25   O7    A    
C10   C11   A    
C17   H23   S    
C27   H10   S    
C3    H12   S    
C1    O2    A    
C5    H17   S    
C1    C9    S    
C4    O4    A    
O7    Zn1   S    
C34   C35   A    
C7    C36   A    
C13   C16   S    
C2    C36   A    
C27   C28   A    
C15   C17   S    
C17   H2    S    
C4    O3    A    
C22   H7    S    
C25   O8    A    
C29   H11   S    
C21   N2    A    
O3    Zn1   S    
C28   C35   S    
C12   C30   A    
O8    Zn2   S    
C31   C32   A    
C33   Cl1   S    
C22   H6    S    
C26   H4    S    
O4    Zn2   S    
C8    C9    A    
C3    C5    A    
C2    H16   S    
C23   C31   A    
