data_mof_unit_32330.cif
_audit_creation_date              2012-12-10T19:01:22-0500
_audit_creation_method            fapswitch 2.2
_symmetry_space_group_name_H-M    P1
_symmetry_Int_Tables_number       1
_space_group_crystal_system       triclinic
_cell_length_a                    9.555545
_cell_length_b                    10.839741
_cell_length_c                    15.535626
_cell_angle_alpha                 89.799944
_cell_angle_beta                  74.228567
_cell_angle_gamma                 90.610802
_cell_volume                      1548.47273512

loop_
_atom_site_label
_atom_site_type_symbol
_atom_type_description
_atom_site_fract_x
_atom_site_fract_y
_atom_site_fract_z
_atom_type_partial_charge
C1    C     C_R   0.998240 0.262456 0.502294 0.799639
C2    C     C_R   0.671839 0.515409 0.905859 0.057373
C3    C     C_R   0.768092 0.567966 0.951668 0.115947
C4    C     C_R   0.521822 0.496322 0.951510 0.028929
C5    C     C_R   0.472269 0.522138 0.044289 0.025056
C6    C     C_R   0.570825 0.575868 0.087089 -0.280058
C7    C     C_R   0.715809 0.599398 0.042049 0.218153
C8    C     C_R   0.419143 0.455187 0.906886 -0.278017
C9    C     C_R   0.272548 0.437211 0.951474 0.219309
C10   C     C_R   0.223154 0.461029 0.043467 0.122017
C11   C     C_R   0.323994 0.498184 0.090998 0.057243
C12   C     C_R   0.918175 0.501514 0.671844 0.793898
C13   C     C_R   0.074513 0.448116 0.089173 -0.165495
C14   C     C_R   0.026748 0.464433 0.181352 -0.215070
C15   C     C_R   0.273705 0.507095 0.184615 -0.237007
C16   C     C_R   0.113060 0.065674 0.521402 0.125270
C17   C     C_R   0.992057 0.129580 0.512318 -0.099744
C18   C     C_R   0.863473 0.063074 0.516080 -0.220486
C19   C     C_R   0.864725 0.934380 0.515451 -0.214540
C20   C     C_R   0.994595 0.871152 0.510922 -0.099519
C21   C     C_R   0.114586 0.938646 0.520720 0.130117
C22   C     C_3   0.270347 0.937123 0.467525 -0.492962
C23   C     C_R   0.999642 0.737838 0.501650 0.802423
C24   C     C_3   0.268391 0.076854 0.468830 -0.450670
C25   C     C_R   0.607517 0.533539 0.425093 0.252969
C26   C     C_R   0.542329 0.454339 0.570667 -0.081326
C27   C     C_R   0.393615 0.454696 0.570783 -0.093219
C28   C     C_R   0.460271 0.532950 0.424855 0.265898
C29   C     C_3   0.477841 0.654614 0.378144 -0.518664
C30   C     C_3   0.636336 0.654983 0.378442 -0.497047
C31   C     C_R   0.081867 0.498296 0.327940 0.797984
C32   C     C_R   0.872763 0.514152 0.769222 -0.048894
C33   C     C_R   0.126821 0.491414 0.229785 -0.051483
C34   C     C_R   0.915116 0.589890 0.905748 -0.156741
C35   C     C_R   0.966119 0.565309 0.814942 -0.212104
C36   C     C_R   0.729251 0.485178 0.815162 -0.226278
Cu1   Cu    Cu3+1 0.140670 0.499980 0.500000 0.937594
Cu2   Cu    Cu3+1 0.859330 0.500020 0.500000 0.938177
H1    H     H_    0.994388 0.424466 0.054111 0.180039
H2    H     H_    0.764478 0.109739 0.514602 0.165323
H3    H     H_    0.766156 0.885313 0.513905 0.160963
H4    H     H_    0.341503 0.898474 0.506613 0.196051
H5    H     H_    0.284851 0.898890 0.399361 0.198327
H6    H     H_    0.337604 0.117815 0.508686 0.196607
H7    H     H_    0.282142 0.119096 0.401641 0.201479
H8    H     H_    0.571157 0.418482 0.628462 0.134498
H9    H     H_    0.312193 0.419668 0.628664 0.136667
H10   H     H_    0.462177 0.648881 0.310192 0.182225
H11   H     H_    0.348070 0.521349 0.224591 0.144997
H12   H     H_    0.414204 0.726453 0.421027 0.215866
H13   H     H_    0.712683 0.647375 0.310719 0.186731
H14   H     H_    0.663891 0.728800 0.420749 0.213059
H15   H     H_    0.912329 0.451774 0.214997 0.147474
H16   H     H_    0.990898 0.628938 0.939165 0.179003
H17   H     H_    0.077532 0.589149 0.780088 0.146850
H18   H     H_    0.665109 0.439482 0.777483 0.135893
H19   H     H_    0.537203 0.607417 0.155042 0.138335
H20   H     H_    0.447715 0.437523 0.836245 0.133786
N1    N     N_R   0.648210 0.500930 0.499430 -0.183408
N2    N     N_R   0.352300 0.500890 0.499430 -0.183313
O1    O     O_R   0.118810 0.319640 0.500000 -0.578018
O2    O     O_R   0.881230 0.319680 0.499990 -0.585445
O3    O     O_R   0.055580 0.499970 0.629840 -0.591228
O4    O     O_R   0.818000 0.500010 0.629830 -0.589187
O5    O     O_R   0.118770 0.680320 0.500010 -0.576223
O6    O     O_R   0.881190 0.680360 0.500000 -0.582859
O7    O     O_R   0.182000 0.499990 0.370170 -0.585568
O8    O     O_R   0.944420 0.500030 0.370160 -0.582613
N3    N     N_2   0.808651 0.655741 0.088742 -0.442501
H21   H     H_    0.788689 0.626011 0.154066 0.246780
C37   C     C_3   0.815974 0.788845 0.081768 -0.699449
H22   H     H_    0.896682 0.824595 0.115439 0.230516
H23   H     H_    0.708098 0.828792 0.114648 0.227502
H24   H     H_    0.850700 0.818529 0.010523 0.234769
N4    N     N_2   0.175840 0.393019 0.902710 -0.438406
H25   H     H_    0.203426 0.422089 0.836889 0.247790
C38   C     C_3   0.149151 0.261271 0.910009 -0.702105
H26   H     H_    0.066565 0.236007 0.874579 0.231116
H27   H     H_    0.107075 0.232486 0.981137 0.235032
H28   H     H_    0.251108 0.210991 0.879063 0.223972

loop_
_geom_bond_atom_site_label_1
_geom_bond_atom_site_label_2
_ccdc_geom_bond_type
C8    C9    A    
C30   H13   S    
C16   C21   A    
C19   C20   A    
C4    C8    A    
C1    O2    A    
C14   C33   A    
C38   H26   S    
C25   C28   A    
C31   O7    A    
C26   C27   A    
C29   C30   S    
C24   H7    S    
C32   C36   A    
C23   O6    A    
C28   C29   S    
C5    C11   A    
C3    C7    A    
C27   N2    A    
C5    C6    A    
C12   O4    A    
C27   H9    S    
C34   C35   A    
N3    C37   S    
C18   H2    S    
C8    H20   S    
C11   C15   A    
Cu2   O6    S    
C16   C17   A    
Cu1   O5    S    
C31   C33   S    
C26   N1    A    
C38   H27   S    
C16   C24   S    
C21   C22   S    
C12   C32   S    
C6    H19   S    
Cu1   O3    S    
Cu2   O4    S    
C29   H12   S    
C28   N2    A    
C31   O8    A    
C29   H10   S    
C35   H17   S    
C32   C35   A    
C37   H23   S    
C12   O3    A    
C18   C19   A    
C3    C34   A    
C2    C4    A    
N4    H25   S    
Cu1   Cu2   S    
C36   H18   S    
C22   H5    S    
C20   C23   S    
C17   C18   A    
N4    C38   S    
Cu2   O8    S    
C34   H16   S    
C24   H6    S    
C22   C24   S    
C9    C10   A    
C38   H28   S    
C2    C36   A    
C25   C30   S    
C30   H14   S    
C4    C5    A    
C10   C13   A    
C1    O1    A    
C7    N3    S    
C37   H24   S    
Cu1   O1    S    
C6    C7    A    
C9    N4    S    
C1    C17   S    
C23   O5    A    
C2    C3    A    
C37   H22   S    
C22   H4    S    
Cu1   O7    S    
C15   H11   S    
N3    H21   S    
C13   H1    S    
Cu1   N2    S    
C10   C11   A    
C26   H8    S    
Cu2   N1    S    
C14   H15   S    
C20   C21   A    
C25   N1    A    
C13   C14   A    
C15   C33   A    
C19   H3    S    
Cu2   O2    S    
