data_mof_unit_6662.cif
_audit_creation_date              2012-12-11T15:16:48-0500
_audit_creation_method            fapswitch 2.2
_symmetry_space_group_name_H-M    P1
_symmetry_Int_Tables_number       1
_space_group_crystal_system       triclinic
_cell_length_a                    8.279854
_cell_length_b                    16.658923
_cell_length_c                    19.06496
_cell_angle_alpha                 95.814811
_cell_angle_beta                  94.412995
_cell_angle_gamma                 93.774705
_cell_volume                      2601.21249147

loop_
_atom_site_label
_atom_site_type_symbol
_atom_type_description
_atom_site_fract_x
_atom_site_fract_y
_atom_site_fract_z
_atom_type_partial_charge
Ba1   Ba    Ba6+2 0.153080 0.539460 0.466290 1.702054
Ba2   Ba    Ba6+2 0.657090 0.460530 0.533660 1.724530
C1    C     C_3   0.339544 0.708126 0.194935 0.301288
C2    C     C_R   0.836037 0.766514 0.519790 -0.105023
C3    C     C_R   0.885742 0.851990 0.530338 0.352542
C4    C     C_3   0.954768 0.764702 0.292487 0.295385
C5    C     C_R   0.777204 0.908279 0.503856 0.207159
C6    C     C_R   0.621214 0.878399 0.473014 -0.239413
C7    C     C_R   0.577534 0.794909 0.460311 0.016373
C8    C     C_R   0.909263 0.159142 0.482950 -0.156044
C9    C     C_R   0.966499 0.241601 0.491183 0.036368
C10   C     C_R   0.005646 0.100807 0.510276 0.271961
C11   C     C_R   0.115260 0.266155 0.528475 -0.303644
C12   C     C_3   0.377424 0.700505 0.274557 0.300166
C13   C     C_R   0.216212 0.209400 0.552241 -0.037995
C14   C     C_R   0.161771 0.126856 0.543495 -0.133392
C15   C     C_R   0.612059 0.531164 0.298219 -0.309711
C16   C     C_3   0.038795 0.836256 0.260729 -0.235779
C17   C     C_R   0.464030 0.488640 0.275979 0.065067
C18   C     C_R   0.410861 0.477185 0.203582 -0.072257
C19   C     C_R   0.507585 0.508277 0.153244 -0.013107
C20   C     C_R   0.659535 0.549045 0.176911 -0.102577
C21   C     C_R   0.711264 0.559551 0.249000 0.029104
C22   C     C_R   0.479091 0.564026 0.035730 -0.066172
C23   C     C_3   0.420409 0.709333 0.635987 0.259087
C24   C     C_R   0.427910 0.556668 0.963667 -0.020448
C25   C     C_R   0.348453 0.484208 0.929885 0.037027
C26   C     C_R   0.319821 0.419519 0.970590 -0.067574
C27   C     C_R   0.370105 0.427163 0.043094 -0.029624
C28   C     C_3   0.790799 0.361366 0.319698 0.288750
C29   C     C_R   0.451038 0.499496 0.076483 0.031274
C30   C     C_R   0.145664 0.435176 0.826092 -0.057617
C31   C     C_R   0.094533 0.430831 0.753903 0.075043
C32   C     C_R   0.339827 0.510426 0.733464 0.006494
C33   C     C_R   0.391964 0.514427 0.805414 -0.122573
C34   C     C_3   0.487116 0.796975 0.641428 -0.279203
C35   C     C_R   0.295632 0.476806 0.852700 -0.013388
C36   C     C_R   0.193681 0.467056 0.707973 -0.211515
C37   C     C_3   0.818079 0.347486 0.241128 0.346100
C38   C     C_3   0.875819 0.710477 0.688747 0.646896
C39   C     C_3   0.882816 0.801096 0.713442 -0.230521
C40   C     C_3   0.287348 0.296742 0.381182 0.311525
C41   C     C_3   0.258012 0.206052 0.360274 -0.332565
C42   C     C_3   0.776030 0.779657 0.301918 -0.214294
C43   C     C_3   0.743529 0.868501 0.320922 -0.367252
C44   C     C_3   0.894225 0.234046 0.680178 0.312206
C45   C     C_3   0.854680 0.147098 0.694680 -0.280386
C46   C     C_3   0.425959 0.282778 0.723671 0.284678
C47   C     C_3   0.458840 0.260507 0.798894 0.308333
C48   C     C_R   0.685085 0.740645 0.483822 -0.327446
H1    H     H_    0.287662 0.652546 0.286654 0.050495
H2    H     H_    0.378595 0.653802 0.164535 -0.031892
H3    H     H_    0.153920 0.193605 0.319383 0.148092
H4    H     H_    0.230554 0.174426 0.406728 0.046457
H5    H     H_    0.368131 0.181906 0.338733 0.163321
H6    H     H_    0.499187 0.678460 0.283140 -0.084979
H7    H     H_    0.448816 0.681003 0.583432 0.028104
H8    H     H_    0.289420 0.707934 0.640376 0.137352
H9    H     H_    0.614190 0.799551 0.629051 -0.005423
H10   H     H_    0.423822 0.828475 0.600308 0.145011
H11   H     H_    0.475077 0.828468 0.694748 0.169745
H12   H     H_    0.946138 0.333690 0.235219 0.036991
H13   H     H_    0.207012 0.706204 0.181891 0.070902
H14   H     H_    0.057300 0.890829 0.299825 0.096745
H15   H     H_    0.828656 0.242640 0.628769 0.072406
H16   H     H_    0.027288 0.243563 0.676795 -0.039762
H17   H     H_    0.721787 0.135101 0.696561 0.162070
H18   H     H_    0.895703 0.105050 0.651926 0.109898
H19   H     H_    0.916707 0.135513 0.745942 0.196412
H20   H     H_    0.295762 0.294177 0.714092 -0.071238
H21   H     H_    0.500973 0.339502 0.719649 0.044486
H22   H     H_    0.458564 0.315622 0.836901 -0.035362
H23   H     H_    0.796455 0.403123 0.215697 -0.050775
H24   H     H_    0.580191 0.236181 0.805277 0.095645
H25   H     H_    0.019322 0.758724 0.344516 0.104917
H26   H     H_    0.794315 0.140253 0.452957 0.120927
H27   H     H_    0.537080 0.920426 0.454764 0.124646
H28   H     H_    0.241380 0.083167 0.561964 0.133389
H29   H     H_    0.649366 0.676535 0.474501 0.080413
H30   H     H_    0.157894 0.329493 0.534380 0.070146
H31   H     H_    0.506885 0.547094 0.824278 0.134272
H32   H     H_    0.448790 0.608434 0.934624 0.118267
H33   H     H_    0.538947 0.620964 0.059804 0.144591
H34   H     H_    0.757491 0.689141 0.660324 -0.033570
H35   H     H_    0.295034 0.444174 0.186808 0.092190
H36   H     H_    0.260884 0.362476 0.946165 0.131359
H37   H     H_    0.348558 0.375915 0.072701 0.122204
H38   H     H_    0.066364 0.408628 0.861467 0.093565
H39   H     H_    0.739230 0.570995 0.139459 0.104681
H40   H     H_    0.153035 0.465032 0.652470 0.064493
H41   H     H_    0.653944 0.538421 0.353824 0.069792
H42   H     H_    0.158935 0.822952 0.244939 0.189681
H43   H     H_    0.967060 0.850071 0.212299 0.139681
H44   H     H_    0.660974 0.368980 0.326169 0.009557
H45   H     H_    0.003369 0.822597 0.740893 0.191995
H46   H     H_    0.864240 0.417790 0.341539 -0.009285
H47   H     H_    0.426395 0.243558 0.171687 0.379254
H48   H     H_    0.157772 0.693211 0.793732 0.330538
H49   H     H_    0.660225 0.826776 0.119970 0.383100
H50   H     H_    0.217824 0.127540 0.717063 0.330715
H51   H     H_    0.304636 0.943608 0.556975 0.340265
H52   H     H_    0.827856 0.895992 0.366156 0.117237
H53   H     H_    0.758181 0.903911 0.275270 0.180900
H54   H     H_    0.616888 0.873019 0.334361 0.190559
H55   H     H_    0.703600 0.757445 0.252113 0.197226
H56   H     H_    0.788254 0.813628 0.750560 0.121966
H57   H     H_    0.734567 0.743374 0.343524 0.039261
H58   H     H_    0.859376 0.836846 0.668989 0.080912
H59   H     H_    0.174835 0.320649 0.399525 -0.013922
H60   H     H_    0.386410 0.307522 0.424425 0.062243
N1    N     N_2   0.815713 0.994915 0.509975 -0.203117
N2    N     N_2   0.958916 0.015697 0.498653 -0.133115
O1    O     O_2   0.121950 0.695970 0.534170 -0.426011
O2    O     O_2   0.755515 0.434807 0.749715 -0.436247
O3    O     O_3   0.843680 0.286885 0.735007 -0.593179
O4    O     O_3   0.871970 0.595810 0.535570 -0.474510
O5    O     O_3   0.435500 0.459820 0.416880 -0.505473
O6    O     O_2   0.630010 0.537400 0.669530 -0.389132
O7    O     O_3   0.487061 0.671043 0.692326 -0.624449
O8    O     O_2   0.552482 0.208637 0.544719 -0.482492
O9    O     O_3   0.469867 0.220525 0.674833 -0.598011
O10   O     O_3   0.356610 0.647930 0.408330 -0.502100
O11   O     O_2   0.235058 0.786547 0.440968 -0.425267
O12   O     O_3   0.330331 0.333021 0.321693 -0.586286
O13   O     O_3   0.003950 0.690900 0.647216 -0.623201
O14   O     O_3   0.365174 0.772853 0.319094 -0.601314
O15   O     O_2   0.180290 0.462550 0.330450 -0.470857
O16   O     O_3   0.940700 0.607800 0.373310 -0.497384
O17   O     O_2   0.035560 0.545611 0.250094 -0.499056
O18   O     O_2   0.727193 0.253362 0.120184 -0.241886
O19   O     O_2   0.706029 0.190381 0.230286 -0.244788
O20   O     O_3   0.492152 0.291017 0.197078 -0.540942
O21   O     O_2   0.751622 0.664888 0.806650 -0.265305
O22   O     O_2   0.931241 0.574832 0.746924 -0.319618
O23   O     O_3   0.965906 0.694703 0.245327 -0.612765
O24   O     O_3   0.061852 0.705103 0.819973 -0.476565
O25   O     O_2   0.321121 0.813434 0.098176 -0.221154
O26   O     O_2   0.449085 0.867528 0.214490 -0.287102
O27   O     O_3   0.611810 0.774384 0.131782 -0.543393
O28   O     O_2   0.360771 0.158121 0.889532 -0.185282
O29   O     O_2   0.149873 0.226268 0.826957 -0.329753
O30   O     O_3   0.282159 0.108284 0.757166 -0.438597
O31   O     O_2   0.037791 0.964144 0.629381 -0.300590
O32   O     O_2   0.143700 0.832286 0.624880 -0.351434
O33   O     O_3   0.208283 0.920555 0.525645 -0.504016
O34   O     O_2   0.688350 0.303980 0.465810 -0.461012
O35   O     O_3   0.938330 0.404180 0.464370 -0.496572
O36   O     O_3   0.453690 0.352060 0.591610 -0.491193
O37   O     O_3   0.838066 0.294176 0.352727 -0.610117
O38   O     O_3   0.374800 0.540170 0.583060 -0.502147
O39   O     O_3   0.869600 0.392190 0.626640 -0.492493
P1    P     P_3+3 0.950430 0.683250 0.555020 1.052532
P2    P     P_3+3 0.353690 0.438260 0.341200 1.007829
P3    P     P_3+3 0.914331 0.603603 0.280708 0.929871
P4    P     P_3+3 0.859870 0.316740 0.444930 1.000544
P5    P     P_3+3 0.891014 0.386638 0.717806 1.036415
P6    P     P_3+3 0.385110 0.752604 0.408503 0.974245
P7    P     P_3+3 0.452829 0.566105 0.671596 1.005810
P8    P     P_3+3 0.422969 0.246579 0.589363 0.952276
S1    S     S_3+6 0.685612 0.266624 0.195628 -0.033180
S2    S     S_3+6 0.901541 0.661098 0.767134 -0.033507
S3    S     S_3+6 0.430226 0.794906 0.160252 -0.065230
S4    S     S_3+6 0.307591 0.187560 0.820104 -0.026897
S5    S     S_3+6 0.071229 0.891621 0.580491 -0.085535

loop_
_geom_bond_atom_site_label_1
_geom_bond_atom_site_label_2
_ccdc_geom_bond_type
Ba2   O38   S    
C12   H6    S    
Ba2   P4    S    
C47   H24   S    
C39   H58   S    
C37   S1    S    
C38   H34   S    
C17   C18   A    
C15   H41   S    
Ba1   O16   S    
O4    P1    S    
C34   H9    S    
C48   H29   S    
O15   P2    D    
Ba2   O6    S    
C31   P5    S    
C40   O12   S    
C4    H25   S    
C42   H55   S    
O28   S4    D    
C19   C29   S    
H51   O33   S    
C24   C25   A    
C15   C21   A    
O23   P3    S    
C23   H7    S    
C44   O3    S    
C26   C27   A    
C33   C35   A    
C40   H59   S    
C22   C24   A    
C32   C33   A    
O17   P3    D    
O3    P5    S    
C42   H57   S    
Ba2   O36   S    
C13   C14   A    
C30   H38   S    
H48   O24   S    
Ba1   P1    S    
O18   S1    D    
Ba1   Ba2   S    
C45   H17   S    
Ba1   O10   S    
C45   H19   S    
C28   H46   S    
C43   H53   S    
C1    S3    S    
Ba2   O4    S    
C41   H3    S    
O34   P4    D    
C10   C14   A    
C6    C7    A    
C47   H22   S    
C28   C37   S    
O8    P8    D    
Ba1   O4    S    
O35   P4    S    
O16   P3    S    
C11   H30   S    
C24   H32   S    
C4    C42   S    
C19   C20   A    
O32   S5    D    
O1    P1    D    
H49   O27   S    
Ba1   O1    S    
C2    P1    S    
C23   O7    S    
O2    P5    D    
Ba2   O5    S    
O24   S2    S    
C33   H31   S    
C4    C16   S    
C47   S4    S    
C39   H56   S    
C3    S5    S    
C5    C6    A    
C44   H15   S    
C43   H52   S    
C46   O9    S    
C3    C5    A    
C28   O37   S    
O11   P6    D    
Ba2   O35   S    
O39   P5    S    
C2    C48   A    
O36   P8    S    
C13   P8    S    
C4    O23   S    
C43   H54   S    
C41   H4    S    
C12   H1    S    
C7    P6    S    
C18   H35   S    
Ba1   O38   S    
O26   S3    D    
Ba1   O5    S    
C30   C35   A    
Ba1   P2    S    
C1    C12   S    
C8    C10   A    
C32   P7    S    
C41   H5    S    
C46   C47   S    
O29   S4    D    
C1    H13   S    
C11   C13   A    
C26   H36   S    
C6    H27   S    
C17   P2    S    
O6    P7    D    
C40   C41   S    
C46   H21   S    
C34   H11   S    
C45   H18   S    
C10   N2    S    
C42   C43   S    
C23   H8    S    
O14   P6    S    
Ba2   O39   S    
C37   H12   S    
C44   C45   S    
C38   C39   S    
O13   P1    S    
O38   P7    S    
N1    N2    D    
C32   C36   A    
C8    H26   S    
C22   H33   S    
O27   S3    S    
C7    C48   A    
Ba1   O15   S    
H47   O20   S    
C46   H20   S    
C2    C3    A    
C34   H10   S    
O21   S2    D    
O30   S4    S    
C1    H2    S    
C44   H16   S    
O33   S5    S    
C9    P4    S    
Ba2   O34   S    
C36   H40   S    
C31   C36   A    
C12   O14   S    
O22   S2    D    
C16   H42   S    
C30   C31   A    
C40   H60   S    
C22   C29   A    
C38   S2    S    
C27   C29   A    
H50   O30   S    
O25   S3    D    
O5    P2    S    
C9    C11   A    
C16   H14   S    
C39   H45   S    
C25   C35   S    
O7    P7    S    
C38   O13   S    
C15   C17   A    
C20   H39   S    
C5    N1    S    
O31   S5    D    
C14   H28   S    
C37   H23   S    
O37   P4    S    
O19   S1    D    
C27   H37   S    
Ba1   O35   S    
C8    C9    A    
C23   C34   S    
C18   C19   A    
C28   H44   S    
O9    P8    S    
C21   P3    S    
C25   C26   A    
C16   H43   S    
C20   C21   A    
O12   P2    S    
O20   S1    S    
O10   P6    S    
