data_mof_unit_19628.cif
_audit_creation_date              2012-12-10T16:51:31-0500
_audit_creation_method            fapswitch 2.2
_symmetry_space_group_name_H-M    P1
_symmetry_Int_Tables_number       1
_space_group_crystal_system       triclinic
_cell_length_a                    7.81524
_cell_length_b                    8.566547
_cell_length_c                    12.488964
_cell_angle_alpha                 92.606906
_cell_angle_beta                  103.194224
_cell_angle_gamma                 93.722273
_cell_volume                      810.775610078

loop_
_atom_site_label
_atom_site_type_symbol
_atom_type_description
_atom_site_fract_x
_atom_site_fract_y
_atom_site_fract_z
_atom_type_partial_charge
C1    C     C_R   0.044735 0.794632 0.498324 0.947491
C2    C     C_R   0.193033 0.610123 0.819123 -0.143312
C3    C     C_2   0.069433 0.958377 0.500064 -0.395570
C4    C     C_R   0.115595 0.539421 0.706271 0.865574
C5    C     C_2   0.933067 0.042126 0.505413 -0.389202
C6    C     C_R   0.956079 0.205538 0.503320 0.975634
C7    C     C_R   0.888455 0.484390 0.291167 0.863810
C8    C     C_R   0.846222 0.413827 0.987070 -0.232580
C9    C     C_R   0.824023 0.477623 0.172956 -0.107494
C10   C     C_R   0.086550 0.672550 0.883942 -0.212634
C11   C     C_R   0.155677 0.712800 0.995687 -0.111838
C12   C     C_R   0.439288 0.623119 0.979742 0.072858
C13   C     C_R   0.328410 0.682003 0.044880 -0.219841
C14   C     C_R   0.043378 0.285290 0.136089 0.135183
C15   C     C_R   0.198627 0.292582 0.096970 -0.156287
C16   C     C_R   0.326048 0.186120 0.129145 -0.126765
C17   C     C_R   0.297528 0.068298 0.198157 -0.136008
C18   C     C_R   0.141226 0.056438 0.234560 -0.141368
C19   C     C_R   0.014924 0.164681 0.204329 -0.106937
C20   C     C_R   0.376219 0.612584 0.864872 0.099385
C21   C     C_R   0.605604 0.564131 0.022207 0.074133
C22   C     C_R   0.700766 0.499481 0.948850 0.143478
C23   C     C_R   0.650155 0.524124 0.837828 -0.270938
C24   C     C_R   0.498794 0.597429 0.799649 -0.183449
C25   C     C_R   0.675346 0.558745 0.133950 -0.292357
C26   C     C_R   0.905547 0.396022 0.099498 -0.008696
H1    H     H_    0.803981 0.991157 0.510031 0.178266
H2    H     H_    0.474757 0.637370 0.718266 0.164422
H3    H     H_    0.198690 0.009439 0.495862 0.180630
H4    H     H_    0.220516 0.379595 0.040848 0.151145
H5    H     H_    0.445993 0.193978 0.099527 0.142489
H6    H     H_    0.395507 0.985025 0.222289 0.124909
H7    H     H_    0.117301 0.962272 0.285280 0.134622
H8    H     H_    0.893836 0.152825 0.232564 0.097716
H9    H     H_    0.470921 0.363258 0.428449 0.198746
H10   H     H_    0.529371 0.645016 0.561425 0.171767
H11   H     H_    0.727304 0.487984 0.780957 0.190650
H12   H     H_    0.910021 0.357325 0.928812 0.148284
H13   H     H_    0.615603 0.617885 0.192401 0.167225
H14   H     H_    0.950747 0.690883 0.848275 0.165456
H15   H     H_    0.369506 0.702838 0.133051 0.133608
H16   H     H_    0.072035 0.759503 0.045569 0.159326
N1    N     N_2   0.434800 0.456690 0.470850 -0.170878
N2    N     N_2   0.565200 0.543310 0.529150 -0.185360
O1    O     O_R   0.893060 0.738880 0.507150 -0.614956
O2    O     O_R   0.172250 0.711130 0.488470 -0.642180
O3    O     O_R   0.944700 0.520730 0.667600 -0.629983
O4    O     O_R   0.223890 0.492980 0.648920 -0.616028
O5    O     O_R   0.827750 0.288870 0.511530 -0.626791
O6    O     O_R   0.106940 0.261120 0.492850 -0.602496
O7    O     O_R   0.776110 0.507020 0.351080 -0.624371
O8    O     O_R   0.055300 0.479270 0.332400 -0.603011
Zn1   Zn    Zn3+2 0.813580 0.518530 0.512470 0.922932
Zn2   Zn    Zn3+2 0.186420 0.481470 0.487530 0.941592

loop_
_geom_bond_atom_site_label_1
_geom_bond_atom_site_label_2
_ccdc_geom_bond_type
C7    O8    A    
C2    C4    S    
N1    N2    D    
C19   H8    S    
C8    C26   A    
C25   H13   S    
N1    Zn2   S    
C8    C22   A    
O2    Zn2   S    
O3    Zn1   S    
C12   C20   A    
C13   H15   S    
C17   C18   A    
N2    Zn1   S    
C9    C25   A    
C5    H1    S    
C21   C22   A    
C14   C26   S    
C16   H5    S    
O4    Zn2   S    
C11   C13   A    
C1    O1    A    
O6    Zn2   S    
C8    H12   S    
C11   H16   S    
O5    Zn1   S    
C14   C19   A    
O8    Zn2   S    
C9    C26   A    
O7    Zn1   S    
C22   C23   A    
C6    O5    A    
C5    C6    S    
C18   H7    S    
C1    O2    A    
H10   N2    S    
C10   C11   A    
C23   C24   A    
C7    O7    A    
C15   C16   A    
C2    C10   A    
C24   H2    S    
C3    H3    S    
H9    N1    S    
C12   C13   A    
C15   H4    S    
C10   H14   S    
C18   C19   A    
C4    O4    A    
C7    C9    S    
C17   H6    S    
C21   C25   A    
C14   C15   A    
C3    C5    D    
C23   H11   S    
C2    C20   A    
C12   C21   A    
O1    Zn1   S    
C6    O6    A    
C20   C24   A    
C16   C17   A    
C1    C3    S    
C4    O3    A    
