data_mof_unit_54632.cif
_audit_creation_date              2013-03-05T15:40:16-0500
_audit_creation_method            fapswitch 2.2
_symmetry_space_group_name_H-M    P1
_symmetry_Int_Tables_number       1
_space_group_crystal_system       triclinic
_cell_length_a                    28.199775
_cell_length_b                    18.482122
_cell_length_c                    17.078428
_cell_angle_alpha                 89.358465
_cell_angle_beta                  60.645346
_cell_angle_gamma                 89.263448
_cell_volume                      7757.48383753

loop_
_atom_site_label
_atom_site_type_symbol
_atom_site_description
_atom_site_fract_x
_atom_site_fract_y
_atom_site_fract_z
_atom_type_partial_charge
O1    O     O_R   0.746490 0.236330 0.638080 -0.616258
O2    O     O_R   0.253510 0.763670 0.361920 -0.596500
O3    O     O_R   0.253510 0.236330 0.361920 -0.616050
O4    O     O_R   0.746490 0.763670 0.638080 -0.627830
O5    O     O_R   0.246490 0.736330 0.638080 -0.600057
O6    O     O_R   0.753510 0.263670 0.361920 -0.616265
O7    O     O_R   0.753510 0.736330 0.361920 -0.611966
O8    O     O_R   0.246490 0.263670 0.638080 -0.615973
O9    O     O_R   0.674170 0.186160 0.516270 -0.651279
O10   O     O_R   0.325830 0.813840 0.483730 -0.615512
O11   O     O_R   0.325830 0.186160 0.483730 -0.623143
O12   O     O_R   0.674170 0.813840 0.516270 -0.614075
O13   O     O_R   0.174170 0.686160 0.516270 -0.618631
O14   O     O_R   0.825830 0.313840 0.483730 -0.646118
O15   O     O_R   0.825830 0.686160 0.483730 -0.657179
O16   O     O_R   0.174170 0.313840 0.516270 -0.626306
O17   O     O_R   0.739960 0.127620 0.525000 -0.563209
O18   O     O_R   0.260040 0.872380 0.475000 -0.561561
O19   O     O_R   0.260040 0.127620 0.475000 -0.550765
O20   O     O_R   0.739960 0.872380 0.525000 -0.561678
O21   O     O_R   0.239960 0.627620 0.525000 -0.560296
O22   O     O_R   0.760040 0.372380 0.475000 -0.563905
O23   O     O_R   0.760040 0.627620 0.475000 -0.553883
O24   O     O_R   0.239960 0.372380 0.525000 -0.555466
O25   O     O_R   0.680700 0.294870 0.629350 -0.632573
O26   O     O_R   0.319300 0.705130 0.370650 -0.632753
O27   O     O_R   0.319300 0.294870 0.370650 -0.622782
O28   O     O_R   0.680700 0.705130 0.629350 -0.619090
O29   O     O_R   0.180700 0.794870 0.629350 -0.634888
O30   O     O_R   0.819300 0.205130 0.370650 -0.629351
O31   O     O_R   0.819300 0.794870 0.370650 -0.629829
O32   O     O_R   0.180700 0.205130 0.629350 -0.621032
C1    C     C_R   0.701748 0.268574 0.676001 0.890455
C2    C     C_R   0.298348 0.731623 0.323954 0.876847
C3    C     C_R   0.296892 0.272018 0.325175 0.873059
C4    C     C_R   0.701788 0.731309 0.675732 0.877324
C5    C     C_R   0.201615 0.768306 0.676061 0.875466
C6    C     C_R   0.798252 0.231425 0.324002 0.892694
C7    C     C_R   0.798204 0.768706 0.324273 0.881188
C8    C     C_R   0.200590 0.233737 0.676177 0.863780
C9    C     C_R   0.695482 0.127653 0.521246 0.915526
C10   C     C_R   0.308710 0.870819 0.464721 0.892537
C11   C     C_R   0.309491 0.129854 0.462258 0.888648
C12   C     C_R   0.690822 0.870300 0.535865 0.895927
C13   C     C_R   0.191454 0.629069 0.534491 0.899757
C14   C     C_R   0.804557 0.372364 0.478415 0.918533
C15   C     C_R   0.809259 0.629798 0.463591 0.896296
C16   C     C_R   0.190533 0.370170 0.537562 0.877651
Zn1   Zn    Zn3+2 0.792340 0.208750 0.507670 1.055583
Zn2   Zn    Zn3+2 0.207660 0.791250 0.492330 1.107520
Zn3   Zn    Zn3+2 0.207660 0.208750 0.492330 1.117290
Zn4   Zn    Zn3+2 0.792340 0.791250 0.507670 1.036933
Zn5   Zn    Zn3+2 0.292340 0.708750 0.507670 1.116907
Zn6   Zn    Zn3+2 0.707660 0.291250 0.492330 1.050938
Zn7   Zn    Zn3+2 0.707660 0.708750 0.492330 1.119959
Zn8   Zn    Zn3+2 0.292340 0.291250 0.507670 1.113303
C17   C     C_R   0.574675 0.121751 0.431476 0.064172
C18   C     C_R   0.456990 0.867978 0.480356 0.066340
C19   C     C_R   0.477418 0.127406 0.420184 0.072489
C20   C     C_R   0.538400 0.869723 0.530386 0.073018
C21   C     C_R   0.046877 0.630456 0.507500 0.062875
C22   C     C_R   0.926088 0.378726 0.565575 0.066847
C23   C     C_R   0.967153 0.627678 0.453858 0.069217
C24   C     C_R   0.023266 0.372652 0.576894 0.074849
C25   C     C_R   0.560740 0.185664 0.399645 -0.049480
C26   C     C_R   0.471763 0.802639 0.507805 -0.069617
C27   C     C_R   0.510580 0.189786 0.399051 -0.045035
C28   C     C_R   0.512483 0.803591 0.533373 -0.058620
C29   C     C_R   0.034501 0.694737 0.474587 -0.081531
C30   C     C_R   0.939426 0.315167 0.598892 -0.047389
C31   C     C_R   0.996025 0.692528 0.444228 -0.069183
C32   C     C_R   0.989549 0.310751 0.599517 -0.043843
C33   C     C_R   0.493826 0.062749 0.445278 0.007134
C34   C     C_R   0.524589 0.933585 0.499680 0.006131
C35   C     C_R   0.540528 0.061104 0.455630 0.015252
C36   C     C_R   0.481777 0.933432 0.479873 0.010346
C37   C     C_R   0.979412 0.564651 0.488438 0.016309
C38   C     C_R   0.007756 0.436814 0.549317 0.009040
C39   C     C_R   0.021751 0.565076 0.509321 0.014944
C40   C     C_R   0.961108 0.438572 0.538877 0.015993
C41   C     C_R   0.948530 0.501449 0.504195 0.003622
C42   C     C_R   0.037624 0.500584 0.535849 0.003569
C43   C     C_R   0.464572 0.998610 0.456970 0.003357
C44   C     C_R   0.553911 0.997698 0.488083 0.002636
C45   C     C_R   0.871457 0.440356 0.506934 -0.007466
C46   C     C_R   0.108456 0.565965 0.548041 0.004041
C47   C     C_R   0.103965 0.435013 0.563537 -0.006247
C48   C     C_R   0.891091 0.564418 0.454277 -0.003291
C49   C     C_R   0.392890 0.933725 0.446665 -0.003422
C50   C     C_R   0.629290 0.059878 0.490192 -0.006569
C51   C     C_R   0.610204 0.935199 0.540577 -0.013914
C52   C     C_R   0.396628 0.064894 0.433922 -0.007670
C53   C     C_R   0.832398 0.438416 0.476053 -0.234397
C54   C     C_R   0.156890 0.564914 0.555837 -0.230913
C55   C     C_R   0.154885 0.434831 0.562818 -0.215228
C56   C     C_R   0.843535 0.564942 0.445241 -0.201139
C57   C     C_R   0.343513 0.934982 0.441895 -0.231803
C58   C     C_R   0.667696 0.061723 0.522662 -0.234860
C59   C     C_R   0.656649 0.935076 0.552798 -0.208130
C60   C     C_R   0.345199 0.065173 0.436271 -0.221764
C61   C     C_R   0.821644 0.500308 0.439553 0.232860
C62   C     C_R   0.176150 0.499733 0.572199 0.235837
C63   C     C_R   0.323692 0.000310 0.427149 0.237039
C64   C     C_R   0.678004 0.999777 0.559623 0.233530
C65   C     C_R   0.904257 0.501697 0.487247 0.079987
C66   C     C_R   0.083577 0.500386 0.548740 0.070541
C67   C     C_R   0.417843 0.999200 0.446173 0.070959
C68   C     C_R   0.597390 0.997888 0.507148 0.075584
C69   C     C_R   0.071290 0.372905 0.583782 -0.119883
C70   C     C_R   0.924863 0.625061 0.432869 -0.136015
C71   C     C_R   0.879540 0.383130 0.555159 -0.173848
C72   C     C_R   0.082754 0.630336 0.541741 -0.106433
C73   C     C_R   0.577337 0.873931 0.558721 -0.110322
C74   C     C_R   0.429041 0.127239 0.414326 -0.124120
C75   C     C_R   0.419453 0.869113 0.449358 -0.104648
C76   C     C_R   0.620914 0.117719 0.442949 -0.178708
H1    H     H_    0.081193 0.326502 0.611881 0.203877
H2    H     H_    0.918105 0.670322 0.399232 0.209811
H3    H     H_    0.849272 0.342143 0.585976 0.215703
H4    H     H_    0.087131 0.680885 0.567971 0.196005
H5    H     H_    0.581290 0.829917 0.597215 0.202634
H6    H     H_    0.418563 0.174093 0.387759 0.205554
H7    H     H_    0.414083 0.819397 0.422649 0.200535
H8    H     H_    0.650520 0.159661 0.414015 0.217452
C77   C     C_R   0.720055 0.260623 0.953760 -0.092013
C78   C     C_R   0.280048 0.739499 0.046048 -0.074282
C79   C     C_R   0.273383 0.282664 0.051617 -0.064391
C80   C     C_R   0.719449 0.737813 0.954799 -0.075512
C81   C     C_R   0.219594 0.759649 0.954201 -0.073970
C82   C     C_R   0.779905 0.239364 0.046309 -0.091670
C83   C     C_R   0.780416 0.762399 0.045336 -0.076410
C84   C     C_R   0.210906 0.249499 0.964757 -0.046168
C85   C     C_R   0.774604 0.282168 0.915123 -0.256500
C86   C     C_R   0.224370 0.723060 0.087987 -0.258813
C87   C     C_R   0.232638 0.229788 0.085749 -0.254797
C88   C     C_R   0.775825 0.724012 0.912449 -0.287316
C89   C     C_R   0.275290 0.776019 0.912237 -0.273459
C90   C     C_R   0.725342 0.217863 0.084979 -0.256098
C91   C     C_R   0.724042 0.776209 0.087692 -0.282580
C92   C     C_R   0.250752 0.304252 0.931772 -0.248500
H9    H     H_    0.793133 0.309595 0.850639 0.226251
H10   H     H_    0.204923 0.700078 0.155116 0.203043
H11   H     H_    0.224831 0.198546 0.144574 0.195998
H12   H     H_    0.795904 0.701494 0.845404 0.193020
H13   H     H_    0.294764 0.798994 0.845105 0.198094
H14   H     H_    0.706788 0.190498 0.149510 0.225159
H15   H     H_    0.703975 0.798726 0.154737 0.196282
H16   H     H_    0.257954 0.336049 0.873785 0.195580
C93   C     C_R   0.804782 0.272525 0.960219 0.336042
C94   C     C_R   0.193937 0.731997 0.043257 0.329590
C95   C     C_R   0.197521 0.219962 0.050688 0.319043
C96   C     C_R   0.806447 0.735134 0.956404 0.341696
C97   C     C_R   0.305724 0.767021 0.956942 0.340931
C98   C     C_R   0.695170 0.227498 0.039870 0.337139
C99   C     C_R   0.693412 0.765092 0.043739 0.340863
C100  C     C_R   0.278895 0.324475 0.977216 0.325181
C101  C     C_R   0.643068 0.324054 0.946721 -0.124397
C102  C     C_R   0.356721 0.675524 0.053631 -0.088508
C103  C     C_R   0.359161 0.324678 0.052130 -0.106369
C104  C     C_R   0.643203 0.673665 0.946536 -0.112263
C105  C     C_R   0.142981 0.823903 0.946627 -0.114710
C106  C     C_R   0.856912 0.175928 0.053302 -0.125090
C107  C     C_R   0.856718 0.826455 0.053536 -0.113386
C108  C     C_R   0.146223 0.168567 0.940219 -0.121415
H17   H     H_    0.629754 0.344036 0.013823 0.157775
H18   H     H_    0.369718 0.654848 0.986939 0.170654
H19   H     H_    0.377849 0.336732 0.981164 0.175125
H20   H     H_    0.630017 0.652653 0.013501 0.161984
H21   H     H_    0.129929 0.844438 0.013400 0.167019
H22   H     H_    0.870222 0.155949 0.986200 0.157462
H23   H     H_    0.869889 0.847494 0.986587 0.161448
H24   H     H_    0.139493 0.135152 0.996320 0.190676
C109  C     C_R   0.616200 0.346071 0.899028 -0.078992
C110  C     C_R   0.383723 0.653783 0.101149 -0.087678
C111  C     C_R   0.386103 0.344444 0.099841 -0.090597
C112  C     C_R   0.616439 0.652881 0.898531 -0.081869
C113  C     C_R   0.116127 0.845966 0.898970 -0.080215
C114  C     C_R   0.883803 0.153935 0.100969 -0.082562
C115  C     C_R   0.883532 0.847158 0.101492 -0.083766
C116  C     C_R   0.117577 0.150857 0.895199 -0.096519
C117  C     C_R   0.632912 0.321648 0.813733 -0.245123
C118  C     C_R   0.367230 0.678568 0.186223 -0.235758
C119  C     C_R   0.367781 0.321495 0.186392 -0.241605
C120  C     C_R   0.633093 0.678240 0.813397 -0.240244
C121  C     C_R   0.132690 0.821330 0.813805 -0.234625
C122  C     C_R   0.867095 0.178363 0.186262 -0.232504
C123  C     C_R   0.866902 0.821754 0.186600 -0.228071
C124  C     C_R   0.131064 0.180776 0.813366 -0.233179
H25   H     H_    0.611911 0.339123 0.777851 0.184871
H26   H     H_    0.388256 0.661131 0.222079 0.186322
H27   H     H_    0.390325 0.334000 0.220846 0.188763
H28   H     H_    0.612300 0.661627 0.777436 0.187758
H29   H     H_    0.111786 0.839004 0.777838 0.185899
H30   H     H_    0.888111 0.160912 0.222130 0.189181
H31   H     H_    0.887739 0.838290 0.222520 0.192855
H32   H     H_    0.110239 0.164118 0.777483 0.189878
C125  C     C_R   0.679391 0.280638 0.771130 -0.067011
C126  C     C_R   0.320845 0.719778 0.228736 -0.060292
C127  C     C_R   0.318179 0.288648 0.231342 -0.051764
C128  C     C_R   0.679224 0.719000 0.771089 -0.054402
C129  C     C_R   0.179011 0.779983 0.771340 -0.063585
C130  C     C_R   0.820606 0.219353 0.228880 -0.069112
C131  C     C_R   0.820743 0.781049 0.228936 -0.057753
C132  C     C_R   0.175806 0.224252 0.772678 -0.056225
C133  C     C_R   0.707510 0.257961 0.817099 -0.131054
C134  C     C_R   0.292838 0.742673 0.182658 -0.144968
C135  C     C_R   0.286522 0.277857 0.189035 -0.162864
C136  C     C_R   0.706860 0.741017 0.817463 -0.151715
C137  C     C_R   0.206867 0.756790 0.817542 -0.142045
C138  C     C_R   0.792471 0.242010 0.182935 -0.130368
C139  C     C_R   0.793054 0.759122 0.182616 -0.148345
C140  C     C_R   0.200622 0.250361 0.821881 -0.155531
H33   H     H_    0.744319 0.225572 0.783447 0.203550
H34   H     H_    0.256128 0.775294 0.216308 0.182427
H35   H     H_    0.245386 0.258769 0.229102 0.166746
H36   H     H_    0.743216 0.773555 0.783815 0.169864
H37   H     H_    0.243526 0.724070 0.783921 0.182234
H38   H     H_    0.755659 0.274390 0.216596 0.204564
H39   H     H_    0.756677 0.726624 0.216286 0.175080
H40   H     H_    0.234542 0.286471 0.788097 0.165684
C141  C     C_R   0.689014 0.279141 0.906092 0.140487
C142  C     C_R   0.311131 0.721114 0.093794 0.136221
C143  C     C_R   0.306932 0.294671 0.097478 0.127158
C144  C     C_R   0.688635 0.719023 0.906622 0.139427
C145  C     C_R   0.188521 0.778199 0.906473 0.135342
C146  C     C_R   0.810955 0.220826 0.093953 0.140332
C147  C     C_R   0.811256 0.781149 0.093481 0.137769
C148  C     C_R   0.184446 0.224695 0.909975 0.114750
O33   O     O_R   0.062020 0.072840 0.007170 -0.602577
O34   O     O_R   0.937980 0.927160 0.992830 -0.624946
O35   O     O_R   0.937980 0.072840 0.992830 -0.626525
O36   O     O_R   0.062020 0.927160 0.007170 -0.616873
O37   O     O_R   0.562020 0.572840 0.007170 -0.623377
O38   O     O_R   0.437980 0.427160 0.992830 -0.598406
O39   O     O_R   0.437980 0.572840 0.992830 -0.605486
O40   O     O_R   0.562020 0.427160 0.007170 -0.626547
O41   O     O_R   0.947860 0.073950 0.109290 -0.613462
O42   O     O_R   0.052140 0.926050 0.890710 -0.622156
O43   O     O_R   0.052140 0.073950 0.890710 -0.623202
O44   O     O_R   0.947860 0.926050 0.109290 -0.614122
O45   O     O_R   0.447860 0.573950 0.109290 -0.619001
O46   O     O_R   0.552140 0.426050 0.890710 -0.625740
O47   O     O_R   0.552140 0.573950 0.890710 -0.619147
O48   O     O_R   0.447860 0.426050 0.109290 -0.619587
C149  C     C_R   0.075668 0.097253 0.931735 0.914810
C150  C     C_R   0.925836 0.900572 0.066289 0.911708
C151  C     C_R   0.926042 0.099881 0.065720 0.913227
C152  C     C_R   0.074019 0.900196 0.934191 0.909068
C153  C     C_R   0.574158 0.599434 0.933717 0.909376
C154  C     C_R   0.428192 0.397945 0.064214 0.915380
C155  C     C_R   0.425926 0.599719 0.065863 0.928014
C156  C     C_R   0.573980 0.400146 0.934257 0.895300
Zn9   Zn    Zn3+2 0.505960 0.500000 0.080520 0.997064
Zn10  Zn    Zn3+2 0.494040 0.500000 0.919480 1.031850
Zn11  Zn    Zn3+2 0.005960 0.000000 0.080520 1.046235
Zn12  Zn    Zn3+2 0.994040 0.000000 0.919480 0.994039
C157  C     C_2   0.005217 0.241084 0.625689 0.363221
H41   H     H_    0.975261 0.210735 0.683124 0.105776
O49   O     O_2   0.050711 0.215240 0.580586 -0.562904
C158  C     C_2   0.986551 0.758494 0.402871 0.409821
H42   H     H_    0.977277 0.809812 0.437716 0.036278
O50   O     O_2   0.991183 0.756408 0.328002 -0.502090
C159  C     C_2   0.903845 0.250401 0.626722 0.392977
H43   H     H_    0.921185 0.197599 0.600136 0.068079
O51   O     O_2   0.855802 0.254843 0.683060 -0.587765
C160  C     C_2   0.065001 0.762890 0.463498 0.394881
H44   H     H_    0.044146 0.814785 0.478083 0.052129
O52   O     O_2   0.114107 0.761834 0.434587 -0.534723
C161  C     C_2   0.528039 0.734542 0.561083 0.359787
H45   H     H_    0.496771 0.697328 0.605828 0.095579
O53   O     O_2   0.575745 0.717126 0.530765 -0.555628
C162  C     C_2   0.494264 0.259728 0.374582 0.358324
H46   H     H_    0.523861 0.290825 0.317578 0.106829
O54   O     O_2   0.448655 0.284939 0.420640 -0.566253
C163  C     C_2   0.443940 0.733202 0.513138 0.358356
H47   H     H_    0.467133 0.683028 0.492641 0.077456
O55   O     O_2   0.394690 0.730977 0.544164 -0.539553
C164  C     C_2   0.595754 0.250949 0.373238 0.390354
H48   H     H_    0.577927 0.303387 0.400590 0.066839
O56   O     O_2   0.643904 0.247354 0.317211 -0.584947
N1    N     N_R   0.790833 0.498093 0.392814 0.226248
O57   O     O_R   0.737857 0.498512 0.437302 -0.348061
O58   O     O_R   0.815456 0.510680 0.306773 -0.353888
N2    N     N_R   0.214061 0.499292 0.605800 0.225187
O59   O     O_R   0.266326 0.500359 0.551004 -0.340511
O60   O     O_R   0.196267 0.486866 0.690753 -0.364183
N3    N     N_R   0.284985 0.000912 0.395179 0.226497
O61   O     O_R   0.232875 0.999750 0.451136 -0.343077
O62   O     O_R   0.301953 0.012811 0.310372 -0.365498
N4    N     N_R   0.707803 0.002040 0.608058 0.225315
O63   O     O_R   0.760789 0.001451 0.565130 -0.353093
O64   O     O_R   0.682214 0.989807 0.694188 -0.362001
N5    N     N_R   0.640254 0.201113 0.081132 0.205568
O65   O     O_R   0.611302 0.196302 0.168185 -0.398516
O66   O     O_R   0.621096 0.173967 0.032398 -0.354527
N6    N     N_R   0.361855 0.788645 0.912018 0.201738
O67   O     O_R   0.382612 0.819092 0.956588 -0.358985
O68   O     O_R   0.390590 0.785976 0.824822 -0.393640
N7    N     N_R   0.308863 0.390860 0.951070 0.193741
O69   O     O_R   0.301341 0.438561 0.011684 -0.371575
O70   O     O_R   0.336558 0.408926 0.866607 -0.379213
N8    N     N_R   0.636624 0.784726 0.089213 0.202695
O71   O     O_R   0.614720 0.814809 0.045179 -0.348710
O72   O     O_R   0.608318 0.781151 0.176439 -0.388967
N9    N     N_R   0.137853 0.710148 0.088090 0.210312
O73   O     O_R   0.109299 0.711819 0.175351 -0.334557
O74   O     O_R   0.117048 0.680221 0.043285 -0.336261
N10   N     N_R   0.859685 0.298968 0.918983 0.206195
O75   O     O_R   0.878860 0.325982 0.967757 -0.347949
O76   O     O_R   0.888578 0.304036 0.831948 -0.398741
N11   N     N_R   0.863234 0.715533 0.910930 0.203026
O77   O     O_R   0.891619 0.719544 0.823730 -0.398402
O78   O     O_R   0.885088 0.685162 0.954888 -0.343751
N12   N     N_R   0.145039 0.190399 0.110559 0.185015
O79   O     O_R   0.101341 0.225796 0.124807 -0.360306
O80   O     O_R   0.140570 0.135378 0.161915 -0.381651

loop_
_geom_bond_atom_site_label_1
_geom_bond_atom_site_label_2
_geom_bond_distance
_ccdc_geom_bond_type
O4    C4    1.255527 A    
O5    C5    1.247387 A    
C126  C134  1.419662 A    
O7    Zn7   2.014991 S    
O31   Zn4   2.076540 S    
C80   C144  1.505936 S    
C102  H18   1.083771 S    
N2    O59   1.302492 A    
C12   C59   1.466418 S    
O30   C6    1.292542 A    
C159  O51   1.220177 D    
O20   C12   1.305824 A    
C102  C110  1.410865 A    
C162  H46   1.085301 S    
C95   N12   1.434920 S    
N3    O62   1.300462 A    
C50   C76   1.417972 A    
O40   Zn9   1.980464 S    
C19   C33   1.412266 A    
O34   C150  1.225547 A    
C55   C62   1.393232 A    
O2    C2    1.247208 A    
C128  C136  1.421513 A    
C33   C35   1.412011 A    
C70   H2    1.076367 S    
C26   C163  1.491334 S    
O6    Zn6   2.019195 S    
C107  C147  1.402659 A    
C36   C43   1.414224 A    
O33   Zn11  1.989004 S    
C17   C76   1.411311 A    
N8    O72   1.301531 A    
C37   C39   1.403753 A    
C109  C156  1.434870 S    
C75   H7    1.075173 S    
O37   C153  1.225549 A    
C118  H26   1.084942 S    
C10   C57   1.471728 S    
C53   C61   1.396244 A    
C72   H4    1.074846 S    
C111  C154  1.437125 S    
C140  H40   1.077020 S    
O27   C3    1.294682 A    
N12   O79   1.301770 A    
C38   C42   1.407452 A    
C132  C140  1.422325 A    
C89   C97   1.408218 A    
O35   Zn12  1.980462 S    
C63   N3    1.439989 S    
C57   C63   1.395529 A    
C92   C100  1.410633 A    
C27   C162  1.489459 S    
N6    O67   1.301373 A    
C104  C144  1.402648 A    
O30   Zn1   2.077598 S    
C23   C31   1.419834 A    
C161  O53   1.221132 D    
O17   Zn1   2.033760 S    
C82   C90   1.405390 A    
C111  C119  1.369172 A    
C112  C120  1.369367 A    
O35   C151  1.229429 A    
O39   Zn10  1.980462 S    
C79   C100  1.422447 A    
O23   Zn7   2.010515 S    
O24   Zn8   2.010515 S    
O9    C9    1.252590 A    
C137  H37   1.083432 S    
C80   C88   1.407811 A    
N1    O57   1.302355 A    
O12   C12   1.263279 A    
O13   C13   1.255355 A    
C94   N9    1.439750 S    
C103  H19   1.080290 S    
C104  H20   1.083455 S    
C114  C122  1.372618 A    
C81   C89   1.405603 A    
C78   C86   1.405481 A    
C6    C130  1.444558 S    
O42   Zn12  1.990482 S    
C25   C164  1.488640 S    
O7    C7    1.255484 A    
O9    Zn6   2.117159 S    
O8    C8    1.260729 A    
C33   C43   1.408539 A    
O11   Zn8   2.103237 S    
C49   C75   1.413784 A    
C135  C143  1.408618 A    
O45   C155  1.262446 A    
O16   Zn3   2.103237 S    
C117  C125  1.368796 A    
C110  C118  1.372593 A    
C3    C127  1.439958 S    
O22   Zn6   2.033760 S    
C122  C130  1.368816 A    
C34   C36   1.404433 A    
C22   C40   1.407805 A    
O18   C10   1.295457 A    
C38   C40   1.411390 A    
C110  C155  1.434478 S    
C113  C152  1.434938 S    
C21   C39   1.400964 A    
O41   C151  1.263013 A    
C71   H3    1.070823 S    
C157  H41   1.085285 S    
O2    Zn2   2.019195 S    
C19   C27   1.421799 A    
C45   C53   1.436525 A    
C22   C71   1.409676 A    
C8    C132  1.450087 S    
C120  C128  1.368694 A    
C47   C55   1.429911 A    
O6    C6    1.246884 A    
C91   C99   1.412622 A    
O38   Zn10  1.989004 S    
O33   C149  1.231568 A    
C87   H11   1.079173 S    
C32   C157  1.489629 S    
C101  C141  1.397527 A    
C138  C146  1.402089 A    
C131  C139  1.421495 A    
C46   C66   1.405227 A    
O36   Zn11  1.980464 S    
O40   C156  1.229421 A    
C129  C137  1.419480 A    
C106  C146  1.397580 A    
N10   O76   1.301348 A    
O21   C13   1.296067 A    
C41   C65   1.413032 A    
O23   C15   1.304674 A    
O24   C16   1.303279 A    
C101  H17   1.083848 S    
C124  C132  1.369081 A    
C82   C146  1.493568 S    
O36   C152  1.229788 A    
N5    O65   1.301412 A    
C2    C126  1.444914 S    
O3    C3    1.258684 A    
C20   C28   1.419740 A    
C160  O52   1.221029 D    
N11   O78   1.301427 A    
C107  C115  1.417941 A    
C108  H24   1.070921 S    
O45   Zn9   1.990480 S    
C77   C98   1.417410 A    
C24   C38   1.412610 A    
C122  H30   1.084933 S    
C34   C44   1.409404 A    
C158  H42   1.084356 S    
C39   C42   1.414002 A    
C77   C141  1.493600 S    
C136  C144  1.404350 A    
C139  H39   1.083284 S    
C61   N1    1.440634 S    
O46   C156  1.263003 A    
C17   C35   1.407741 A    
N2    O60   1.300486 A    
C50   C68   1.403364 A    
C28   C161  1.490177 S    
C48   C65   1.406405 A    
C134  H34   1.083445 S    
C24   C69   1.415696 A    
C134  C142  1.403142 A    
C42   C66   1.416814 A    
C106  C114  1.411720 A    
O12   Zn7   2.103237 S    
C83   C91   1.407816 A    
C109  C117  1.372593 A    
C114  C151  1.434958 S    
C73   H5    1.078854 S    
C162  O54   1.221051 D    
C81   C145  1.495360 S    
C164  H48   1.085172 S    
C51   C59   1.423721 A    
C90   C98   1.408834 A    
C56   C61   1.377624 A    
C21   C72   1.394826 A    
O25   C1    1.292590 A    
C48   C56   1.422988 A    
O47   C153  1.268537 A    
C7    C131  1.444959 S    
O10   C10   1.257149 A    
C100  N7    1.436435 S    
C125  C133  1.419580 A    
C163  H47   1.085091 S    
C69   H1    1.076960 S    
C159  H43   1.085179 S    
O14   C14   1.254018 A    
C89   H13   1.083590 S    
C79   C87   1.405153 A    
O34   Zn12  1.989004 S    
C84   C148  1.531350 S    
C115  C123  1.369360 A    
N12   O80   1.301602 A    
C123  C131  1.368704 A    
C113  C121  1.372711 A    
N4    O63   1.302298 A    
C121  C129  1.368997 A    
O10   Zn5   2.117159 S    
C116  C124  1.367703 A    
C88   C96   1.412475 A    
C117  H25   1.084929 S    
C25   C27   1.420552 A    
C15   C56   1.466605 S    
C120  H28   1.085000 S    
O15   C15   1.264865 A    
C107  H23   1.083454 S    
C108  C116  1.404366 A    
C48   C70   1.404912 A    
C116  C149  1.435551 S    
N6    O68   1.301624 A    
C59   C64   1.377196 A    
C133  H33   1.083018 S    
C161  H45   1.085220 S    
O44   C150  1.268550 A    
O8    Zn8   2.014991 S    
O16   C16   1.270590 A    
C83   C96   1.419201 A    
C137  C145  1.403129 A    
O19   C11   1.302862 A    
C97   N6    1.439657 S    
C18   C36   1.402849 A    
C62   N2    1.439983 S    
C11   C60   1.477434 S    
C29   C160  1.491668 S    
O3    Zn3   2.014991 S    
O27   Zn8   2.076540 S    
O38   C154  1.230109 A    
C60   C63   1.394549 A    
N7    O69   1.301610 A    
O32   Zn3   2.076540 S    
C86   H10   1.083600 S    
N3    O61   1.302558 A    
C106  H22   1.083847 S    
C37   C41   1.408768 A    
C49   C67   1.405500 A    
C135  H35   1.079475 S    
O15   Zn4   2.103237 S    
O25   Zn6   2.077598 S    
O22   C14   1.284967 A    
O48   Zn9   2.011737 S    
N1    O58   1.300638 A    
C112  C153  1.439801 S    
C115  C150  1.439813 S    
O18   Zn2   2.033760 S    
C76   H8    1.070374 S    
C51   C68   1.405570 A    
O41   Zn11  1.990480 S    
C4    C128  1.445082 S    
C17   C25   1.424240 A    
C45   C71   1.416777 A    
C47   C69   1.411448 A    
C84   C92   1.414174 A    
C85   H9    1.083025 S    
O43   C149  1.259566 A    
C88   H12   1.083440 S    
C19   C74   1.416000 A    
C87   C95   1.400239 A    
O13   Zn2   2.117159 S    
C44   C68   1.414511 A    
C35   C44   1.414963 A    
C140  C148  1.418938 A    
C78   C97   1.417983 A    
C83   C147  1.505897 S    
O28   C4    1.301170 A    
N5    O66   1.301338 A    
N9    O73   1.301592 A    
O29   C5    1.292441 A    
O43   Zn12  2.011736 S    
C84   C95   1.427755 A    
C5    C129  1.445034 S    
C101  C109  1.411673 A    
C26   C28   1.414889 A    
N11   O77   1.301688 A    
C98   N5    1.440286 S    
C16   C55   1.476594 S    
C118  C126  1.368907 A    
O39   C155  1.229594 A    
C92   H16   1.077117 S    
O1    C1    1.246874 A    
C14   C53   1.449429 S    
C91   H15   1.083436 S    
O47   Zn10  2.011736 S    
O48   C154  1.266909 A    
O4    Zn4   2.014991 S    
O5    Zn5   2.019195 S    
C163  O55   1.220983 D    
C90   H14   1.083123 S    
C103  C143  1.403454 A    
O14   Zn1   2.117159 S    
C86   C94   1.408446 A    
C133  C141  1.402187 A    
C29   C31   1.414530 A    
C46   C54   1.435675 A    
C80   C99   1.419399 A    
C18   C26   1.420359 A    
C93   N10   1.440358 S    
O31   C7    1.301153 A    
O1    Zn1   2.019195 S    
O11   C11   1.271329 A    
C79   C143  1.514454 S    
O32   C8    1.300234 A    
C102  C142  1.397781 A    
C103  C111  1.412568 A    
C96   N11   1.439053 S    
C104  C112  1.417924 A    
C22   C30   1.424305 A    
C20   C73   1.403492 A    
C130  C138  1.419508 A    
C45   C65   1.402651 A    
C13   C54   1.469876 S    
O28   Zn7   2.076540 S    
O26   C2    1.292528 A    
C105  C145  1.398083 A    
O29   Zn2   2.077598 S    
C64   N4    1.440579 S    
C30   C159  1.488651 S    
C85   C93   1.408820 A    
C158  O50   1.220950 D    
N9    O74   1.301389 A    
C31   C158  1.487964 S    
C119  C127  1.368598 A    
C51   C73   1.405281 A    
C49   C57   1.433993 A    
C157  O49   1.221062 D    
C46   C72   1.415526 A    
C52   C67   1.405073 A    
C1    C125  1.444643 S    
C77   C85   1.405321 A    
C82   C93   1.417427 A    
C127  C135  1.413830 A    
C108  C148  1.405591 A    
N7    O70   1.301392 A    
C18   C75   1.396369 A    
O46   Zn10  1.990482 S    
C164  O56   1.220242 D    
O42   C152  1.262574 A    
O26   Zn5   2.077598 S    
N10   O75   1.301319 A    
C52   C60   1.430967 A    
C23   C37   1.414087 A    
C21   C29   1.419844 A    
N8    O71   1.301354 A    
O44   Zn11  2.011737 S    
C123  H31   1.085016 S    
C121  H29   1.084928 S    
C40   C41   1.416732 A    
C119  H27   1.085056 S    
C30   C32   1.420026 A    
C78   C142  1.495195 S    
O37   Zn9   1.989004 S    
C138  H38   1.083010 S    
C23   C70   1.404995 A    
C105  H21   1.083759 S    
C81   C94   1.418143 A    
O20   Zn4   2.010515 S    
O21   Zn5   2.033760 S    
C47   C66   1.404288 A    
C52   C74   1.411998 A    
C58   C64   1.396042 A    
C99   N8    1.439205 S    
C20   C34   1.412234 A    
C43   C67   1.417193 A    
N4    O64   1.300626 A    
C24   C32   1.421303 A    
O17   C9    1.286911 A    
C160  H44   1.084000 S    
C74   H6    1.076634 S    
O19   Zn3   2.010515 S    
C124  H32   1.084875 S    
C136  H36   1.083275 S    
C9    C58   1.450758 S    
C139  C147  1.404251 A    
C105  C113  1.411065 A    
C50   C58   1.439374 A    
C54   C62   1.395974 A    
