data_mof_unit_62385.cif
_audit_creation_date              2012-10-26T21:25:40-0400
_audit_creation_method            fapswitch 2.2
_symmetry_space_group_name_H-M    P1
_symmetry_Int_Tables_number       1
_space_group_crystal_system       triclinic
_cell_length_a                    16.037724
_cell_length_b                    14.764276
_cell_length_c                    14.367142
_cell_angle_alpha                 90.022258
_cell_angle_beta                  89.978998
_cell_angle_gamma                 90.070183
_cell_volume                      3401.92619211

loop_
_atom_site_label
_atom_site_type_symbol
_atom_type_description
_atom_site_fract_x
_atom_site_fract_y
_atom_site_fract_z
_atom_type_partial_charge
C1    C     C_1   0.252157 0.499823 0.500186 -0.002501
C2    C     C_R   0.659058 0.500054 0.499929 0.550192
C3    C     C_R   0.499994 0.499988 0.330574 0.541092
C4    C     C_R   0.500006 0.500012 0.669426 0.541092
C5    C     C_1   0.500156 0.802612 0.499443 0.198362
C6    C     C_1   0.499844 0.197388 0.500557 0.198362
C7    C     C_1   0.499991 0.499972 0.228401 -0.031252
C8    C     C_1   0.500009 0.500027 0.771599 -0.031252
C9    C     C_1   0.499991 0.499980 0.143124 -0.032414
C10   C     C_1   0.500008 0.500020 0.856876 -0.032414
C11   C     C_1   0.499997 0.499994 0.042638 0.007505
C12   C     C_1   0.747843 0.500177 0.499814 -0.002501
C13   C     C_1   0.500003 0.500006 0.957362 0.007505
C14   C     C_R   0.573251 0.951729 0.522717 0.112416
C15   C     C_R   0.426749 0.048271 0.477283 0.112416
C16   C     C_R   0.427480 0.951495 0.474558 0.113319
C17   C     C_R   0.572520 0.048505 0.525442 0.113319
C18   C     C_R   0.956369 0.575960 0.465803 -0.019584
C19   C     C_R   0.043631 0.424040 0.534196 -0.019584
C20   C     C_R   0.044087 0.575894 0.466061 -0.020332
C21   C     C_R   0.955913 0.424106 0.533939 -0.020332
C22   C     C_3   0.650049 0.128264 0.644306 -0.288845
C23   C     C_R   0.912523 0.500088 0.499793 -0.016220
C24   C     C_3   0.349950 0.871736 0.355695 -0.288845
C25   C     C_3   0.303661 0.127774 0.529717 -0.280828
C26   C     C_3   0.696339 0.872226 0.470284 -0.280828
C27   C     C_1   0.089700 0.653882 0.431340 0.219263
C28   C     C_1   0.910300 0.346118 0.568660 0.219263
C29   C     C_1   0.911259 0.653879 0.430485 0.215617
C30   C     C_1   0.088741 0.346121 0.569515 0.215617
C31   C     C_R   0.087477 0.499912 0.500207 -0.016220
C32   C     C_1   0.822649 0.500203 0.499749 -0.028729
C33   C     C_1   0.177350 0.499797 0.500251 -0.028729
C34   C     C_R   0.500504 0.902967 0.498133 0.010563
C35   C     C_R   0.499496 0.097033 0.501867 0.010563
C36   C     C_R   0.340942 0.499946 0.500071 0.550193
Cu1   Cu    Cu3+1 0.500000 0.589220 0.500000 1.001628
Cu2   Cu    Cu3+1 0.500000 0.410780 0.500000 1.001628
H1    H     H_    0.701068 0.069148 0.526046 0.264960
H2    H     H_    0.278149 0.068831 0.568481 0.144672
H3    H     H_    0.250952 0.169259 0.503577 0.178272
H4    H     H_    0.341284 0.170278 0.577753 0.164926
H5    H     H_    0.681310 0.931503 0.600391 0.260230
H6    H     H_    0.721850 0.931168 0.431518 0.144672
H7    H     H_    0.658717 0.829720 0.422249 0.164926
H8    H     H_    0.749049 0.830742 0.496423 0.178272
H9    H     H_    0.652592 0.069320 0.692259 0.136985
H10   H     H_    0.594946 0.170480 0.661739 0.158699
H11   H     H_    0.706935 0.170040 0.654522 0.175815
H12   H     H_    0.298932 0.930852 0.473954 0.264960
H13   H     H_    0.347407 0.930680 0.307742 0.136985
H14   H     H_    0.293065 0.829959 0.345479 0.175815
H15   H     H_    0.405053 0.829520 0.338261 0.158699
H16   H     H_    0.318690 0.068497 0.399610 0.260230
N1    N     N_1   0.500000 0.276710 0.500000 -0.181622
N2    N     N_1   0.124717 0.284030 0.597724 -0.304472
N3    N     N_1   0.500000 0.723290 0.500000 -0.181622
N4    N     N_2   0.646132 0.097836 0.548661 -0.513741
N5    N     N_2   0.353868 0.902163 0.451339 -0.513741
N6    N     N_2   0.353690 0.097362 0.451955 -0.524184
N7    N     N_2   0.646310 0.902638 0.548045 -0.524184
N8    N     N_1   0.126121 0.716026 0.403697 -0.291606
N9    N     N_1   0.873879 0.283973 0.596303 -0.291606
N10   N     N_1   0.875282 0.715970 0.402276 -0.304472
O1    O     O_R   0.380310 0.575320 0.500020 -0.478930
O2    O     O_R   0.619690 0.424680 0.499980 -0.478930
O3    O     O_R   0.619690 0.575320 0.499980 -0.485054
O4    O     O_R   0.380310 0.424680 0.500020 -0.485054
O5    O     O_R   0.500000 0.575360 0.376050 -0.482585
O6    O     O_R   0.500000 0.424640 0.623950 -0.482585
O7    O     O_R   0.500000 0.575360 0.623950 -0.471619
O8    O     O_R   0.500000 0.424640 0.376050 -0.471619

loop_
_geom_bond_atom_site_label_1
_geom_bond_atom_site_label_2
_ccdc_geom_bond_type
C25   H4    S    
C14   C34   A    
C22   H10   S    
C31   C33   S    
C24   H14   S    
Cu1   Cu2   S    
C20   C27   S    
Cu1   O5    S    
C11   C13   T    
C15   N6    S    
C17   N4    S    
C18   C20   A    
C5    N3    T    
C6    N1    T    
C4    C8    S    
C2    C12   S    
C5    C34   S    
C3    O5    A    
C24   H13   S    
C36   O4    A    
C3    O8    A    
C29   N10   T    
C19   C31   A    
C10   C13   S    
C25   H2    S    
C18   C29   S    
H16   N6    S    
C12   C32   T    
C2    O2    A    
H1    N4    S    
C9    C11   S    
C14   C17   A    
C22   N4    S    
C24   N5    S    
H12   N5    S    
Cu1   O3    S    
C15   C35   A    
Cu2   O6    S    
C27   N8    T    
C26   N7    S    
Cu2   O4    S    
C22   H9    S    
C3    C7    S    
Cu1   O7    S    
C21   C23   A    
C20   C31   A    
Cu2   O8    S    
C4    O6    A    
C15   C16   A    
C26   H8    S    
C26   H6    S    
C18   C23   A    
C28   N9    T    
Cu2   O2    S    
C14   N7    S    
C6    C35   S    
H5    N7    S    
C8    C10   T    
C2    O3    A    
C25   N6    S    
C25   H3    S    
C7    C9    T    
C36   O1    A    
C17   C35   A    
C26   H7    S    
C16   C34   A    
C24   H15   S    
C1    C36   S    
C19   C30   S    
C30   N2    T    
C21   C28   S    
C4    O7    A    
Cu1   N3    S    
Cu2   N1    S    
C1    C33   T    
C23   C32   S    
C22   H11   S    
C19   C21   A    
C16   N5    S    
Cu1   O1    S    
