data_mof_unit_27155.cif
_audit_creation_date              2013-03-05T16:00:58-0500
_audit_creation_method            fapswitch 2.2
_symmetry_space_group_name_H-M    P1
_symmetry_Int_Tables_number       1
_space_group_crystal_system       triclinic
_cell_length_a                    10.653047
_cell_length_b                    14.914577
_cell_length_c                    14.622575
_cell_angle_alpha                 63.930286
_cell_angle_beta                  106.516143
_cell_angle_gamma                 102.592993
_cell_volume                      1989.11197389

loop_
_atom_site_label
_atom_site_type_symbol
_atom_site_description
_atom_site_fract_x
_atom_site_fract_y
_atom_site_fract_z
_atom_type_partial_charge
O1    O     O_R   0.454850 0.022100 0.338110 -0.584860
O2    O     O_R   0.545150 0.977900 0.661890 -0.588598
O3    O     O_R   0.512700 0.160150 0.379180 -0.598323
O4    O     O_R   0.487300 0.839850 0.620820 -0.593130
C1    C     C_R   0.481110 0.119658 0.310361 0.793312
C2    C     C_R   0.522025 0.880269 0.689668 0.785770
O5    O     O_R   0.287930 0.931000 0.479440 -0.614844
O6    O     O_R   0.712070 0.069000 0.520560 -0.616067
O7    O     O_R   0.345780 0.069050 0.520520 -0.537088
O8    O     O_R   0.654220 0.930950 0.479480 -0.541522
C3    C     C_R   0.260742 0.998311 0.503078 0.821470
C4    C     C_R   0.739078 0.001965 0.496573 0.833037
Cu1   Cu    Cu3+1 0.465750 0.918270 0.475680 0.939712
Cu2   Cu    Cu3+1 0.534250 0.081730 0.524320 0.937852
C5    C     C_3   0.020318 0.906698 0.524305 0.148905
C6    C     C_3   0.978937 0.094240 0.474554 0.161175
C7    C     C_3   0.924300 0.968822 0.426876 0.021284
C8    C     C_3   0.075015 0.032300 0.572021 0.019829
C9    C     C_3   0.874977 0.002670 0.494600 -0.038355
C10   C     C_3   0.124599 0.998304 0.504395 -0.043456
C11   C     C_3   0.970197 0.939881 0.593001 -0.315655
C12   C     C_3   0.029308 0.061101 0.405896 -0.294144
H1    H     H_    0.944347 0.889921 0.669426 0.150917
H2    H     H_    0.055053 0.111058 0.329440 0.151642
C13   C     C_R   0.485135 0.187537 0.198937 -0.068321
C14   C     C_R   0.541204 0.811972 0.802922 -0.073196
C15   C     C_R   0.478762 0.226211 0.015960 0.013563
C16   C     C_R   0.568718 0.772414 0.988904 0.027178
C17   C     C_R   0.465123 0.154350 0.117534 0.085516
C18   C     C_R   0.547018 0.843253 0.883116 0.056442
C19   C     C_R   0.513545 0.290341 0.175571 -0.279266
C20   C     C_R   0.547931 0.710790 0.829244 -0.280272
C21   C     C_R   0.539595 0.360915 0.079050 0.054053
C22   C     C_R   0.572327 0.639981 0.932828 0.052859
C23   C     C_R   0.527688 0.328094 0.999035 0.073508
C24   C     C_R   0.591206 0.672243 0.014403 0.077484
C25   C     C_R   0.571571 0.464781 0.059408 0.087519
C26   C     C_R   0.571769 0.536303 0.956578 0.088889
C27   C     C_R   0.576246 0.501908 0.882011 -0.292784
C28   C     C_R   0.610053 0.499205 0.139966 -0.303539
C29   C     C_R   0.563206 0.399672 0.904133 0.009652
C30   C     C_R   0.628941 0.601432 0.118782 0.012715
H3    H     H_    0.529207 0.687408 0.766289 0.168892
H4    H     H_    0.512603 0.315153 0.234300 0.169858
H5    H     H_    0.601214 0.553475 0.808424 0.128279
H6    H     H_    0.636974 0.447604 0.220478 0.135573
N1    N     N_R   0.585750 0.204560 0.560800 -0.213152
N2    N     N_R   0.414250 0.795440 0.439200 -0.212806
C31   C     C_R   0.766564 0.315271 0.607221 -0.236622
C32   C     C_R   0.233612 0.683896 0.394012 -0.247096
C33   C     C_R   0.711683 0.218631 0.615224 0.156561
C34   C     C_R   0.287925 0.780685 0.385694 0.162784
C35   C     C_R   0.503387 0.280529 0.518734 0.334462
C36   C     C_R   0.497097 0.719768 0.480977 0.328720
C37   C     C_R   0.550505 0.373070 0.531373 -0.015704
C38   C     C_R   0.450200 0.626806 0.469102 -0.003849
C39   C     C_R   0.687710 0.393272 0.560430 0.071667
C40   C     C_R   0.312926 0.606220 0.440571 0.080352
C41   C     C_R   0.470558 0.449953 0.508223 0.073740
C42   C     C_R   0.530338 0.549878 0.492447 0.079835
C43   C     C_R   0.666687 0.569746 0.495886 -0.229771
C44   C     C_R   0.334337 0.429830 0.505080 -0.203441
C45   C     C_R   0.745171 0.491847 0.538850 -0.203036
C46   C     C_R   0.255699 0.507550 0.462436 -0.174827
H7    H     H_    0.851275 0.509313 0.550790 0.154387
H8    H     H_    0.149618 0.489895 0.450733 0.146677
H9    H     H_    0.870477 0.329787 0.638543 0.195789
H10   H     H_    0.129550 0.668925 0.363416 0.198056
H11   H     H_    0.714982 0.645124 0.467672 0.174677
H12   H     H_    0.286303 0.354341 0.533145 0.178001
C47   C     C_2   0.847175 0.934520 0.342693 0.347149
H13   H     H_    0.897675 0.906610 0.307463 0.147911
O9    O     O_2   0.728671 0.938469 0.312534 -0.543326
C48   C     C_2   0.148784 0.068073 0.655818 0.344159
H14   H     H_    0.095031 0.076319 0.703863 0.148224
O10   O     O_2   0.267871 0.088607 0.670480 -0.544337
C49   C     C_3   0.629116 0.726861 0.553628 -0.789830
H15   H     H_    0.657532 0.651799 0.611170 0.177559
H16   H     H_    0.706645 0.768138 0.508526 0.240894
H17   H     H_    0.629954 0.762126 0.605059 0.254034
C50   C     C_3   0.372063 0.274492 0.444771 -0.774989
H18   H     H_    0.293233 0.233720 0.488465 0.249914
H19   H     H_    0.344879 0.349977 0.387516 0.188069
H20   H     H_    0.371429 0.239397 0.393272 0.252866
C51   C     C_2   0.204726 0.863998 0.320357 0.345695
H21   H     H_    0.242217 0.940466 0.307637 0.120213
O11   O     O_2   0.091481 0.848302 0.276399 -0.565067
C52   C     C_2   0.793556 0.134628 0.681589 0.354341
H22   H     H_    0.753929 0.057884 0.697516 0.122454
O12   O     O_2   0.908163 0.150189 0.723047 -0.575148
C53   C     C_3   0.042257 0.798678 0.555233 -0.832109
H23   H     H_    0.950243 0.748650 0.571292 0.223034
H24   H     H_    0.070387 0.792363 0.491091 0.247502
H25   H     H_    0.121828 0.775012 0.626371 0.243435
C54   C     C_3   0.956398 0.202185 0.443456 -0.827554
H26   H     H_    0.048294 0.252425 0.427476 0.223902
H27   H     H_    0.876882 0.225653 0.372238 0.239963
H28   H     H_    0.927872 0.208405 0.507506 0.247914
C55   C     C_2   0.600413 0.373111 0.829301 0.405101
H29   H     H_    0.582435 0.422306 0.746907 0.078334
O13   O     O_2   0.659111 0.300019 0.859579 -0.548535
C56   C     C_2   0.700291 0.629146 0.207500 0.408640
H30   H     H_    0.688888 0.579044 0.286100 0.076028
O14   O     O_2   0.778653 0.704559 0.194698 -0.531152
C57   C     C_3   0.519118 0.949029 0.854545 -0.757314
H31   H     H_    0.427632 0.965674 0.793532 0.282172
H32   H     H_    0.501790 0.961689 0.918753 0.195259
H33   H     H_    0.602956 0.003748 0.826267 0.241570
C58   C     C_3   0.422621 0.044549 0.137375 -0.763402
H34   H     H_    0.498314 0.997408 0.198302 0.290765
H35   H     H_    0.326738 0.022033 0.160905 0.227980
H36   H     H_    0.408604 0.026188 0.069554 0.199491
C59   C     C_2   0.425024 0.197608 0.925702 0.442274
H37   H     H_    0.459491 0.135587 0.923273 0.089761
O15   O     O_2   0.341757 0.244353 0.852581 -0.524510
C60   C     C_2   0.551794 0.800404 0.070191 0.421755
H38   H     H_    0.605333 0.868088 0.078617 0.103397
O16   O     O_2   0.476170 0.748373 0.127437 -0.543350

loop_
_geom_bond_atom_site_label_1
_geom_bond_atom_site_label_2
_geom_bond_distance
_ccdc_geom_bond_type
C13   C19   1.398310 A    
C45   H7    1.084144 S    
C14   C20   1.396998 A    
C37   C41   1.440692 A    
C15   C17   1.425312 A    
C8    C11   1.546901 S    
C24   C30   1.423382 A    
C54   H26   1.109396 S    
C50   H18   1.106411 S    
C54   H28   1.108426 S    
C27   C29   1.395927 A    
C49   H15   1.108131 S    
O5    C3    1.303799 A    
C57   H32   1.104899 S    
C48   O10   1.217730 D    
O1    C1    1.314592 A    
C17   C58   1.518154 S    
C34   C51   1.482464 S    
C9    C11   1.541541 S    
C25   C28   1.408710 A    
C58   H35   1.105987 S    
C26   C27   1.409324 A    
C31   C39   1.388140 A    
C60   H38   1.085279 S    
C44   H12   1.077023 S    
C35   C50   1.518351 S    
O4    Cu1   1.892943 S    
C43   C45   1.388154 A    
C44   C46   1.387596 A    
C16   C60   1.486740 S    
C21   C23   1.420079 A    
C60   O16   1.221408 D    
C31   C33   1.398628 A    
C32   C34   1.398185 A    
C29   C55   1.485754 S    
C8    C10   1.538967 S    
C27   H5    1.079936 S    
C36   C49   1.517282 S    
C51   O11   1.221305 D    
C41   C42   1.430863 A    
C8    C48   1.499313 S    
Cu1   Cu2   2.726736 S    
C13   C17   1.426490 A    
O2    C2    1.313999 A    
O2    Cu2   1.914633 S    
C30   C56   1.484996 S    
C50   H19   1.108222 S    
C39   C45   1.394797 A    
C35   C37   1.435424 A    
C40   C46   1.394860 A    
C5    C10   1.535590 S    
C57   H33   1.109160 S    
C36   C38   1.436086 A    
C3    C10   1.455912 S    
C19   H4    1.077210 S    
C32   C40   1.387833 A    
O4    C2    1.318406 A    
C48   H14   1.082579 S    
C58   H36   1.103387 S    
C53   H23   1.109366 S    
C47   O9    1.218499 D    
N1    C33   1.376288 A    
O6    Cu2   1.962845 S    
C15   C23   1.428069 A    
C51   H21   1.073312 S    
C21   C25   1.425756 A    
C38   C42   1.441856 A    
C42   C43   1.408571 A    
C20   C22   1.402488 A    
N2    C36   1.395597 A    
O7    Cu2   1.962210 S    
C25   C26   1.410624 A    
C53   H24   1.108198 S    
C55   H29   1.086149 S    
C5    C11   1.547970 S    
O6    C4    1.302479 A    
C19   C21   1.402330 A    
C49   H16   1.107791 S    
C56   O14   1.221218 D    
O7    C3    1.298929 A    
O3    Cu2   1.892944 S    
O8    C4    1.299308 A    
C1    C13   1.500803 S    
C15   C59   1.486725 S    
C55   O13   1.221093 D    
C10   C12   1.542666 S    
C14   C18   1.422513 A    
C11   H1    1.110643 S    
C18   C57   1.518629 S    
C12   H2    1.110567 S    
O1    Cu1   1.914633 S    
C28   H6    1.080961 S    
C50   H20   1.087706 S    
C59   H37   1.084511 S    
C49   H17   1.088174 S    
C43   H11   1.076854 S    
C5    C7    1.535886 S    
C41   C44   1.407960 A    
C6    C12   1.548617 S    
C31   H9    1.084644 S    
C22   C26   1.427209 A    
C52   O12   1.221183 D    
O3    C1    1.320463 A    
O8    Cu1   1.962210 S    
C33   C52   1.482834 S    
Cu1   N2    2.048383 S    
C54   H27   1.109916 S    
C7    C47   1.499088 S    
Cu2   N1    2.048383 S    
C57   H31   1.106298 S    
C7    C12   1.546738 S    
N1    C35   1.395013 A    
C37   C39   1.405391 A    
C16   C18   1.424528 A    
C58   H34   1.107473 S    
C53   H25   1.109773 S    
C6    C54   1.522959 S    
C2    C14   1.495865 S    
C6    C9    1.533249 S    
C4    C9    1.453864 S    
C28   C30   1.395580 A    
C7    C9    1.537059 S    
C20   H3    1.075294 S    
C38   C40   1.405983 A    
C22   C24   1.421507 A    
C56   H30   1.085834 S    
C23   C29   1.424392 A    
C5    C53   1.522631 S    
O5    Cu1   1.962844 S    
C47   H13   1.082492 S    
C52   H22   1.073999 S    
C16   C24   1.429736 A    
C6    C8    1.535566 S    
N2    C34   1.376646 A    
C32   H10   1.084822 S    
C46   H8    1.084251 S    
C59   O15   1.221209 D    
