data_mof_unit_34493.cif
_audit_creation_date              2012-12-11T15:48:50-0500
_audit_creation_method            fapswitch 2.2
_symmetry_space_group_name_H-M    P1
_symmetry_Int_Tables_number       1
_space_group_crystal_system       triclinic
_cell_length_a                    10.939146
_cell_length_b                    11.039958
_cell_length_c                    18.758892
_cell_angle_alpha                 90.498812
_cell_angle_beta                  89.81694
_cell_angle_gamma                 59.919189
_cell_volume                      1960.20458904

loop_
_atom_site_label
_atom_site_type_symbol
_atom_type_description
_atom_site_fract_x
_atom_site_fract_y
_atom_site_fract_z
_atom_type_partial_charge
C1    C     C_R   0.242502 0.643632 0.611333 0.542946
C2    C     C_R   0.587517 0.125411 0.704996 -0.128516
C3    C     C_R   0.588365 0.117884 0.777828 0.360639
C4    C     C_R   0.653713 0.621714 0.601412 0.534343
C5    C     C_3   0.932355 0.096591 0.784404 -0.281398
C6    C     C_3   0.927721 0.109050 0.704043 -0.285514
C7    C     C_R   0.676707 0.161023 0.669933 -0.054644
C8    C     C_R   0.198819 0.661525 0.838853 -0.000670
C9    C     C_R   0.227467 0.539888 0.801087 0.091477
C10   C     C_R   0.238384 0.534229 0.727338 0.009964
C11   C     C_R   0.210357 0.763863 0.727161 -0.191866
C12   C     C_3   0.760203 0.514875 0.793860 0.213714
C13   C     C_R   0.213221 0.763136 0.801314 -0.182381
C14   C     C_3   0.167883 0.444678 0.803341 0.131127
C15   C     C_3   0.178563 0.438789 0.721931 -0.241887
C16   C     C_R   0.630632 0.225284 0.601160 0.543166
C17   C     C_R   0.214255 0.652325 0.688284 -0.008049
C18   C     C_R   0.645674 0.670533 0.165924 -0.024179
C19   C     C_R   0.710094 0.538143 0.197249 -0.042293
C20   C     C_R   0.711703 0.525734 0.269817 0.072281
C21   C     C_R   0.561147 0.774016 0.284207 -0.188751
C22   C     C_R   0.560330 0.788131 0.209809 -0.174237
C23   C     C_3   0.697777 0.671023 0.813826 0.088139
C24   C     C_3   0.851058 0.405719 0.188218 0.185473
C25   C     C_3   0.852135 0.393740 0.269357 0.630817
C26   C     C_R   0.647260 0.642724 0.315242 0.005061
C27   C     C_R   0.681199 0.082661 0.184239 0.033527
C28   C     C_R   0.218462 0.651297 0.402839 0.542689
C29   C     C_R   0.613614 0.224560 0.201390 0.104366
C30   C     C_R   0.600053 0.266657 0.271447 0.118817
C31   C     C_R   0.729428 0.026037 0.309550 -0.152535
C32   C     C_R   0.742930 0.982634 0.238135 -0.163833
C33   C     C_3   0.465570 0.336429 0.185262 -0.297033
C34   C     C_3   0.669729 0.645877 0.677645 0.014806
C35   C     C_3   0.452610 0.382659 0.262311 -0.285313
C36   C     C_R   0.653874 0.169317 0.325926 0.074594
C37   C     C_R   0.098531 0.700808 0.191972 0.002875
C38   C     C_R   0.078858 0.816544 0.231880 0.041398
C39   C     C_R   0.095333 0.810007 0.303915 0.030574
C40   C     C_R   0.641234 0.620067 0.391053 0.557009
C41   C     C_R   0.118407 0.582488 0.303049 -0.147089
C42   C     C_R   0.102284 0.588693 0.228729 -0.156197
C43   C     C_3   0.133692 0.914607 0.222332 -0.264670
C44   C     C_3   0.155440 0.905623 0.302114 -0.274795
C45   C     C_3   0.748456 0.726890 0.688423 -0.274573
C46   C     C_R   0.133635 0.685568 0.339244 0.000129
C47   C     C_R   0.704316 0.093696 0.893755 0.559160
C48   C     C_R   0.721359 0.686329 0.889399 0.552527
C49   C     C_R   0.120860 0.704883 0.906562 0.541331
C50   C     C_R   0.701854 0.040302 0.110723 0.552699
C51   C     C_R   0.694253 0.690378 0.097059 0.531389
C52   C     C_R   0.621169 0.222909 0.397349 0.540965
C53   C     C_R   0.081127 0.716371 0.115756 0.539236
C54   C     C_3   0.539227 0.748714 0.795277 -0.223341
C55   C     C_3   0.523217 0.726896 0.715547 -0.225780
C56   C     C_3   0.754094 0.500380 0.713704 -0.158565
C57   C     C_3   0.772063 0.734932 0.768892 -0.263201
C58   C     C_3   0.199174 0.238103 0.853028 0.060457
C59   C     C_3   0.197100 0.225512 0.934047 -0.253847
C60   C     C_3   0.145315 0.125908 0.955876 -0.478304
C61   C     C_3   0.838895 0.307156 0.079837 0.021053
C62   C     C_3   0.686844 0.375397 0.052096 -0.270343
C63   C     C_3   0.679480 0.404707 0.973052 -0.402840
C64   C     C_3   0.087139 0.282791 0.306346 0.019251
C65   C     C_3   0.126208 0.249551 0.384961 -0.240163
C66   C     C_3   0.277850 0.130712 0.393835 -0.473890
C67   C     C_R   0.686513 0.136746 0.819288 0.041673
C68   C     C_R   0.776127 0.171903 0.783845 0.039292
C69   C     C_R   0.770564 0.184970 0.709958 0.013703
Cr1   Cr    Cr6+3 0.392960 0.397920 0.502240 0.992217
Cr2   Cr    Cr6+3 0.398340 0.708480 0.501250 0.993684
Cr3   Cr    Cr6+3 0.708670 0.393570 0.496460 1.039451
Cr4   Cr    Cr6+3 0.937650 0.938540 0.007610 0.974324
Cr5   Cr    Cr6+3 0.625330 0.937370 0.994520 1.014273
Cr6   Cr    Cr6+3 0.937940 0.625230 0.001190 0.967270
F1    F     F_    0.501372 0.076436 0.805775 -0.651056
F2    F     F_    0.842303 0.281566 0.294935 -0.629770
F3    F     F_    0.684032 0.461611 0.826669 -0.695762
H1    H     H_    0.489795 0.862317 0.807109 0.184475
H2    H     H_    0.210072 0.850622 0.700596 0.139907
H3    H     H_    0.482561 0.708716 0.828082 0.165769
H4    H     H_    0.208687 0.852313 0.828471 0.129113
H5    H     H_    0.059718 0.496527 0.826162 0.115733
H6    H     H_    0.256926 0.333939 0.700200 0.175883
H7    H     H_    0.074320 0.488359 0.695408 0.072299
H8    H     H_    0.501066 0.866112 0.317318 0.122592
H9    H     H_    0.505015 0.892445 0.187854 0.138521
H10   H     H_    0.939686 0.418884 0.168378 0.093926
H11   H     H_    0.472112 0.662581 0.709900 0.162263
H12   H     H_    0.864025 0.441419 0.692118 0.082493
H13   H     H_    0.772651 0.949107 0.351412 0.114036
H14   H     H_    0.797555 0.871943 0.225070 0.120398
H15   H     H_    0.395365 0.293846 0.171606 0.135689
H16   H     H_    0.460248 0.416396 0.148006 0.136285
H17   H     H_    0.442597 0.487364 0.269504 0.148144
H18   H     H_    0.377225 0.364177 0.293306 0.140549
H19   H     H_    0.138904 0.489787 0.330789 0.162201
H20   H     H_    0.103036 0.502759 0.200193 0.132401
H21   H     H_    0.050015 0.019578 0.204688 0.202786
H22   H     H_    0.455295 0.830324 0.690419 0.134564
H23   H     H_    0.886681 0.680475 0.779194 0.087202
H24   H     H_    0.234168 0.867526 0.191200 0.137325
H25   H     H_    0.269300 0.853117 0.315574 0.160225
H26   H     H_    0.085897 0.005071 0.331198 0.172505
H27   H     H_    0.731858 0.845131 0.784904 0.170076
H28   H     H_    0.685275 0.834063 0.666565 0.130480
H29   H     H_    0.871588 0.451585 0.810385 0.121722
H30   H     H_    0.701240 0.439488 0.701549 0.187752
H31   H     H_    0.261726 0.131881 0.829032 0.194173
H32   H     H_    0.090796 0.280557 0.831930 0.064189
H33   H     H_    0.305542 0.185481 0.954909 0.205206
H34   H     H_    0.851446 0.674182 0.659505 0.117988
H35   H     H_    0.126688 0.330593 0.958116 0.163116
H36   H     H_    0.034841 0.166616 0.938272 0.139816
H37   H     H_    0.149034 0.116197 0.014787 0.125412
H38   H     H_    0.213886 0.020343 0.931983 0.155859
H39   H     H_    0.900515 0.200228 0.057021 0.170547
H40   H     H_    0.895985 0.359161 0.059405 0.133126
H41   H     H_    0.642855 0.306054 0.061226 0.201105
H42   H     H_    0.617437 0.475261 0.080529 0.152592
H43   H     H_    0.693225 0.495963 0.964870 0.206834
H44   H     H_    0.574323 0.430032 0.952388 0.183072
H45   H     H_    0.511528 0.108391 0.676172 0.149739
H46   H     H_    0.762854 0.313151 0.943218 0.192346
H47   H     H_    0.170243 0.294059 0.278272 0.095749
H48   H     H_    0.087512 0.192788 0.279074 0.159569
H49   H     H_    0.114336 0.343995 0.412970 0.174408
H50   H     H_    0.052720 0.220807 0.410657 0.184777
H51   H     H_    0.288078 0.030743 0.375284 0.134137
H52   H     H_    0.306882 0.120482 0.451044 0.151990
H53   H     H_    0.352221 0.151327 0.363001 0.164933
H54   H     H_    0.973357 0.988857 0.803435 0.155626
H55   H     H_    0.973829 0.157923 0.811492 0.135697
H56   H     H_    0.967921 0.177273 0.684230 0.134473
H57   H     H_    0.969278 0.007530 0.675132 0.140042
O1    O     O_R   0.507380 0.255700 0.581440 -0.530821
O2    O     O_R   0.837170 0.593410 0.915250 -0.554522
O3    O     O_R   0.065200 0.635530 0.931570 -0.503072
O4    O     O_R   0.280320 0.527350 0.578930 -0.495520
O5    O     O_R   0.068260 0.828890 0.091840 -0.523741
O6    O     O_R   0.798870 0.057410 0.079340 -0.499761
O7    O     O_R   0.584930 0.080350 0.076780 -0.544908
O8    O     O_R   0.626960 0.809650 0.067060 -0.519262
O9    O     O_R   0.816040 0.596610 0.076510 -0.551132
O10   O     O_R   0.045610 0.638500 0.081060 -0.512174
O11   O     O_3   0.833640 0.833710 0.001100 -0.271326
O12   O     O_R   0.524480 0.695810 0.424040 -0.518314
O13   O     O_R   0.260510 0.739590 0.584590 -0.531854
O14   O     O_R   0.532300 0.695080 0.573820 -0.508803
O15   O     O_R   0.744840 0.503500 0.576370 -0.535484
O16   O     O_R   0.699120 0.276560 0.571960 -0.506766
O17   O     O_R   0.498940 0.256500 0.419860 -0.550655
O18   O     O_R   0.272500 0.528080 0.429150 -0.512801
O19   O     O_R   0.252060 0.740380 0.423010 -0.522901
O20   O     O_3   0.264806 0.316601 0.835006 -0.494321
O21   O     O_3   0.839743 0.296234 0.154969 -0.555323
O22   O     O_3   0.958002 0.411663 0.302223 -0.598486
O23   O     O_R   0.736390 0.504290 0.414790 -0.463324
O24   O     O_R   0.691300 0.277290 0.422170 -0.452476
O25   O     O_3   0.499990 0.499990 0.499980 -0.253006
O26   O     O_R   0.089400 0.825690 0.930570 -0.531462
O27   O     O_R   0.818460 0.054440 0.929850 -0.534037
O28   O     O_R   0.606060 0.077150 0.915510 -0.430372
O29   O     O_R   0.646550 0.806680 0.917570 -0.493815

loop_
_geom_bond_atom_site_label_1
_geom_bond_atom_site_label_2
_ccdc_geom_bond_type
C1    O4    A    
C6    C69   S    
Cr2   O12   S    
Cr5   O8    S    
C28   O19   A    
C34   C56   S    
C8    C13   A    
C14   O20   S    
C27   C29   A    
C58   H31   S    
C41   C42   A    
C57   H27   S    
C2    C7    A    
C21   C26   A    
C33   H16   S    
C63   H46   S    
C44   H26   S    
C45   H34   S    
Cr4   O6    S    
C2    H45   S    
Cr6   O10   S    
C5    H55   S    
Cr2   O25   S    
C12   C23   S    
C45   C57   S    
C37   C38   A    
Cr3   O24   S    
C48   O2    A    
C25   F2    S    
C65   H49   S    
C40   O23   A    
C43   H21   S    
C54   H1    S    
C15   H6    S    
C10   C15   S    
C42   H20   S    
Cr5   O28   S    
C20   C25   S    
C10   C17   A    
C53   O5    A    
C29   C33   S    
Cr3   O23   S    
C18   C19   A    
C37   C42   A    
C56   H30   S    
Cr4   O26   S    
C21   H8    S    
C47   O27   A    
C60   H36   S    
C5    H54   S    
C19   C20   A    
C61   H40   S    
C68   C69   A    
C12   F3    S    
C55   H22   S    
C59   H33   S    
C41   C46   A    
C29   C30   A    
C9    C10   A    
C31   C36   A    
C49   O26   A    
Cr6   O9    S    
C36   C52   S    
C27   C50   S    
C52   O17   A    
C15   H7    S    
C66   H51   S    
C47   O28   A    
C52   O24   A    
C56   H12   S    
Cr2   O13   S    
Cr5   O7    S    
Cr1   O4    S    
C18   C22   A    
C49   O3    A    
Cr1   O1    S    
C14   H5    S    
C5    C68   S    
C47   C67   S    
C63   H43   S    
C44   H25   S    
C18   C51   S    
Cr6   O11   S    
C38   C39   A    
C4    C34   S    
C61   H39   S    
C67   C68   A    
C65   H50   S    
Cr1   O17   S    
C24   C25   S    
Cr6   O2    S    
Cr2   O14   S    
C8    C9    A    
C58   C59   S    
C35   H18   S    
Cr2   O19   S    
C13   H4    S    
C64   O22   S    
C9    C14   S    
C59   C60   S    
C62   C63   S    
C4    O14   A    
C31   C32   A    
C59   H35   S    
Cr3   O16   S    
C28   C46   S    
C53   O10   A    
C34   C45   S    
C22   H9    S    
C3    F1    S    
C24   H10   S    
C62   H41   S    
C12   C56   S    
C39   C46   A    
C30   C35   S    
C7    C16   S    
Cr1   O18   S    
C64   H47   S    
C64   H48   S    
C43   C44   S    
C25   O22   S    
C28   O18   A    
C41   H19   S    
C60   H38   S    
C6    H57   S    
C16   O1    A    
C61   O21   S    
C63   H44   S    
C57   H23   S    
C45   H28   S    
C23   C54   S    
C66   H53   S    
C58   O20   S    
C23   C57   S    
C54   C55   S    
C11   C17   A    
C23   C48   S    
C40   O12   A    
C27   C32   A    
C58   H32   S    
C62   H42   S    
Cr5   O11   S    
C3    C67   A    
C1    O13   A    
Cr6   O3    S    
C33   H15   S    
C7    C69   A    
C12   H29   S    
C50   O6    A    
C39   C44   S    
C48   O29   A    
Cr4   O5    S    
C51   O8    A    
C4    O15   A    
C31   H13   S    
Cr3   O25   S    
C30   C36   A    
Cr4   O11   S    
C64   C65   S    
Cr4   O27   S    
C2    C3    A    
C43   H24   S    
C37   C53   S    
C38   C43   S    
C6    H56   S    
Cr5   O29   S    
C11   C13   A    
C26   C40   S    
C5    C6    S    
C20   C26   A    
Cr3   O15   S    
C33   C35   S    
C19   C24   S    
C16   O16   A    
Cr1   O25   S    
C61   C62   S    
C11   H2    S    
C32   H14   S    
C50   O7    A    
C34   C55   S    
C1    C17   S    
C55   H11   S    
C65   C66   S    
C51   O9    A    
C14   C15   S    
C60   H37   S    
C21   C22   A    
C8    C49   S    
C54   H3    S    
C24   O21   S    
C35   H17   S    
C66   H52   S    
