data_mof_unit_39332.cif
_audit_creation_date              2012-10-26T19:09:52-0400
_audit_creation_method            fapswitch 2.2
_symmetry_space_group_name_H-M    P1
_symmetry_Int_Tables_number       1
_space_group_crystal_system       triclinic
_cell_length_a                    15.437746
_cell_length_b                    15.926245
_cell_length_c                    9.76045
_cell_angle_alpha                 92.853127
_cell_angle_beta                  90.007629
_cell_angle_gamma                 89.879457
_cell_volume                      2396.77619854

loop_
_atom_site_label
_atom_site_type_symbol
_atom_type_description
_atom_site_fract_x
_atom_site_fract_y
_atom_site_fract_z
_atom_type_partial_charge
C1    C     C_R   0.124553 0.387084 0.498677 0.669807
C2    C     C_R   0.882827 0.623606 0.502072 0.524222
C3    C     C_R   0.380900 0.877695 0.497954 0.500947
C4    C     C_R   0.383252 0.123869 0.501986 0.526312
C5    C     C_3   0.813284 0.256298 0.638073 0.260329
C6    C     C_3   0.827278 0.231444 0.377171 0.191550
C7    C     C_3   0.829300 0.770227 0.622526 0.250162
C8    C     C_3   0.816694 0.746330 0.362868 0.233318
C9    C     C_3   0.316860 0.753545 0.635640 0.254387
C10   C     C_3   0.328212 0.730667 0.375933 0.198061
C11   C     C_3   0.328421 0.269214 0.624608 0.249222
C12   C     C_R   0.124884 0.612203 0.500847 0.692348
C13   C     C_3   0.319462 0.248450 0.363876 0.231718
C14   C     C_3   0.236610 0.692828 0.644953 0.673577
C15   C     C_3   0.271780 0.650143 0.401062 0.700174
C16   C     C_3   0.268905 0.347733 0.603095 0.631178
C17   C     C_3   0.240606 0.311160 0.354806 0.695104
C18   C     C_3   0.733590 0.195303 0.646282 0.667039
C19   C     C_3   0.772080 0.150863 0.404742 0.691595
C20   C     C_3   0.769862 0.848751 0.599788 0.633162
C21   C     C_3   0.737350 0.808313 0.354235 0.693713
C22   C     C_3   0.712937 0.336603 0.476192 -0.024625
C23   C     C_R   0.624100 0.886657 0.498779 0.667303
C24   C     C_3   0.718177 0.663114 0.522067 -0.044510
C25   C     C_3   0.214281 0.835354 0.478674 -0.026097
C26   C     C_3   0.218962 0.163150 0.516783 -0.046219
C27   C     C_3   0.811526 0.303695 0.496247 -0.255624
C28   C     C_3   0.814826 0.698340 0.503835 -0.255534
C29   C     C_3   0.312910 0.802408 0.495842 -0.248883
C30   C     C_3   0.315631 0.198786 0.503263 -0.253519
C31   C     C_3   0.195769 0.676535 0.499930 -0.020955
C32   C     C_3   0.196222 0.322841 0.497448 -0.000479
C33   C     C_3   0.694684 0.177711 0.500662 -0.018800
C34   C     C_R   0.624420 0.112781 0.500984 0.695603
C35   C     C_3   0.695390 0.822319 0.498184 -0.003104
C36   C     C_3   0.154385 0.757750 0.446652 0.590867
C37   C     C_3   0.154638 0.239217 0.537564 0.633882
C38   C     C_3   0.653211 0.258424 0.445689 0.595219
C39   C     C_3   0.654536 0.739632 0.545004 0.635602
C40   C     C_3   0.951791 0.571038 0.090227 -0.011151
C41   C     C_3   0.975506 0.583358 0.934440 -0.098111
C42   C     C_3   0.974344 0.417315 0.064602 -0.016445
C43   C     C_3   0.949468 0.430677 0.909757 -0.022858
C44   C     C_3   0.451123 0.070628 0.090311 -0.009336
C45   C     C_3   0.091652 0.508680 0.083920 -0.130542
C46   C     C_3   0.474493 0.083064 0.934423 -0.096657
C47   C     C_3   0.475396 0.917071 0.064629 -0.014573
C48   C     C_3   0.450228 0.930142 0.909879 -0.022553
C49   C     C_2   0.899714 0.214325 0.663774 0.428499
C50   C     C_2   0.921000 0.211072 0.348158 0.441967
C51   C     C_2   0.922443 0.797271 0.643224 0.441353
C52   C     C_2   0.905229 0.784733 0.337739 0.389787
C53   C     C_2   0.405570 0.713654 0.655281 0.402232
C54   C     C_2   0.422173 0.709942 0.349019 0.461827
C55   C     C_2   0.421332 0.296396 0.649067 0.446047
C56   C     C_3   0.091523 0.490573 0.916230 -0.119123
C57   C     C_2   0.408255 0.286884 0.342366 0.398410
C58   C     C_2   0.679635 0.387447 0.600848 0.402425
C59   C     C_2   0.700784 0.393562 0.359360 0.366404
C60   C     C_2   0.706269 0.608402 0.642413 0.383292
C61   C     C_2   0.696337 0.603872 0.400375 0.431667
C62   C     C_2   0.182418 0.884253 0.606203 0.410240
C63   C     C_2   0.201092 0.893622 0.363733 0.367855
C64   C     C_2   0.205170 0.107771 0.635969 0.382756
C65   C     C_2   0.199582 0.104261 0.393531 0.437225
C66   C     C_2   0.854516 0.562073 0.111553 0.338180
C67   C     C_3   0.591568 0.009675 0.084011 -0.130626
C68   C     C_2   0.909984 0.641378 0.882493 0.326907
C69   C     C_2   0.913887 0.355481 0.120017 0.352081
C70   C     C_2   0.853917 0.447152 0.884618 0.344131
C71   C     C_2   0.353934 0.061232 0.112519 0.334614
C72   C     C_2   0.408135 0.140231 0.882663 0.326292
C73   C     C_2   0.415867 0.854707 0.120528 0.351621
C74   C     C_2   0.354402 0.945522 0.885170 0.344380
C75   C     C_3   0.591649 0.991614 0.916277 -0.118903
C76   C     C_R   0.880279 0.378248 0.498091 0.501225
Cu1   Cu    Cu3+1 0.000100 0.500000 0.642410 1.062485
Cu2   Cu    Cu3+1 0.000100 0.500000 0.357590 1.067152
Cu3   Cu    Cu3+1 0.500100 1.000000 0.642410 1.058876
Cu4   Cu    Cu3+1 0.500100 1.000000 0.357590 1.068128
F1    F     F_    0.804650 0.311838 0.747510 -0.516206
F2    F     F_    0.319109 0.586343 0.457433 -0.463556
F3    F     F_    0.314416 0.415731 0.556599 -0.511575
F4    F     F_    0.265342 0.388506 0.308428 -0.467883
F5    F     F_    0.756687 0.120063 0.702679 -0.481156
F6    F     F_    0.820732 0.089634 0.466050 -0.487344
F7    F     F_    0.815012 0.915425 0.548086 -0.515677
F8    F     F_    0.760826 0.884744 0.302989 -0.469548
F9    F     F_    0.174372 0.728931 0.732321 -0.495777
F10   F     F_    0.241514 0.616989 0.275906 -0.452383
F11   F     F_    0.234652 0.374982 0.729029 -0.470687
F12   F     F_    0.796098 0.259230 0.255311 -0.551221
F13   F     F_    0.180450 0.279364 0.259986 -0.478015
F14   F     F_    0.670267 0.231282 0.731801 -0.486287
F15   F     F_    0.743557 0.114891 0.280415 -0.446848
F16   F     F_    0.737719 0.878522 0.725843 -0.466729
F17   F     F_    0.675612 0.774721 0.263692 -0.482810
F18   F     F_    0.073620 0.771019 0.501333 -0.644565
F19   F     F_    0.139298 0.745681 0.306210 -0.492954
F20   F     F_    0.127761 0.249663 0.673762 -0.509931
F21   F     F_    0.080891 0.224421 0.463005 -0.605457
F22   F     F_    0.572465 0.271734 0.500691 -0.643982
F23   F     F_    0.801455 0.740385 0.744596 -0.540985
F24   F     F_    0.638254 0.245040 0.305458 -0.495005
F25   F     F_    0.632747 0.752228 0.683160 -0.512667
F26   F     F_    0.577676 0.723984 0.478838 -0.606429
F27   F     F_    0.805967 0.690788 0.253972 -0.602650
F28   F     F_    0.309570 0.808129 0.746810 -0.534955
F29   F     F_    0.297777 0.759530 0.254501 -0.557411
F30   F     F_    0.299091 0.237694 0.744497 -0.546886
F31   F     F_    0.310128 0.194066 0.252793 -0.605216
F32   F     F_    0.259002 0.617309 0.700679 -0.473354
H1    H     H_    0.971219 0.629418 0.149389 0.179582
H2    H     H_    0.137535 0.533900 0.868010 0.243308
H3    H     H_    0.137366 0.464835 0.132064 0.237839
H4    H     H_    0.117146 0.426435 0.890753 0.232926
H5    H     H_    0.617176 0.073806 0.109602 0.230169
H6    H     H_    0.637089 0.035537 0.868197 0.244664
H7    H     H_    0.637755 0.966280 0.132146 0.239093
H8    H     H_    0.618141 0.927813 0.890594 0.231918
H9    H     H_    0.955922 0.230523 0.605662 0.141645
H10   H     H_    0.965523 0.262232 0.335500 0.174724
H11   H     H_    0.945118 0.858046 0.613291 0.205074
H12   H     H_    0.032687 0.626744 0.934656 0.205942
H13   H     H_    0.959989 0.743025 0.320070 0.188292
H14   H     H_    0.461765 0.754236 0.660832 0.173153
H15   H     H_    0.467293 0.760922 0.338538 0.171232
H16   H     H_    0.443106 0.359190 0.628648 0.207061
H17   H     H_    0.462200 0.245157 0.318395 0.194625
H18   H     H_    0.613280 0.383910 0.636228 0.241321
H19   H     H_    0.754430 0.410464 0.299700 0.181137
H20   H     H_    0.760596 0.583347 0.692753 0.129484
H21   H     H_    0.735610 0.548556 0.386366 0.112670
H22   H     H_    0.118662 0.875582 0.649616 0.246884
H23   H     H_    0.032507 0.374866 0.059526 0.168437
H24   H     H_    0.253171 0.907535 0.298152 0.187712
H25   H     H_    0.258667 0.084507 0.691015 0.137276
H26   H     H_    0.237500 0.047912 0.383590 0.113902
H27   H     H_    0.807857 0.598964 0.057406 0.205968
H28   H     H_    0.852647 0.618120 0.835585 0.129056
H29   H     H_    0.854707 0.374821 0.165590 0.239214
H30   H     H_    0.836829 0.487087 0.804248 0.156663
H31   H     H_    0.306953 0.098830 0.060327 0.208835
H32   H     H_    0.351038 0.116315 0.835755 0.129385
H33   H     H_    0.356277 0.873618 0.165277 0.242986
H34   H     H_    0.966176 0.371762 0.849369 0.205735
H35   H     H_    0.336621 0.986050 0.805981 0.157560
H36   H     H_    0.470313 0.129181 0.149247 0.180979
H37   H     H_    0.531123 0.127120 0.934437 0.206117
H38   H     H_    0.534075 0.875289 0.059345 0.168316
H39   H     H_    0.467539 0.871428 0.849532 0.193723
H40   H     H_    0.117897 0.572561 0.109343 0.231202
N1    N     N_3   0.001260 0.500000 0.143650 -0.308970
N2    N     N_3   0.001260 0.500000 0.856350 -0.366948
N3    N     N_3   0.501260 0.000000 0.143650 -0.308980
N4    N     N_3   0.501260 1.000000 0.856350 -0.365392
O1    O     O_R   0.091250 0.408820 0.620260 -0.448988
O2    O     O_R   0.908940 0.408800 0.379740 -0.549944
O3    O     O_R   0.908940 0.591200 0.620260 -0.525254
O4    O     O_R   0.908940 0.591200 0.379740 -0.460265
O5    O     O_R   0.408940 0.908800 0.620260 -0.492648
O6    O     O_R   0.408940 0.908800 0.379740 -0.547481
O7    O     O_R   0.408940 0.091200 0.620260 -0.521662
O8    O     O_R   0.408940 0.091200 0.379740 -0.462060
O9    O     O_2   0.909919 0.169559 0.760534 -0.238830
O10   O     O_2   0.946951 0.139035 0.327523 -0.230263
O11   O     O_2   0.974948 0.750822 0.693658 -0.356966
O12   O     O_R   0.091250 0.408820 0.379740 -0.466494
O13   O     O_2   0.917451 0.860321 0.335221 -0.276408
O14   O     O_2   0.416360 0.638541 0.668180 -0.251726
O15   O     O_2   0.447779 0.637865 0.327707 -0.224186
O16   O     O_2   0.474510 0.248040 0.692908 -0.359787
O17   O     O_2   0.421466 0.362503 0.349318 -0.282520
O18   O     O_2   0.726135 0.438216 0.659885 -0.500126
O19   O     O_2   0.628997 0.419916 0.329901 -0.337091
O20   O     O_2   0.633914 0.587505 0.678820 -0.319893
O21   O     O_2   0.638231 0.615836 0.318797 -0.240870
O22   O     O_2   0.227475 0.938186 0.660176 -0.505840
O23   O     O_R   0.091250 0.591180 0.620260 -0.425475
O24   O     O_2   0.129503 0.922686 0.340175 -0.344410
O25   O     O_2   0.132397 0.084915 0.666860 -0.326358
O26   O     O_2   0.145093 0.117569 0.306559 -0.239704
O27   O     O_2   0.825127 0.514590 0.192029 -0.503998
O28   O     O_2   0.910833 0.714775 0.926262 -0.326969
O29   O     O_2   0.923343 0.280787 0.087718 -0.358474
O30   O     O_2   0.795460 0.415405 0.948425 -0.346183
O31   O     O_2   0.325145 0.012470 0.191417 -0.511274
O32   O     O_2   0.408221 0.213675 0.926253 -0.329404
O33   O     O_2   0.426611 0.779996 0.089639 -0.372731
O34   O     O_R   0.091250 0.591180 0.379740 -0.456446
O35   O     O_2   0.296497 0.912009 0.947700 -0.346729
O36   O     O_R   0.591250 0.908820 0.620260 -0.454455
O37   O     O_R   0.591250 0.908820 0.379740 -0.465455
O38   O     O_R   0.591250 0.091180 0.620260 -0.423809
O39   O     O_R   0.591250 0.091180 0.379740 -0.456464
O40   O     O_R   0.908940 0.408800 0.620260 -0.486960

loop_
_geom_bond_atom_site_label_1
_geom_bond_atom_site_label_2
_ccdc_geom_bond_type
C34   O39   A    
C39   F26   S    
C66   O27   D    
C61   O21   D    
C24   C61   S    
C55   H16   S    
C51   H11   S    
C51   O11   D    
C50   H10   S    
C14   C31   S    
C19   F6    S    
C60   H20   S    
C67   C75   S    
C61   H21   S    
Cu1   Cu2   S    
C9    F28   S    
C14   F32   S    
C6    C19   S    
C59   H19   S    
Cu1   O23   S    
Cu3   O38   S    
C10   F29   S    
C41   H12   S    
C57   H17   S    
Cu1   O40   S    
C59   O19   D    
C10   C15   S    
C6    F12   S    
C13   C57   S    
C69   H29   S    
C22   C38   S    
C20   F7    S    
C24   C39   S    
C21   F17   S    
C44   C71   S    
C67   N3    S    
C25   C63   S    
C17   F13   S    
C3    C29   S    
C26   C64   S    
C72   O32   D    
C38   F24   S    
C76   O40   A    
C3    O6    A    
Cu3   N4    S    
C5    C27   S    
C20   C35   S    
C75   N4    S    
Cu2   O2    S    
Cu4   O8    S    
C66   H27   S    
C6    C27   S    
C45   C56   S    
C2    O3    A    
Cu2   O34   S    
C50   O10   D    
C4    O8    A    
C15   F2    S    
C43   N2    S    
C24   C28   S    
C8    C52   S    
C46   C72   S    
C9    C29   S    
C25   C62   S    
C34   O38   A    
C48   N4    S    
C21   F8    S    
C7    F23   S    
C11   F30   S    
C44   N3    S    
C5    C49   S    
C58   O18   D    
C75   H6    S    
Cu3   O5    S    
C23   O36   A    
C44   C46   S    
C8    C21   S    
C41   C68   S    
C65   O26   D    
C2    O4    A    
C25   C29   S    
C70   H30   S    
C18   F5    S    
C47   C48   S    
C48   C74   S    
C74   H35   S    
C42   N1    S    
C11   C30   S    
C56   N2    S    
C19   C33   S    
C71   O31   D    
C22   C59   S    
C3    O5    A    
C5    C18   S    
C1    O12   A    
C16   F3    S    
C63   O24   D    
C74   O35   D    
C73   H33   S    
C42   H23   S    
C35   C39   S    
C9    C14   S    
C14   F9    S    
C49   O9    D    
Cu4   O37   S    
Cu1   N2    S    
C5    F1    S    
C11   C16   S    
C45   H3    S    
C40   H1    S    
C47   H38   S    
C24   C60   S    
C49   H9    S    
C23   O37   A    
C33   C34   S    
C56   H4    S    
C4    O7    A    
C26   C37   S    
C32   C37   S    
C6    C50   S    
C15   C31   S    
C67   H5    S    
C47   C73   S    
C53   O14   D    
Cu1   O3    S    
C57   O17   D    
C64   O25   D    
Cu2   O4    S    
C40   C41   S    
C7    C28   S    
C43   C70   S    
C23   C35   S    
C22   C27   S    
C12   C31   S    
C60   O20   D    
C40   N1    S    
C68   H28   S    
C9    C53   S    
C42   C43   S    
C65   H26   S    
C27   C76   S    
C8    F27   S    
C69   O29   D    
C55   O16   D    
C11   C55   S    
C19   F15   S    
Cu4   N3    S    
C71   H31   S    
C41   N2    S    
C72   H32   S    
Cu4   O39   S    
C68   O28   D    
C26   C65   S    
C54   O15   D    
C75   H8    S    
C39   F25   S    
Cu3   O7    S    
C52   O13   D    
C22   C58   S    
C36   F18   S    
C52   H13   S    
Cu2   N1    S    
C26   C30   S    
C21   C35   S    
C16   C32   S    
C46   N4    S    
C54   H15   S    
Cu2   O12   S    
C33   C38   S    
C13   C17   S    
Cu3   O36   S    
C17   F4    S    
C63   H24   S    
C45   H40   S    
C1    O1    A    
C62   O22   D    
C7    C51   S    
C38   F22   S    
C43   H34   S    
C15   F10   S    
C37   F21   S    
C10   C29   S    
C62   H22   S    
C8    C28   S    
C47   N3    S    
C58   H18   S    
C18   F14   S    
C76   O2    A    
C44   H36   S    
C36   F19   S    
C12   O34   A    
C42   C69   S    
C20   F16   S    
C10   C54   S    
C18   C33   S    
C73   O33   D    
C2    C28   S    
C53   H14   S    
C70   O30   D    
C25   C36   S    
Cu3   Cu4   S    
C1    C32   S    
C12   O23   A    
C45   N1    S    
C13   C30   S    
C16   F11   S    
C13   F31   S    
C7    C20   S    
Cu4   O6    S    
C48   H39   S    
C64   H25   S    
C17   C32   S    
C56   H2    S    
C31   C36   S    
C40   C66   S    
C46   H37   S    
C67   H7    S    
C37   F20   S    
C4    C30   S    
Cu1   O1    S    
