data_mof_unit_34074.cif
_audit_creation_date              2012-12-10T18:10:20-0500
_audit_creation_method            fapswitch 2.2
_symmetry_space_group_name_H-M    P1
_symmetry_Int_Tables_number       1
_space_group_crystal_system       triclinic
_cell_length_a                    10.73595
_cell_length_b                    9.5823
_cell_length_c                    15.855487
_cell_angle_alpha                 89.140156
_cell_angle_beta                  88.900165
_cell_angle_gamma                 90.206175
_cell_volume                      1630.63824046

loop_
_atom_site_label
_atom_site_type_symbol
_atom_type_description
_atom_site_fract_x
_atom_site_fract_y
_atom_site_fract_z
_atom_type_partial_charge
C1    C     C_R   0.259900 0.499435 0.501931 0.740042
C2    C     C_3   0.602791 0.587334 0.950118 -0.378005
C3    C     C_3   0.596697 0.594113 0.047712 -0.413826
C4    C     C_1   0.494858 0.499652 0.824983 -0.097154
C5    C     C_1   0.492130 0.502659 0.175759 -0.107672
C6    C     C_1   0.495381 0.502916 0.251222 -0.194393
C7    C     C_3   0.069565 0.630235 0.545367 -0.378125
C8    C     C_3   0.068606 0.370017 0.554427 -0.364920
C9    C     C_3   0.926961 0.631930 0.545427 -0.392507
C10   C     C_3   0.925070 0.370189 0.554058 -0.382604
C11   C     C_3   0.073075 0.493363 0.411831 -0.373583
C12   C     C_3   0.121087 0.497637 0.503184 0.148596
C13   C     C_3   0.877064 0.498672 0.503352 0.180191
C14   C     C_R   0.499004 0.500940 0.340735 0.831012
C15   C     C_3   0.929444 0.491788 0.411895 -0.376288
C16   C     C_3   0.616971 0.082184 0.536716 -0.358612
C17   C     C_3   0.609538 0.917595 0.546034 -0.379194
C18   C     C_3   0.396753 0.080815 0.556023 0.297941
C19   C     C_3   0.388647 0.914010 0.549368 0.293847
C20   C     C_3   0.493413 0.087400 0.411450 0.723115
C21   C     C_3   0.497545 0.915448 0.411469 0.734775
C22   C     C_R   0.739283 0.499857 0.501994 0.718830
C23   C     C_R   0.499373 0.499284 0.659492 0.812844
C24   C     C_3   0.364684 0.561297 0.049018 -0.112535
C25   C     C_3   0.514655 0.349177 0.049801 -0.116881
C26   C     C_3   0.500325 0.349305 0.952576 -0.372341
C27   C     C_3   0.369173 0.565657 0.950689 -0.444472
C28   C     C_1   0.497255 0.498524 0.749310 -0.184531
C29   C     C_3   0.489420 0.499694 0.083454 0.165688
C30   C     C_3   0.492122 0.500636 0.917317 0.269724
Cu1   Cu    Cu3+1 0.499860 0.642410 0.500040 1.001590
Cu2   Cu    Cu3+1 0.499860 0.357590 0.500040 0.992406
H1    H     H_    0.288269 0.509695 0.923792 0.155633
H2    H     H_    0.414206 0.292121 0.935744 0.182008
H3    H     H_    0.896564 0.727316 0.511217 0.149785
H4    H     H_    0.892246 0.271572 0.525476 0.165483
H5    H     H_    0.107680 0.586199 0.375522 0.173648
H6    H     H_    0.108787 0.399628 0.379515 0.168007
H7    H     H_    0.895443 0.581958 0.373966 0.159880
H8    H     H_    0.896203 0.395012 0.381361 0.169652
H9    H     H_    0.642181 0.129889 0.596438 0.157054
H10   H     H_    0.606218 0.886406 0.613467 0.194498
H11   H     H_    0.699816 0.111995 0.497990 0.191167
H12   H     H_    0.698666 0.871426 0.527845 0.149337
H13   H     H_    0.309321 0.113863 0.529322 0.044799
H14   H     H_    0.304829 0.888288 0.512589 0.061774
H15   H     H_    0.613315 0.322910 0.063320 0.146420
H16   H     H_    0.356945 0.670964 0.071018 0.169218
H17   H     H_    0.580871 0.294150 0.923166 0.158842
H18   H     H_    0.362970 0.676002 0.928262 0.174002
H19   H     H_    0.582010 0.704103 0.067202 0.187007
H20   H     H_    0.687714 0.560592 0.073606 0.175681
H21   H     H_    0.600743 0.695073 0.922938 0.174987
H22   H     H_    0.692343 0.539070 0.929674 0.164959
H23   H     H_    0.104537 0.724706 0.510641 0.169197
H24   H     H_    0.102021 0.270417 0.527758 0.152766
H25   H     H_    0.100311 0.631132 0.611692 0.165516
H26   H     H_    0.101254 0.373427 0.620584 0.162935
H27   H     H_    0.889996 0.638474 0.611346 0.152352
H28   H     H_    0.887877 0.372220 0.620044 0.145077
N1    N     N_3   0.500250 0.143650 0.501830 -0.212616
N2    N     N_3   0.500250 0.856350 0.501830 -0.200788
O1    O     O_R   0.317570 0.620260 0.500050 -0.550378
O2    O     O_R   0.317570 0.379740 0.500050 -0.584097
O3    O     O_R   0.499890 0.620310 0.379470 -0.507275
O4    O     O_R   0.499890 0.379690 0.379470 -0.502574
O5    O     O_R   0.682190 0.620260 0.500020 -0.609796
O6    O     O_R   0.682190 0.379740 0.500020 -0.578346
O7    O     O_R   0.499870 0.620210 0.620600 -0.518700
O8    O     O_R   0.499870 0.379790 0.620600 -0.549467
O9    O     O_3   0.381527 0.143567 0.637463 -0.553447
C31   C     C_3   0.462239 0.104954 0.703943 0.147843
H29   H     H_    0.543106 0.176318 0.705704 0.147745
H30   H     H_    0.496306 0.997394 0.702473 0.167272
C32   C     C_3   0.395712 0.125155 0.788576 -0.856958
H31   H     H_    0.318094 0.050308 0.798656 0.242371
H32   H     H_    0.462711 0.107764 0.840104 0.211590
H33   H     H_    0.358226 0.232751 0.792219 0.253654
O10   O     O_3   0.374540 0.846871 0.629310 -0.534791
C33   C     C_3   0.252637 0.861936 0.663878 0.077958
H34   H     H_    0.179872 0.839679 0.618207 0.099444
H35   H     H_    0.234158 0.969641 0.683945 0.176843
C34   C     C_3   0.237123 0.764417 0.740005 -0.818193
H36   H     H_    0.141949 0.774847 0.767779 0.194169
H37   H     H_    0.251675 0.654592 0.720913 0.242818
H38   H     H_    0.306452 0.790844 0.788353 0.247702
O11   O     O_3   0.391868 0.148602 0.364250 -0.598943
C35   C     C_3   0.263141 0.125108 0.380709 0.002557
H39   H     H_    0.227518 0.203459 0.424059 0.175611
H40   H     H_    0.237206 0.021657 0.406260 0.145721
C36   C     C_3   0.190970 0.154530 0.300278 -0.824872
H41   H     H_    0.214470 0.080467 0.249777 0.252031
H42   H     H_    0.089273 0.146902 0.314028 0.200773
H43   H     H_    0.212846 0.261382 0.276015 0.256454
O12   O     O_3   0.384616 0.863094 0.376769 -0.619599
C37   C     C_3   0.381695 0.857383 0.287041 0.124540
H44   H     H_    0.456148 0.791153 0.259626 0.201000
H45   H     H_    0.391236 0.962218 0.257755 0.159250
C38   C     C_3   0.258931 0.792210 0.261386 -0.790065
H46   H     H_    0.179202 0.842291 0.294496 0.237801
H47   H     H_    0.247495 0.804658 0.192253 0.232382
H48   H     H_    0.258760 0.679254 0.277846 0.258483
O13   O     O_3   0.604644 0.138151 0.369465 -0.591047
C39   C     C_3   0.602214 0.147994 0.279884 0.171961
H49   H     H_    0.526365 0.215549 0.256920 0.192058
H50   H     H_    0.591574 0.044608 0.250990 0.155013
C40   C     C_3   0.723757 0.214355 0.248116 -0.860824
H51   H     H_    0.804892 0.158247 0.274353 0.248785
H52   H     H_    0.729298 0.210872 0.178228 0.209551
H53   H     H_    0.728301 0.324882 0.267959 0.241213
O14   O     O_3   0.596222 0.859112 0.358017 -0.586143
C41   C     C_3   0.725580 0.874873 0.371272 0.053975
H54   H     H_    0.758726 0.792591 0.413152 0.177253
H55   H     H_    0.754945 0.976762 0.394777 0.160250
C42   C     C_3   0.796109 0.846260 0.288891 -0.848932
H56   H     H_    0.769461 0.919824 0.238025 0.255359
H57   H     H_    0.897976 0.856009 0.298637 0.205533
H58   H     H_    0.775577 0.738598 0.267877 0.249315
C43   C     C_2   0.249866 0.484101 0.081100 0.318924
H59   H     H_    0.226971 0.382161 0.056777 0.081909
O15   O     O_2   0.180129 0.536761 0.133218 -0.570276
C44   C     C_2   0.437601 0.234483 0.092087 0.262272
H60   H     H_    0.372517 0.256929 0.143169 0.095648
O16   O     O_2   0.451130 0.113396 0.070930 -0.571551

loop_
_geom_bond_atom_site_label_1
_geom_bond_atom_site_label_2
_ccdc_geom_bond_type
O11   C35   S    
C37   C38   S    
C23   O7    A    
O12   C37   S    
Cu1   N2    S    
C24   C27   S    
C7    H23   S    
C8    H24   S    
C41   H55   S    
C19   H14   S    
C20   O13   S    
C27   H1    S    
Cu1   O5    S    
C34   H36   S    
Cu2   N1    S    
C31   C32   S    
C5    C6    T    
C3    H20   S    
C36   H42   S    
C19   N2    S    
C42   H56   S    
C20   O11   S    
C11   H5    S    
C18   C19   S    
C20   N1    S    
C3    C29   S    
C9    C13   S    
C24   C29   S    
C39   H49   S    
C8    H26   S    
C17   H10   S    
C11   C15   S    
C26   H2    S    
Cu1   Cu2   S    
C16   C17   S    
C42   H57   S    
C37   H45   S    
C40   H51   S    
C25   C44   S    
C25   H15   S    
C27   H18   S    
Cu2   O6    S    
C27   C30   S    
C40   H52   S    
C23   O8    A    
C1    C12   S    
C33   C34   S    
C1    O1    A    
C39   H50   S    
C41   H54   S    
C21   O14   S    
C5    C29   S    
C43   O15   D    
C25   C29   S    
C7    C12   S    
C22   O5    A    
C24   H16   S    
Cu1   O1    S    
Cu2   O2    S    
C33   H35   S    
C2    H22   S    
C26   H17   S    
C36   H41   S    
C3    H19   S    
C31   H29   S    
Cu2   O8    S    
C21   O12   S    
C25   C26   S    
C2    H21   S    
C9    H27   S    
C11   H6    S    
C10   H28   S    
C32   H31   S    
C17   N2    S    
C6    C14   S    
C38   H46   S    
C35   C36   S    
C8    C12   S    
C42   H58   S    
C15   H7    S    
C37   H44   S    
C34   H38   S    
C14   O4    A    
C23   C28   S    
C20   C21   S    
C19   O10   S    
C32   H32   S    
C16   H11   S    
C22   O6    A    
C21   N2    S    
C31   H30   S    
C38   H47   S    
C35   H40   S    
C26   C30   S    
C13   C15   S    
C40   H53   S    
C16   N1    S    
C44   O16   D    
C18   H13   S    
Cu2   O4    S    
C18   O9    S    
Cu1   O3    S    
C24   C43   S    
O14   C41   S    
C34   H37   S    
C33   H34   S    
C10   C13   S    
C43   H59   S    
C18   N1    S    
C2    C30   S    
C2    C3    S    
C17   H12   S    
O9    C31   S    
C36   H43   S    
C16   H9    S    
C14   O3    A    
C13   C22   S    
C39   C40   S    
C32   H33   S    
C15   H8    S    
O10   C33   S    
C7    C9    S    
Cu1   O7    S    
C38   H48   S    
C35   H39   S    
C8    C10   S    
C4    C28   T    
O13   C39   S    
C9    H3    S    
C10   H4    S    
C44   H60   S    
C1    O2    A    
C7    H25   S    
C41   C42   S    
C4    C30   S    
C11   C12   S    
