data_mof_unit_41313.cif
_audit_creation_date              2012-12-11T15:34:31-0500
_audit_creation_method            fapswitch 2.2
_symmetry_space_group_name_H-M    P1
_symmetry_Int_Tables_number       1
_space_group_crystal_system       triclinic
_cell_length_a                    15.042817
_cell_length_b                    15.076855
_cell_length_c                    34.951178
_cell_angle_alpha                 90.697929
_cell_angle_beta                  89.98999
_cell_angle_gamma                 60.228059
_cell_volume                      6879.90522881

loop_
_atom_site_label
_atom_site_type_symbol
_atom_type_description
_atom_site_fract_x
_atom_site_fract_y
_atom_site_fract_z
_atom_type_partial_charge
C1    C     C_R   0.303728 0.607469 0.556101 0.538194
C2    C     C_R   0.176889 0.731263 0.397074 -0.015872
C3    C     C_R   0.748590 0.136814 0.267346 -0.148730
C4    C     C_R   0.755789 0.127370 0.227752 -0.130239
C5    C     C_R   0.673516 0.194380 0.205010 -0.003954
C6    C     C_R   0.723381 0.228411 0.348802 -0.133045
C7    C     C_R   0.707751 0.246955 0.388044 -0.127778
C8    C     C_R   0.554547 0.232220 0.384142 -0.135508
C9    C     C_R   0.737909 0.582554 0.648391 -0.129241
C10   C     C_R   0.570448 0.213472 0.344926 -0.113950
C11   C     C_R   0.652127 0.216398 0.326862 0.025722
C12   C     C_R   0.620371 0.254010 0.405716 0.020952
C13   C     C_R   0.142779 0.742906 0.359178 -0.129791
C14   C     C_R   0.078045 0.714479 0.095173 0.023062
C15   C     C_R   0.097394 0.622407 0.111830 -0.127759
C16   C     C_R   0.124885 0.604383 0.150261 -0.122704
C17   C     C_R   0.131759 0.678911 0.172616 0.034800
C18   C     C_R   0.119434 0.767507 0.155054 -0.120103
C19   C     C_R   0.094018 0.784541 0.116667 -0.125166
C20   C     C_R   0.195686 0.710046 0.234351 -0.132001
C21   C     C_3   0.291907 0.757702 0.825632 -0.295312
C22   C     C_R   0.012123 0.792204 0.708396 0.024969
C23   C     C_R   0.985272 0.895132 0.713023 -0.106684
C24   C     C_R   0.166430 0.657257 0.336165 0.011530
C25   C     C_R   0.910209 0.969410 0.689864 -0.103139
C26   C     C_R   0.860279 0.941735 0.662474 -0.103065
C27   C     C_R   0.884996 0.839778 0.658329 -0.110921
C28   C     C_R   0.960790 0.765083 0.681134 -0.075052
C29   C     C_3   0.406419 0.444091 0.257905 -0.316487
C30   C     C_R   0.043638 0.578666 0.296228 0.028638
C31   C     C_R   0.972819 0.632280 0.325753 -0.080650
C32   C     C_R   0.928687 0.584997 0.346466 -0.103063
C33   C     C_R   0.954772 0.484152 0.337850 -0.102678
C34   C     C_R   0.023436 0.431054 0.308049 -0.115680
C35   C     C_R   0.563984 0.724640 0.650297 -0.126403
C36   C     C_R   0.067605 0.478052 0.287218 -0.107756
C37   C     C_R   0.147509 0.824206 0.420751 0.052444
C38   C     C_R   0.100165 0.836456 0.456632 -0.065629
C39   C     C_R   0.071956 0.924309 0.478860 -0.105261
C40   C     C_R   0.090186 0.000772 0.465399 -0.106824
C41   C     C_R   0.136653 0.989525 0.429675 -0.118019
C42   C     C_R   0.165113 0.901744 0.407358 -0.092861
C43   C     C_R   0.238253 0.631199 0.411351 0.010227
C44   C     C_R   0.735489 0.026574 0.943709 0.543908
C45   C     C_R   0.745922 0.722714 0.945112 0.544658
C46   C     C_R   0.038623 0.733852 0.948387 0.544655
C47   C     C_R   0.723267 0.038532 0.052927 0.543299
C48   C     C_R   0.733369 0.734687 0.054719 0.542859
C49   C     C_R   0.655644 0.660052 0.669291 0.032065
C50   C     C_R   0.026923 0.745524 0.057997 0.544206
C51   C     C_R   0.551868 0.706350 0.611968 -0.134793
C52   C     C_R   0.670728 0.671824 0.788693 0.343211
C53   C     C_R   0.662654 0.667198 0.711176 0.344296
C54   C     C_R   0.761121 0.597526 0.849870 -0.124754
C55   C     C_R   0.778426 0.609039 0.888278 -0.131458
C56   C     C_R   0.626412 0.776508 0.889726 -0.134047
C57   C     C_R   0.608910 0.764824 0.851298 -0.129523
C58   C     C_R   0.678659 0.677079 0.830604 0.032246
C59   C     C_R   0.610617 0.588410 0.555261 0.544046
C60   C     C_R   0.197246 0.710697 0.274019 -0.141316
C61   C     C_R   0.713786 0.700501 0.908089 0.022699
C62   C     C_R   0.719222 0.080391 0.907314 0.022129
C63   C     C_R   0.624936 0.117934 0.888563 -0.125548
C64   C     C_R   0.615322 0.147883 0.850651 -0.123032
C65   C     C_R   0.699334 0.141875 0.831030 0.029184
C66   C     C_R   0.790981 0.112934 0.850504 -0.120457
C67   C     C_R   0.801046 0.082023 0.888510 -0.129122
C68   C     C_R   0.717676 0.224521 0.772483 -0.117803
C69   C     C_R   0.708153 0.238664 0.733006 -0.118632
C70   C     C_R   0.676220 0.182413 0.710068 0.022592
C71   C     C_R   0.148120 0.668406 0.294844 0.010435
C72   C     C_R   0.589718 0.301507 0.553755 0.544256
C73   C     C_R   0.655866 0.110610 0.727198 -0.110156
C74   C     C_R   0.664087 0.097570 0.766580 -0.108990
C75   C     C_R   0.693867 0.155207 0.789462 0.024517
C76   C     C_R   0.577639 0.201651 0.650325 -0.125638
C77   C     C_R   0.558720 0.226582 0.611847 -0.128891
C78   C     C_R   0.710455 0.243666 0.608547 -0.127993
C79   C     C_R   0.729185 0.219005 0.647062 -0.132059
C80   C     C_R   0.661488 0.200338 0.668552 0.023040
C81   C     C_R   0.623036 0.251188 0.590945 0.020459
C82   C     C_R   0.095118 0.626052 0.275437 -0.001354
C83   C     C_R   0.095922 0.695266 0.911991 -0.004815
C84   C     C_R   0.298560 0.610688 0.446624 0.537102
C85   C     C_R   0.127276 0.755534 0.892025 -0.116282
C86   C     C_R   0.158801 0.733674 0.853702 0.145966
C87   C     C_R   0.158510 0.650282 0.835070 0.050752
C88   C     C_R   0.136398 0.584718 0.855927 -0.154570
C89   C     C_R   0.105221 0.607020 0.894135 -0.141475
C90   C     C_R   0.247504 0.555433 0.775210 -0.135108
C91   C     C_R   0.256135 0.550652 0.735376 -0.127564
C92   C     C_R   0.182345 0.629838 0.713013 0.015125
C93   C     C_R   0.092124 0.627986 0.235387 -0.118240
C94   C     C_R   0.096361 0.712324 0.730972 -0.003843
C95   C     C_R   0.089982 0.717714 0.770952 -0.079208
C96   C     C_R   0.607761 0.589088 0.445121 0.540819
C97   C     C_R   0.165981 0.640402 0.793109 0.034768
C98   C     C_R   0.206751 0.711433 0.655296 -0.101381
C99   C     C_R   0.232766 0.708067 0.616777 -0.127957
C100  C     C_R   0.243280 0.542908 0.609890 -0.126568
C101  C     C_R   0.217580 0.546275 0.648431 -0.131677
C102  C     C_R   0.201028 0.629639 0.671521 0.030087
C103  C     C_R   0.254138 0.622403 0.593925 0.019215
C104  C     C_R   0.142266 0.669767 0.214598 0.014044
C105  C     C_R   0.690846 0.719260 0.090436 0.021017
C106  C     C_R   0.606468 0.802023 0.108556 -0.128177
C107  C     C_R   0.578786 0.792904 0.145798 -0.123558
C108  C     C_R   0.587930 0.302833 0.443740 0.542102
C109  C     C_R   0.634540 0.700768 0.165432 0.031466
C110  C     C_R   0.714116 0.616001 0.146310 -0.118727
C111  C     C_R   0.742065 0.625167 0.109172 -0.125990
C112  C     C_R   0.622469 0.607585 0.222136 -0.119511
C113  C     C_R   0.620739 0.596939 0.261641 -0.116350
C114  C     C_R   0.614239 0.673931 0.286499 0.031185
C115  C     C_R   0.219060 0.559498 0.351517 -0.118108
C116  C     C_R   0.604723 0.763768 0.271213 -0.114624
C117  C     C_R   0.606642 0.774371 0.231663 -0.113082
C118  C     C_R   0.617696 0.695434 0.206797 0.028805
C119  C     C_R   0.551814 0.735346 0.353302 -0.123818
C120  C     C_R   0.631236 0.623163 0.592051 0.022084
C121  C     C_R   0.552276 0.715778 0.392300 -0.127496
C122  C     C_R   0.696325 0.545403 0.381956 -0.134669
C123  C     C_R   0.694561 0.564390 0.343015 -0.125180
C124  C     C_R   0.620806 0.658434 0.328216 0.032088
C125  C     C_R   0.622754 0.619496 0.406788 0.021417
C126  C     C_R   0.254206 0.546578 0.388785 -0.140453
C127  C     C_R   0.700890 0.100068 0.088300 0.022124
C128  C     C_R   0.777938 0.114015 0.105226 -0.128274
C129  C     C_R   0.766378 0.151180 0.142603 -0.123223
C130  C     C_R   0.677386 0.175702 0.163483 0.030893
C131  C     C_R   0.596658 0.170472 0.145506 -0.121289
C132  C     C_R   0.725819 0.564277 0.610122 -0.134323
C133  C     C_R   0.608335 0.132795 0.108136 -0.127969
C134  C     C_R   0.585188 0.273636 0.222241 -0.088687
C135  C     C_R   0.577167 0.285595 0.262364 0.157771
C136  C     C_R   0.659232 0.213537 0.284877 0.031032
Cr1   Cr    Cr6+3 0.421670 0.426920 0.499620 1.006246
Cr2   Cr    Cr6+3 0.427030 0.651190 0.500980 1.020485
Cr3   Cr    Cr6+3 0.651280 0.421870 0.499380 1.005242
Cr4   Cr    Cr6+3 0.910810 0.908010 0.001130 1.007997
Cr5   Cr    Cr6+3 0.682800 0.909890 0.998370 1.009294
Cr6   Cr    Cr6+3 0.908370 0.682300 0.002180 1.010441
H1    H     H_    0.788765 0.500286 0.595388 0.126900
H2    H     H_    0.490474 0.232225 0.599131 0.126644
H3    H     H_    0.856515 0.107969 0.835623 0.105711
H4    H     H_    0.478167 0.753407 0.598744 0.127494
H5    H     H_    0.761569 0.262089 0.593163 0.127227
H6    H     H_    0.122170 0.823031 0.905493 0.122116
H7    H     H_    0.081808 0.559026 0.908811 0.132290
H8    H     H_    0.212867 0.482861 0.660474 0.104904
H9    H     H_    0.322358 0.486816 0.722005 0.119395
H10   H     H_    0.306127 0.494911 0.792105 0.109890
H11   H     H_    0.025091 0.781765 0.784931 0.124770
H12   H     H_    0.874550 0.053579 0.902295 0.123927
H13   H     H_    0.194962 0.776142 0.672848 0.116439
H14   H     H_    0.845960 0.548701 0.901717 0.128498
H15   H     H_    0.241308 0.770007 0.605476 0.123828
H16   H     H_    0.136150 0.520409 0.841860 0.114847
H17   H     H_    0.259535 0.475589 0.593112 0.126224
H18   H     H_    0.565270 0.875498 0.094820 0.126272
H19   H     H_    0.807159 0.559945 0.095915 0.126313
H20   H     H_    0.749278 0.504452 0.324209 0.107419
H21   H     H_    0.625804 0.527872 0.272823 0.110351
H22   H     H_    0.629581 0.546301 0.203576 0.104312
H23   H     H_    0.795603 0.216434 0.660176 0.097607
H24   H     H_    0.516212 0.858933 0.159772 0.100702
H25   H     H_    0.600028 0.823887 0.289854 0.102977
H26   H     H_    0.810212 0.532643 0.662030 0.128134
H27   H     H_    0.604336 0.842268 0.220609 0.106566
H28   H     H_    0.494194 0.808542 0.342467 0.100485
H29   H     H_    0.494283 0.774092 0.410728 0.123311
H30   H     H_    0.758947 0.544254 0.160867 0.104414
H31   H     H_    0.751166 0.470167 0.392084 0.122193
H32   H     H_    0.849789 0.090428 0.090505 0.123541
H33   H     H_    0.547518 0.123336 0.095750 0.124268
H34   H     H_    0.723349 0.295283 0.720585 0.116722
H35   H     H_    0.516058 0.202068 0.328308 0.127139
H36   H     H_    0.523677 0.325422 0.203960 0.103582
H37   H     H_    0.499574 0.785792 0.665516 0.129548
H38   H     H_    0.828866 0.156198 0.155849 0.101414
H39   H     H_    0.811730 0.082104 0.284456 0.111993
H40   H     H_    0.824141 0.064876 0.214919 0.116366
H41   H     H_    0.787484 0.229676 0.335223 0.101572
H42   H     H_    0.760151 0.262910 0.403941 0.123683
H43   H     H_    0.527405 0.188754 0.161208 0.101131
H44   H     H_    0.486959 0.236514 0.396977 0.124616
H45   H     H_    0.740931 0.269365 0.789860 0.112528
H46   H     H_    0.086563 0.566679 0.095745 0.121207
H47   H     H_    0.079805 0.856287 0.104662 0.128078
H48   H     H_    0.099417 0.818627 0.347220 0.104711
H49   H     H_    0.815213 0.528121 0.834877 0.129323
H50   H     H_    0.240786 0.740464 0.288552 0.114076
H51   H     H_    0.237070 0.740577 0.219156 0.106576
H52   H     H_    0.136796 0.534029 0.162810 0.095799
H53   H     H_    0.048121 0.599230 0.220580 0.107731
H54   H     H_    0.238602 0.492572 0.333904 0.122904
H55   H     H_    0.300419 0.469212 0.398905 0.136402
H56   H     H_    0.543620 0.171444 0.836048 0.106391
H57   H     H_    0.122844 0.827159 0.171408 0.099714
H58   H     H_    0.574752 0.847604 0.904340 0.126641
H59   H     H_    0.543865 0.826919 0.837366 0.126664
H60   H     H_    0.560174 0.118645 0.902419 0.127825
H61   H     H_    0.150414 0.873213 0.844397 0.238928
H62   H     H_    0.303698 0.812225 0.808254 0.149225
H63   H     H_    0.323194 0.684601 0.809288 0.170163
H64   H     H_    0.334360 0.744536 0.852917 0.139438
H65   H     H_    0.024306 0.917340 0.733792 0.108484
H66   H     H_    0.891568 0.048202 0.693019 0.113533
H67   H     H_    0.633826 0.064307 0.710139 0.110815
H68   H     H_    0.802650 0.998960 0.644343 0.125065
H69   H     H_    0.846068 0.818490 0.637215 0.109929
H70   H     H_    0.980085 0.686074 0.677373 0.113396
H71   H     H_    0.503765 0.397502 0.305093 0.260066
H72   H     H_    0.344675 0.499092 0.277188 0.159081
H73   H     H_    0.373356 0.407529 0.239402 0.148269
H74   H     H_    0.434127 0.486641 0.240404 0.145575
H75   H     H_    0.952404 0.710265 0.332876 0.110060
H76   H     H_    0.874760 0.626284 0.369355 0.115093
H77   H     H_    0.921908 0.447017 0.354278 0.098960
H78   H     H_    0.647518 0.042104 0.779269 0.117893
H79   H     H_    0.043193 0.353097 0.301321 0.099220
H80   H     H_    0.122190 0.435291 0.264657 0.095348
H81   H     H_    0.085009 0.778083 0.467320 0.094375
H82   H     H_    0.035786 0.933186 0.506500 0.103577
H83   H     H_    0.068227 0.068771 0.482630 0.102563
H84   H     H_    0.150728 0.048813 0.419285 0.099619
H85   H     H_    0.201643 0.893813 0.379837 0.094217
H86   H     H_    0.523682 0.188341 0.666226 0.103576
N1    N     N_R   0.748291 0.596084 0.768087 -0.240295
N2    N     N_R   0.744180 0.593631 0.730133 -0.242189
N3    N     N_R   0.584948 0.743055 0.731757 -0.241927
N4    N     N_R   0.589183 0.745658 0.769765 -0.245485
N5    N     N_2   0.183723 0.799806 0.833317 -0.528208
N6    N     N_2   0.488950 0.368184 0.280645 -0.533035
O1    O     O_R   0.502070 0.323090 0.541280 -0.520966
O2    O     O_R   0.831550 0.656950 0.958960 -0.521183
O3    O     O_R   0.998590 0.685540 0.963930 -0.500122
O4    O     O_R   0.338340 0.520690 0.539540 -0.504249
O5    O     O_R   0.008220 0.831200 0.045060 -0.523150
O6    O     O_R   0.813270 0.997930 0.038810 -0.503798
O7    O     O_R   0.657500 0.016560 0.039940 -0.521608
O8    O     O_R   0.685680 0.820940 0.038120 -0.503177
O9    O     O_R   0.822130 0.666070 0.043610 -0.519001
O10   O     O_R   0.989860 0.694000 0.042400 -0.500942
O11   O     O_3   0.833990 0.833400 0.000560 -0.234468
O12   O     O_R   0.520720 0.641670 0.461580 -0.498789
O13   O     O_R   0.324760 0.674070 0.543580 -0.520094
O14   O     O_R   0.522400 0.640310 0.540110 -0.503185
O15   O     O_R   0.675940 0.500630 0.542210 -0.520924
O16   O     O_R   0.641790 0.337020 0.538150 -0.503134
O17   O     O_R   0.500260 0.324550 0.456580 -0.522096
O18   O     O_R   0.336660 0.522040 0.461020 -0.508699
O19   O     O_R   0.322940 0.675540 0.458880 -0.498467
O20   O     O_R   0.674120 0.502090 0.457500 -0.523407
O21   O     O_R   0.640110 0.338380 0.459630 -0.503990
O22   O     O_3   0.499990 0.499990 0.499990 -0.235555
O23   O     O_R   0.017640 0.822070 0.960410 -0.522011
O24   O     O_R   0.822000 0.989470 0.960340 -0.503135
O25   O     O_R   0.666920 0.007430 0.955290 -0.521081
O26   O     O_R   0.694410 0.812480 0.959650 -0.502174

loop_
_geom_bond_atom_site_label_1
_geom_bond_atom_site_label_2
_ccdc_geom_bond_type
C38   H81   S    
Cr6   O3    S    
C99   C103  A    
C115  H54   S    
C49   C53   S    
C101  C102  A    
C63   H60   S    
C64   H56   S    
C84   O18   A    
C22   C94   S    
C41   C42   A    
C92   C94   A    
C111  H19   S    
C45   O2    A    
C87   C88   A    
C10   H35   S    
C128  C129  A    
C29   H72   S    
C135  C136  A    
Cr3   O15   S    
C42   H85   S    
C56   C57   A    
C68   C75   A    
C26   C27   A    
C37   C38   A    
C115  C126  A    
Cr4   O24   S    
C62   C67   A    
C67   H12   S    
C27   C28   A    
C73   H67   S    
C50   O5    A    
C134  H36   S    
C17   C104  S    
H61   N5    S    
C50   O10   A    
C69   C70   A    
C38   C39   A    
C4    H40   S    
C98   C99   A    
C106  H18   S    
C52   N1    A    
C29   H73   S    
C76   H86   S    
C106  C107  A    
Cr6   O9    S    
C78   C81   A    
C101  H8    S    
Cr4   O6    S    
C112  H22   S    
C116  C117  A    
C43   C126  A    
C18   C19   A    
C73   C74   A    
C46   O3    A    
C21   H63   S    
C40   H83   S    
C2    C13   A    
C110  C111  A    
C66   H3    S    
Cr2   O13   S    
C54   C55   A    
C21   N5    S    
C48   C105  S    
C68   H45   S    
C1    O13   A    
C16   C17   A    
C18   H57   S    
C35   C49   A    
C15   H46   S    
Cr5   O11   S    
C85   H6    S    
C116  H25   S    
C59   O14   A    
C69   H34   S    
C88   H16   S    
C20   C60   A    
C25   H66   S    
C1    C103  S    
C90   C97   A    
C34   C36   A    
C72   C81   S    
C83   C85   A    
C34   H79   S    
C92   C102  S    
C53   N2    A    
C71   C82   A    
C114  C124  S    
C88   C89   A    
C132  H1    S    
Cr6   O2    S    
C66   C67   A    
C105  C111  A    
C107  H24   S    
C82   C93   A    
C22   C28   A    
C46   C83   S    
C43   C84   S    
C107  C109  A    
C21   H62   S    
C93   H53   S    
C70   C73   A    
C48   O9    A    
Cr2   O22   S    
C93   C104  A    
C96   O12   A    
C112  C113  A    
Cr1   O17   S    
N1    N2    A    
C120  C132  A    
C109  C118  S    
C33   C34   A    
C57   C58   A    
C33   H77   S    
C59   C120  S    
C35   H37   S    
C7    C12   A    
C83   C89   A    
C129  H38   S    
C89   H7    S    
C86   N5    S    
Cr4   O23   S    
C108  O17   A    
C70   C80   S    
Cr4   O11   S    
C76   C80   A    
C123  C124  A    
Cr3   O20   S    
C9    C49   A    
C76   C77   A    
C48   O8    A    
C74   C75   A    
C11   C136  S    
C91   C92   A    
C47   O7    A    
C123  H20   S    
C86   C87   A    
C52   N4    A    
C29   H74   S    
C60   C71   A    
C44   C62   S    
C25   C26   A    
C85   C86   A    
C100  C103  A    
Cr5   O7    S    
C13   H48   S    
C79   C80   A    
C13   C24   A    
C95   H11   S    
C3    C4    A    
C21   H64   S    
C30   C82   S    
Cr3   O21   S    
C121  C125  A    
C62   C63   A    
Cr2   O12   S    
C113  H21   S    
C133  H33   S    
C51   C120  A    
C31   C32   A    
C14   C15   A    
C77   C81   A    
C2    C43   A    
C8    C12   A    
Cr6   O11   S    
C37   C42   A    
C27   H69   S    
C17   C18   A    
Cr5   O25   S    
C135  N6    S    
C26   H68   S    
C79   H23   S    
C3    H39   S    
C6    C7    A    
C119  C121  A    
C52   C58   S    
C78   H5    S    
C19   H47   S    
C7    H42   S    
C126  H55   S    
C90   H10   S    
C5    C130  S    
C121  H29   S    
C53   N3    A    
C30   C31   A    
C99   H15   S    
C108  O21   A    
C35   C51   A    
C59   O15   A    
C60   H50   S    
Cr3   O16   S    
Cr1   O1    S    
Cr2   O14   S    
C74   H78   S    
H71   N6    S    
Cr2   O19   S    
C131  H43   S    
C20   H51   S    
C6    C11   A    
Cr1   O18   S    
C45   O26   A    
C12   C108  S    
C113  C114  A    
C54   C58   A    
C9    C132  A    
C98   H13   S    
C40   C41   A    
C55   H14   S    
C23   H65   S    
Cr1   O4    S    
C36   H80   S    
C14   C19   A    
C68   C69   A    
C9    H26   S    
C22   C23   A    
C127  C133  A    
C4    C5    A    
C131  C133  A    
C65   C75   S    
C41   H84   S    
C114  C116  A    
C95   C97   A    
C47   C127  S    
C134  C135  A    
C20   C104  A    
C1    O4    A    
C28   H70   S    
C122  H31   S    
C105  C106  A    
C128  H32   S    
Cr5   O8    S    
C51   H4    S    
C72   O1    A    
C30   C36   A    
C6    H41   S    
C72   O16   A    
C32   C33   A    
C84   O19   A    
C122  C125  A    
C2    C37   S    
Cr3   O22   S    
C129  C130  A    
C77   H2    S    
C96   O20   A    
C98   C102  A    
C117  C118  A    
C64   C65   A    
C44   O25   A    
C91   H9    S    
C5    C134  A    
C78   C79   A    
C100  H17   S    
C90   C91   A    
C14   C50   S    
C8    H44   S    
C46   O23   A    
Cr6   O10   S    
C15   C16   A    
C55   C61   A    
C45   C61   S    
C100  C101  A    
Cr5   O26   S    
C96   C125  S    
C130  C131  A    
C119  C124  A    
Cr4   O5    S    
C94   C95   A    
C39   H82   S    
C29   N6    S    
Cr1   O22   S    
C16   H52   S    
C10   C11   A    
C119  H28   S    
C44   O24   A    
C63   C64   A    
C39   C40   A    
C117  H27   S    
C23   C25   A    
C54   H49   S    
C24   C71   S    
C24   C115  A    
C8    C10   A    
C65   C66   A    
C57   H59   S    
N3    N4    A    
C112  C118  A    
C56   C61   A    
C3    C136  A    
C31   H75   S    
C122  C123  A    
C109  C110  A    
C32   H76   S    
C127  C128  A    
C47   O6    A    
C56   H58   S    
C87   C97   S    
C110  H30   S    
