data_mof_unit_51232.cif
_audit_creation_date              2012-10-26T19:21:27-0400
_audit_creation_method            fapswitch 2.2
_symmetry_space_group_name_H-M    P1
_symmetry_Int_Tables_number       1
_space_group_crystal_system       triclinic
_cell_length_a                    9.982171
_cell_length_b                    10.808418
_cell_length_c                    15.800891
_cell_angle_alpha                 95.722172
_cell_angle_beta                  79.919616
_cell_angle_gamma                 109.890034
_cell_volume                      1576.85472645

loop_
_atom_site_label
_atom_site_type_symbol
_atom_type_description
_atom_site_fract_x
_atom_site_fract_y
_atom_site_fract_z
_atom_type_partial_charge
C1    C     C_R   0.556126 0.746197 0.502597 0.597496
C2    C     C_2   0.531245 0.068578 0.438989 0.227052
C3    C     C_2   0.942022 0.519388 0.481640 0.356673
C4    C     C_2   0.087228 0.527788 0.500124 0.362316
C5    C     C_R   0.412606 0.484717 0.661960 0.570249
C6    C     C_R   0.586952 0.517936 0.337475 0.596746
C7    C     C_R   0.358650 0.454915 0.752572 0.033261
C8    C     C_R   0.634687 0.531328 0.243387 0.031569
C9    C     C_R   0.185404 0.312283 0.858798 -0.141953
C10   C     C_R   0.828082 0.577532 0.121627 -0.121508
C11   C     C_R   0.225976 0.356384 0.775214 -0.171112
C12   C     C_R   0.447312 0.254216 0.490924 0.569497
C13   C     C_R   0.781884 0.568195 0.209869 -0.112754
C14   C     C_R   0.448396 0.511347 0.814832 0.202934
C15   C     C_R   0.533660 0.508814 0.185738 0.208928
C16   C     C_R   0.420433 0.451202 0.893998 0.053950
C17   C     C_R   0.578319 0.497043 0.096398 0.050892
C18   C     C_R   0.282400 0.357961 0.918261 0.015922
C19   C     C_R   0.727502 0.542929 0.064590 0.018737
C20   C     C_R   0.524548 0.481266 0.950108 0.059078
C21   C     C_R   0.478868 0.448136 0.037135 0.055659
C22   C     C_3   0.286388 0.021608 0.530545 -0.312258
C23   C     C_R   0.339592 0.357653 0.060575 -0.079262
C24   C     C_3   0.173376 0.962094 0.470932 -0.371635
C25   C     C_3   0.673381 0.981880 0.561111 -0.337650
C26   C     C_3   0.591775 0.966475 0.652667 -0.421410
C27   C     C_3   0.073455 0.311082 0.443658 -0.129597
C28   C     C_3   0.120567 0.267765 0.351685 -0.312138
C29   C     C_3   0.852046 0.557895 0.629305 -0.123348
C30   C     C_3   0.865762 0.696162 0.667812 -0.333705
C31   C     C_R   0.673782 0.530538 0.920056 -0.088407
C32   C     C_R   0.244009 0.310794 0.001205 -0.116722
C33   C     C_R   0.773930 0.556649 0.976294 -0.121118
C34   C     C_2   0.584029 0.888635 0.497950 0.001240
C35   C     C_2   0.424905 0.112267 0.483121 -0.011650
C36   C     C_2   0.525778 0.931102 0.439442 0.244693
Cl1   Cl    Cl    0.366067 0.536345 0.220318 -0.520104
Cl2   Cl    Cl    0.566149 0.675135 0.802563 -0.681601
Cl3   Cl    Cl    0.679640 0.170818 0.371484 -0.549153
Cl4   Cl    Cl    0.455044 0.828650 0.352257 -0.468496
Cl5   Cl    Cl    0.171842 0.669748 0.560901 -0.650322
Cl6   Cl    Cl    0.928766 0.485809 0.372099 -0.546457
Cu1   Cu    Cu3+1 0.362980 0.479380 0.485080 1.073739
Cu2   Cu    Cu3+1 0.637020 0.520620 0.514920 1.023162
H1    H     H_    0.139296 0.238704 0.020566 0.132202
H2    H     H_    0.153280 0.041018 0.440489 0.144103
H3    H     H_    0.209032 0.897095 0.419900 0.240629
H4    H     H_    0.306956 0.942736 0.560508 0.196238
H5    H     H_    0.241661 0.077914 0.584156 0.130005
H6    H     H_    0.491989 0.992073 0.657112 0.152649
H7    H     H_    0.563009 0.863783 0.672433 0.215999
H8    H     H_    0.660664 0.033611 0.697622 0.155704
H9    H     H_    0.775317 0.960413 0.558571 0.155832
H10   H     H_    0.704900 0.086498 0.544762 0.163052
H11   H     H_    0.105367 0.330090 0.304995 0.238595
H12   H     H_    0.887855 0.591061 0.950882 0.125540
H13   H     H_    0.235363 0.274082 0.341789 0.183898
H14   H     H_    0.054413 0.164001 0.338782 0.130303
H15   H     H_    0.088520 0.247195 0.489266 0.128047
H16   H     H_    0.955247 0.290748 0.453855 0.156341
H17   H     H_    0.965299 0.770066 0.637502 0.169410
H18   H     H_    0.773556 0.724637 0.657304 0.218331
H19   H     H_    0.869278 0.699317 0.737813 0.155250
H20   H     H_    0.756115 0.484732 0.663085 0.160700
H21   H     H_    0.938559 0.525877 0.645127 0.124252
H22   H     H_    0.862513 0.597007 0.251775 0.210825
H23   H     H_    0.154671 0.312297 0.728030 0.125196
H24   H     H_    0.080941 0.238506 0.875838 0.129407
H25   H     H_    0.942674 0.611718 0.097984 0.149379
H26   H     H_    0.306619 0.316360 0.123517 0.156918
H27   H     H_    0.714477 0.540889 0.852183 0.147499
H28   H     H_    0.070564 0.902652 0.508442 0.158815
N1    N     N_2   0.842890 0.551600 0.537350 -0.230278
N2    N     N_2   0.157110 0.448400 0.462650 -0.187510
O1    O     O_R   0.426810 0.668300 0.492040 -0.383395
O2    O     O_R   0.573190 0.331700 0.507960 -0.464622
O3    O     O_R   0.658240 0.703130 0.517240 -0.514611
O4    O     O_R   0.341760 0.296870 0.482760 -0.539276
O5    O     O_R   0.319390 0.472820 0.610170 -0.488264
O6    O     O_R   0.680610 0.527180 0.389830 -0.433564
O7    O     O_R   0.550820 0.507640 0.635370 -0.511960
O8    O     O_R   0.449180 0.492360 0.364630 -0.433077

loop_
_geom_bond_atom_site_label_1
_geom_bond_atom_site_label_2
_ccdc_geom_bond_type
C2    C35   D    
C22   H4    S    
C3    Cl6   S    
C8    C13   A    
C6    O8    A    
C1    O3    A    
C32   H1    S    
C28   H13   S    
Cu1   O4    S    
C7    C11   A    
C22   C35   S    
C22   C24   S    
Cu2   O3    S    
C25   H9    S    
C27   H16   S    
C26   H6    S    
C29   N1    S    
C4    Cl5   S    
Cu1   O5    S    
Cu2   O2    S    
C15   Cl1   S    
C2    Cl3   S    
C7    C14   A    
C12   O4    A    
C31   C33   A    
C5    O5    A    
C27   N2    S    
C4    N2    D    
C25   C34   S    
C33   H12   S    
C31   H27   S    
C29   H20   S    
C30   H19   S    
C23   H26   S    
C28   H11   S    
C11   H23   S    
C1    C34   S    
C13   H22   S    
Cu1   O1    S    
C1    O1    A    
Cu2   O6    S    
C25   H10   S    
Cu2   O7    S    
C19   C33   A    
C5    C7    S    
C6    C8    S    
C25   C26   S    
C17   C21   A    
Cu1   Cu2   S    
C29   C30   S    
C26   H8    S    
C14   Cl2   S    
C5    O7    A    
C6    O6    A    
C36   Cl4   S    
C10   C19   A    
C16   C20   A    
C12   C35   S    
C9    C11   A    
C22   H5    S    
C29   H21   S    
C8    C15   A    
C21   C23   A    
C12   O2    A    
C14   C16   A    
C18   C32   A    
C3    C4    S    
C24   H28   S    
C2    C36   S    
C15   C17   A    
C24   H3    S    
C10   C13   A    
C28   H14   S    
C24   H2    S    
C23   C32   A    
C30   H18   S    
C9    H24   S    
C27   H15   S    
C26   H7    S    
Cu1   N2    S    
C17   C19   A    
C34   C36   D    
Cu2   N1    S    
C3    N1    D    
C10   H25   S    
C9    C18   A    
C20   C21   A    
C16   C18   A    
C30   H17   S    
C27   C28   S    
Cu1   O8    S    
C20   C31   A    
