data_mof_unit_58129.cif
_audit_creation_date              2012-10-26T20:18:13-0400
_audit_creation_method            fapswitch 2.2
_symmetry_space_group_name_H-M    P1
_symmetry_Int_Tables_number       1
_space_group_crystal_system       triclinic
_cell_length_a                    23.507149
_cell_length_b                    8.691216
_cell_length_c                    7.41356
_cell_angle_alpha                 102.575994
_cell_angle_beta                  93.743591
_cell_angle_gamma                 92.55624
_cell_volume                      1472.44693243

loop_
_atom_site_label
_atom_site_type_symbol
_atom_type_description
_atom_site_fract_x
_atom_site_fract_y
_atom_site_fract_z
_atom_type_partial_charge
C1    C     C_R   0.495510 0.199844 0.454431 0.560731
C2    C     C_R   0.700145 0.547084 0.345964 0.195029
C3    C     C_R   0.240220 0.464965 0.653643 -0.013457
C4    C     C_R   0.759553 0.546356 0.348901 -0.028455
C5    C     C_R   0.209063 0.507693 0.506929 0.194491
C6    C     C_R   0.791095 0.502411 0.494039 0.193350
C7    C     C_2   0.487348 0.031997 0.434168 0.209750
C8    C     C_2   0.514418 0.965329 0.560679 0.231393
C9    C     C_R   0.390919 0.498993 0.503309 0.572135
C10   C     C_R   0.609075 0.501211 0.496774 0.542707
C11   C     C_R   0.883252 0.644871 0.532126 0.405343
C12   C     C_R   0.503955 0.799757 0.545004 0.581713
C13   C     C_R   0.116847 0.365626 0.467127 0.406400
C14   C     C_R   0.877617 0.362465 0.461489 0.406189
C15   C     C_R   0.122534 0.648012 0.537845 0.406653
C16   C     C_R   0.937214 0.360292 0.461847 0.031167
C17   C     C_R   0.062913 0.650237 0.536988 0.030753
C18   C     C_R   0.970040 0.504876 0.498690 -0.028073
C19   C     C_R   0.030072 0.505668 0.500012 -0.027977
C20   C     C_R   0.942981 0.648661 0.534306 0.032096
C21   C     C_R   0.057121 0.361876 0.464481 0.030013
C22   C     C_R   0.964609 0.217616 0.425813 -0.125735
C23   C     C_R   0.237272 0.548428 0.362386 -0.059313
C24   C     C_R   0.035508 0.792913 0.572881 -0.124962
C25   C     C_R   0.023970 0.218396 0.427097 -0.128613
C26   C     C_R   0.976136 0.792137 0.571560 -0.128698
C27   C     C_3   0.446796 0.941077 0.131033 0.027495
C28   C     C_3   0.395451 0.013060 0.050110 -0.245214
C29   C     C_3   0.397766 0.001601 0.842669 -0.423853
C30   C     C_3   0.606450 0.072380 0.640713 0.003953
C31   C     C_3   0.643812 0.935727 0.658149 -0.272470
C32   C     C_3   0.704847 0.968590 0.611672 -0.416021
C33   C     C_R   0.763272 0.459221 0.637923 -0.073504
C34   C     C_R   0.296432 0.545425 0.363688 -0.154699
C35   C     C_R   0.704097 0.459824 0.636853 -0.181480
C36   C     C_R   0.328404 0.501899 0.509892 0.012854
C37   C     C_R   0.671665 0.502293 0.490932 0.002468
C38   C     C_R   0.299577 0.461641 0.656745 0.208373
Cl1   Cl    Cl    0.334622 0.399565 0.843536 -0.666003
Cl2   Cl    Cl    0.664616 0.613871 0.163412 -0.663030
Cu1   Cu    Cu3+1 0.506340 0.517380 0.684380 1.013968
Cu2   Cu    Cu3+1 0.493660 0.482620 0.315620 1.017912
H1    H     H_    0.940289 0.105015 0.396175 0.171806
H2    H     H_    0.781512 0.581172 0.238735 0.162370
H3    H     H_    0.456989 0.374528 0.948223 0.274053
H4    H     H_    0.542862 0.625865 0.051838 0.273114
H5    H     H_    0.446074 0.814112 0.061243 0.186921
H6    H     H_    0.487674 0.995928 0.099232 0.155502
H7    H     H_    0.355496 0.949604 0.074084 0.194002
H8    H     H_    0.394198 0.139195 0.121386 0.210788
H9    H     H_    0.358687 0.048334 0.787641 0.210041
H10   H     H_    0.400029 0.876691 0.768332 0.165466
H11   H     H_    0.435445 0.072956 0.817027 0.178760
H12   H     H_    0.059830 0.905509 0.602571 0.172841
H13   H     H_    0.626939 0.182661 0.730275 0.179119
H14   H     H_    0.604552 0.090149 0.495850 0.107442
H15   H     H_    0.644476 0.916804 0.801797 0.206136
H16   H     H_    0.625559 0.826544 0.561159 0.177252
H17   H     H_    0.705200 0.983248 0.466572 0.195136
H18   H     H_    0.730819 0.867834 0.626650 0.201166
H19   H     H_    0.724459 0.077295 0.707267 0.164949
H20   H     H_    0.043746 0.106360 0.398419 0.164369
H21   H     H_    0.956356 0.904168 0.600266 0.163919
H22   H     H_    0.213246 0.581405 0.248392 0.153124
H23   H     H_    0.787610 0.425994 0.751149 0.148989
H24   H     H_    0.317236 0.578193 0.250249 0.190388
H25   H     H_    0.683702 0.426407 0.750527 0.171812
H26   H     H_    0.217979 0.433057 0.764929 0.161791
N1    N     N_R   0.852032 0.503271 0.496107 -0.399842
N2    N     N_R   0.148103 0.507179 0.503547 -0.403296
N3    N     N_2   0.484110 0.456420 0.038520 -0.237132
N4    N     N_2   0.515890 0.543580 0.961480 -0.244774
O1    O     O_R   0.504120 0.286130 0.619770 -0.482215
O2    O     O_2   0.143546 0.229139 0.432753 -0.463761
O3    O     O_2   0.845402 0.225235 0.425694 -0.479333
O4    O     O_2   0.154776 0.785183 0.573922 -0.464153
O5    O     O_3   0.440907 0.950133 0.321753 -0.597384
O6    O     O_3   0.551975 0.049056 0.705077 -0.583605
O7    O     O_R   0.495880 0.713870 0.380230 -0.504000
O8    O     O_R   0.493410 0.256770 0.308360 -0.525278
O9    O     O_R   0.506590 0.743230 0.691640 -0.512985
O10   O     O_R   0.423230 0.514630 0.655730 -0.468772
O11   O     O_R   0.576770 0.485370 0.344270 -0.453865
O12   O     O_R   0.412530 0.485280 0.344320 -0.492360
O13   O     O_R   0.587470 0.514720 0.655680 -0.496594
O14   O     O_2   0.856533 0.781321 0.566743 -0.487288

loop_
_geom_bond_atom_site_label_1
_geom_bond_atom_site_label_2
_ccdc_geom_bond_type
C27   H6    S    
C6    N1    S    
C10   O13   A    
Cu2   O8    S    
H3    N3    S    
Cu1   Cu2   S    
C3    H26   S    
C34   H24   S    
C33   H23   S    
C7    C8    D    
C29   H11   S    
C10   C37   S    
C31   H16   S    
C28   C29   S    
C19   C21   A    
C24   C26   A    
C32   H19   S    
C38   Cl1   S    
C13   N2    A    
C11   O14   S    
C24   H12   S    
C12   O7    A    
C10   O11   A    
C18   C20   A    
C18   C19   A    
C33   C35   A    
C28   H8    S    
C31   C32   S    
C3    C38   A    
C22   C25   A    
C9    C36   S    
H4    N4    S    
C9    O10   A    
C7    O5    S    
C15   O4    S    
Cu2   O7    S    
C8    O6    S    
C11   C20   A    
C17   C24   A    
Cu2   O12   S    
C4    C6    A    
C4    H2    S    
C3    C5    A    
C30   H14   S    
C2    C4    A    
C26   H21   S    
C5    N2    S    
C28   H7    S    
C22   H1    S    
C5    C23   A    
C35   H25   S    
C8    C12   S    
C23   C34   A    
Cu1   O9    S    
C13   C21   A    
Cu1   N4    S    
C23   H22   S    
C14   N1    A    
C14   C16   A    
C32   H18   S    
C29   H9    S    
C27   H5    S    
C15   C17   A    
C15   N2    A    
C21   C25   A    
C16   C22   A    
C35   C37   A    
C1    C7    S    
Cu2   O11   S    
C27   O5    S    
C11   N1    A    
Cu1   O13   S    
C30   H13   S    
C6    C33   A    
C1    O1    A    
C14   O3    S    
C31   H15   S    
C36   C38   A    
N3    N4    D    
C2    C37   A    
C30   C31   S    
C20   C26   A    
Cu1   O10   S    
Cu2   N3    S    
C17   C19   A    
C12   O9    A    
C34   C36   A    
C25   H20   S    
C9    O12   A    
Cu1   O1    S    
C30   O6    S    
C2    Cl2   S    
C13   O2    S    
C16   C18   A    
C27   C28   S    
C1    O8    A    
C32   H17   S    
C29   H10   S    
