data_mof_unit_40111.cif
_audit_creation_date              2012-12-11T16:48:26-0500
_audit_creation_method            fapswitch 2.2
_symmetry_space_group_name_H-M    P1
_symmetry_Int_Tables_number       1
_space_group_crystal_system       triclinic
_cell_length_a                    17.35241
_cell_length_b                    24.430082
_cell_length_c                    15.013283
_cell_angle_alpha                 89.899055
_cell_angle_beta                  125.693023
_cell_angle_gamma                 90.490036
_cell_volume                      5168.68158703

loop_
_atom_site_label
_atom_site_type_symbol
_atom_type_description
_atom_site_fract_x
_atom_site_fract_y
_atom_site_fract_z
_atom_type_partial_charge
C1    C     C_R   0.310524 0.376153 0.906443 -0.141937
C2    C     C_R   0.534983 0.499578 0.708320 0.062167
C3    C     C_R   0.086170 0.861662 0.909546 -0.133047
C4    C     C_R   0.311107 0.361176 0.995196 0.072995
C5    C     C_R   0.676310 0.348051 0.004961 0.074105
C6    C     C_R   0.811055 0.861262 0.995206 0.072613
C7    C     C_R   0.171079 0.844286 0.002358 0.067329
C8    C     C_2   0.295988 0.668771 0.794418 0.910127
C9    C     C_2   0.700523 0.671627 0.204467 0.902053
C10   C     C_2   0.794865 0.170170 0.796600 0.912731
C11   C     C_2   0.200840 0.171613 0.204531 0.902984
C12   C     C_R   0.063495 0.999401 0.365209 0.062570
C13   C     C_R   0.036819 0.999619 0.710247 0.061120
C14   C     C_R   0.203516 0.497768 0.631415 0.120400
C15   C     C_R   0.825716 0.499374 0.314967 0.111853
C16   C     C_R   0.703562 0.997842 0.631453 0.121523
C17   C     C_R   0.326208 0.999433 0.308601 0.109559
C18   C     C_2   0.975947 0.457689 0.380950 -0.117956
C19   C     C_2   0.077794 0.453094 0.464357 -0.115551
C20   C     C_2   0.477390 0.957707 0.378097 -0.121464
C21   C     C_R   0.680485 0.366424 0.093508 -0.138178
C22   C     C_2   0.578841 0.953256 0.463609 -0.108908
C23   C     C_2   0.927749 0.499179 0.384918 -0.181445
C24   C     C_2   0.129879 0.498075 0.514445 -0.185843
C25   C     C_2   0.428342 0.999955 0.377677 -0.179140
C26   C     C_2   0.630765 0.998205 0.514274 -0.188543
C27   C     C_R   0.377155 0.753821 0.107913 0.146182
C28   C     C_R   0.621372 0.757685 0.889277 0.171448
C29   C     C_R   0.874968 0.253174 0.113299 0.158540
C30   C     C_R   0.121201 0.257707 0.889186 0.169767
C31   C     C_R   0.364636 0.739667 0.010296 0.028315
C32   C     C_R   0.810481 0.876227 0.906452 -0.142222
C33   C     C_R   0.635895 0.740920 0.987027 0.039433
C34   C     C_R   0.862020 0.237892 0.015628 0.036329
C35   C     C_R   0.135644 0.240983 0.986914 0.037044
C36   C     C_R   0.306359 0.771907 0.916780 -0.138665
C37   C     C_R   0.676749 0.779173 0.073801 -0.145464
C38   C     C_R   0.816362 0.274772 0.927308 -0.150916
C39   C     C_R   0.176584 0.279231 0.073690 -0.141636
C40   C     C_R   0.758846 0.315155 0.925162 -0.186425
C41   C     C_R   0.228477 0.323816 0.074266 -0.189157
C42   C     C_R   0.243293 0.807754 0.913670 -0.171622
C43   C     C_R   0.177032 0.862957 0.092324 -0.129129
C44   C     C_R   0.728499 0.823828 0.074325 -0.189697
C45   C     C_R   0.752615 0.319418 0.013946 0.039006
C46   C     C_R   0.233377 0.331340 0.984880 0.028616
C47   C     C_R   0.243687 0.813779 0.006691 0.035992
C48   C     C_R   0.733348 0.831405 0.984906 0.029057
C49   C     C_R   0.442383 0.650312 0.091570 -0.113966
C50   C     C_R   0.558076 0.650440 0.908800 -0.146645
C51   C     C_R   0.942376 0.149534 0.092708 -0.137104
C52   C     C_R   0.057733 0.150519 0.908756 -0.146453
C53   C     C_R   0.820986 0.293875 0.112517 0.135850
C54   C     C_R   0.383304 0.682821 0.001590 -0.041817
C55   C     C_R   0.168924 0.302427 0.887845 0.147513
C56   C     C_R   0.316487 0.790937 0.106103 0.147605
C57   C     C_R   0.668951 0.802469 0.887890 0.147102
C58   C     C_3   0.811198 0.264970 0.193539 -0.510292
C59   C     C_3   0.182065 0.275481 0.807825 -0.507360
C60   C     C_3   0.396892 0.822178 0.201435 -0.529260
C61   C     C_3   0.682135 0.775584 0.807852 -0.507359
C62   C     C_3   0.462803 0.782129 0.202954 -0.466964
C63   C     C_3   0.629690 0.726581 0.809425 -0.510963
C64   C     C_3   0.870118 0.219942 0.194167 -0.493761
C65   C     C_R   0.619230 0.683219 0.998056 -0.017590
C66   C     C_3   0.129466 0.226544 0.809353 -0.510116
C67   C     C_R   0.590941 0.448788 0.612868 0.155630
C68   C     C_R   0.601310 0.448757 0.528721 0.161602
C69   C     C_R   0.091472 0.948808 0.613476 0.157442
C70   C     C_R   0.100750 0.948826 0.528482 0.161219
C71   C     C_R   0.580316 0.498237 0.651706 0.036532
C72   C     C_R   0.599598 0.498153 0.480334 0.034820
C73   C     C_R   0.081827 0.998253 0.653231 0.036142
C74   C     C_R   0.098961 0.998234 0.480124 0.034867
C75   C     C_R   0.605700 0.547042 0.624565 -0.196035
C76   C     C_R   0.880506 0.181551 0.003894 -0.025680
C77   C     C_R   0.615194 0.547032 0.538310 -0.193777
C78   C     C_R   0.106788 0.047052 0.625586 -0.196066
C79   C     C_R   0.115142 0.047082 0.538438 -0.193462
C80   C     C_3   0.543489 0.397381 0.479603 -0.508361
C81   C     C_3   0.531565 0.397560 0.571037 -0.518508
C82   C     C_3   0.042193 0.897716 0.479220 -0.508116
C83   C     C_3   0.031392 0.897823 0.571525 -0.518538
C84   C     C_R   0.550655 0.454031 0.303130 -0.163088
C85   C     C_R   0.506718 0.454069 0.737648 -0.141816
C86   C     C_R   0.050272 0.954054 0.303015 -0.163164
C87   C     C_R   0.118917 0.183300 0.997975 -0.017888
C88   C     C_R   0.008829 0.954088 0.739796 -0.140309
C89   C     C_R   0.247587 0.543692 0.694457 -0.120144
C90   C     C_R   0.769815 0.545175 0.272955 -0.108077
C91   C     C_R   0.747483 0.043752 0.694617 -0.124446
C92   C     C_R   0.269994 0.045163 0.269482 -0.108660
C93   C     C_R   0.546386 0.545116 0.301752 -0.096189
C94   C     C_R   0.512327 0.545609 0.742803 -0.105452
C95   C     C_R   0.046014 0.045151 0.301576 -0.097426
C96   C     C_R   0.013125 0.045625 0.743650 -0.104763
C97   C     C_R   0.249012 0.452973 0.696387 -0.129551
C98   C     C_R   0.564117 0.499348 0.365443 0.062450
C99   C     C_R   0.767690 0.453866 0.277462 -0.129373
C100  C     C_R   0.749050 0.953010 0.696343 -0.130343
C101  C     C_R   0.268358 0.953721 0.272274 -0.125010
C102  C     C_R   0.351146 0.651077 0.909090 -0.007801
C103  C     C_R   0.649059 0.651988 0.090668 -0.028558
C104  C     C_R   0.849585 0.150873 0.910280 -0.015078
C105  C     C_R   0.148924 0.152041 0.090613 -0.030728
C106  C     C_R   0.400643 0.374089 0.089881 -0.119238
C107  C     C_R   0.590244 0.363727 0.910939 -0.130682
C108  C     C_R   0.900617 0.874128 0.089881 -0.118717
H1    H     H_    0.251935 0.373770 0.820973 0.110655
H2    H     H_    0.676604 0.772616 0.144716 0.146764
H3    H     H_    0.816225 0.269417 0.855945 0.145685
H4    H     H_    0.176403 0.272700 0.144585 0.148869
H5    H     H_    0.713662 0.339028 0.851429 0.128997
H6    H     H_    0.271257 0.348620 0.147650 0.132988
H7    H     H_    0.192870 0.829142 0.838169 0.122536
H8    H     H_    0.771234 0.848645 0.147700 0.132694
H9    H     H_    0.848212 0.287053 0.273308 0.186194
H10   H     H_    0.142305 0.296483 0.727094 0.188199
H11   H     H_    0.404187 0.864330 0.178936 0.203883
H12   H     H_    0.733950 0.357983 0.177993 0.099122
H13   H     H_    0.642298 0.796579 0.727113 0.188374
H14   H     H_    0.737013 0.251936 0.158346 0.207180
H15   H     H_    0.257520 0.266543 0.843147 0.206913
H16   H     H_    0.396489 0.819397 0.275077 0.184744
H17   H     H_    0.757605 0.766716 0.843142 0.207172
H18   H     H_    0.508821 0.800776 0.181663 0.198828
H19   H     H_    0.559727 0.719644 0.729751 0.194386
H20   H     H_    0.940555 0.216108 0.274343 0.190389
H21   H     H_    0.059494 0.219649 0.729669 0.194058
H22   H     H_    0.500822 0.756101 0.277525 0.193030
H23   H     H_    0.751878 0.873879 0.820980 0.110768
H24   H     H_    0.675039 0.689709 0.845702 0.204624
H25   H     H_    0.829629 0.180919 0.159371 0.208178
H26   H     H_    0.174710 0.189633 0.845630 0.204540
H27   H     H_    0.606879 0.585947 0.659608 0.129281
H28   H     H_    0.622293 0.585973 0.509303 0.133414
H29   H     H_    0.108432 0.085934 0.661015 0.129416
H30   H     H_    0.122035 0.086027 0.509269 0.133472
H31   H     H_    0.475062 0.403508 0.398042 0.199679
H32   H     H_    0.567183 0.362550 0.628160 0.194050
H33   H     H_    0.973521 0.904211 0.398097 0.199569
H34   H     H_    0.228012 0.851237 0.176254 0.095678
H35   H     H_    0.066902 0.862592 0.628034 0.192377
H36   H     H_    0.586534 0.362502 0.484478 0.195867
H37   H     H_    0.456415 0.404178 0.539974 0.201561
H38   H     H_    0.084535 0.862687 0.483099 0.195907
H39   H     H_    0.956591 0.904735 0.541576 0.201674
H40   H     H_    0.487298 0.663285 0.176394 0.144886
H41   H     H_    0.510530 0.663644 0.824772 0.160857
H42   H     H_    0.990049 0.162490 0.177194 0.153218
H43   H     H_    0.009861 0.163764 0.824770 0.158972
H44   H     H_    0.574086 0.412841 0.331950 0.108952
H45   H     H_    0.962709 0.533430 0.441181 0.141892
H46   H     H_    0.507623 0.412408 0.717857 0.101836
H47   H     H_    0.073551 0.912855 0.331915 0.109140
H48   H     H_    0.012122 0.912395 0.722139 0.102243
H49   H     H_    0.237568 0.584440 0.662228 0.139803
H50   H     H_    0.794683 0.586800 0.291820 0.130698
H51   H     H_    0.737226 0.084582 0.662670 0.142559
H52   H     H_    0.294932 0.086770 0.287822 0.130069
H53   H     H_    0.562062 0.587304 0.328619 0.113157
H54   H     H_    0.522976 0.588073 0.732391 0.095019
H55   H     H_    0.061601 0.087344 0.328426 0.112716
H56   H     H_    0.105344 0.537875 0.475666 0.139445
H57   H     H_    0.023596 0.088096 0.733054 0.095066
H58   H     H_    0.242375 0.411252 0.668688 0.086999
H59   H     H_    0.788992 0.412814 0.307998 0.089428
H60   H     H_    0.742592 0.911330 0.668533 0.087237
H61   H     H_    0.290398 0.912290 0.299013 0.089704
H62   H     H_    0.425386 0.368140 0.173997 0.101984
H63   H     H_    0.560574 0.349208 0.829259 0.095703
H64   H     H_    0.925361 0.868163 0.173992 0.101965
H65   H     H_    0.053462 0.846722 0.827378 0.093119
H66   H     H_    0.938909 0.423187 0.325842 0.124890
H67   H     H_    0.462537 0.035196 0.431232 0.140689
H68   H     H_    0.103433 0.412696 0.498740 0.119199
H69   H     H_    0.440885 0.922336 0.326165 0.123704
H70   H     H_    0.603966 0.912898 0.498571 0.120457
H71   H     H_    0.169738 0.693685 0.661772 0.319587
H72   H     H_    0.817116 0.709316 0.332256 0.323075
H73   H     H_    0.671672 0.200852 0.668120 0.320185
H74   H     H_    0.317571 0.209422 0.331903 0.323486
H75   H     H_    0.607248 0.038001 0.475260 0.138813
H76   H     H_    0.303811 0.766995 0.843810 0.143310
N1    N     N_R   0.395410 0.396350 0.944340 -0.043331
N2    N     N_R   0.474920 0.471030 0.794350 -0.042534
N3    N     N_R   0.025080 0.971030 0.205650 -0.043595
N4    N     N_R   0.974920 0.971030 0.794350 -0.042752
N5    N     N_R   0.320260 0.527820 0.794570 -0.048378
N6    N     N_R   0.679740 0.527820 0.205430 -0.041139
N7    N     N_R   0.820260 0.027820 0.794570 -0.047300
N8    N     N_R   0.179740 0.027820 0.205430 -0.040548
N9    N     N_R   0.524590 0.527840 0.205200 -0.038127
N10   N     N_R   0.475410 0.527840 0.794800 -0.037808
N11   N     N_R   0.024590 0.027840 0.205200 -0.037866
N12   N     N_R   0.604590 0.396350 0.055660 -0.040693
N13   N     N_R   0.975410 0.027840 0.794800 -0.037272
N14   N     N_R   0.320750 0.471000 0.795020 -0.047629
N15   N     N_R   0.679250 0.471000 0.204980 -0.045862
N16   N     N_R   0.820750 0.971000 0.795020 -0.047643
N17   N     N_R   0.179250 0.971000 0.204980 -0.046487
N18   N     N_R   0.393620 0.602490 0.942710 -0.073393
N19   N     N_R   0.606380 0.602490 0.057290 -0.068011
N20   N     N_R   0.893620 0.102490 0.942710 -0.071454
N21   N     N_R   0.106380 0.102490 0.057290 -0.067669
N22   N     N_R   0.451720 0.396350 0.057510 -0.043589
N23   N     N_R   0.895410 0.896350 0.944340 -0.043230
N24   N     N_R   0.548280 0.396350 0.942490 -0.041024
N25   N     N_R   0.951720 0.896350 0.057510 -0.043558
N26   N     N_R   0.048280 0.896350 0.942490 -0.040498
N27   N     N_R   0.104590 0.896350 0.055660 -0.041174
N28   N     N_R   0.449930 0.602500 0.055880 -0.048790
N29   N     N_R   0.550070 0.602500 0.944120 -0.049294
N30   N     N_R   0.949930 0.102500 0.055880 -0.047163
N31   N     N_R   0.050070 0.102500 0.944120 -0.048592
N32   N     N_R   0.525080 0.471030 0.205650 -0.043333
Ni1   Ni    Ni4+2 0.435420 0.434270 0.870230 0.208435
Ni2   Ni    Ni4+2 0.564580 0.434270 0.129770 0.209537
Ni3   Ni    Ni4+2 0.935420 0.934270 0.870230 0.208291
Ni4   Ni    Ni4+2 0.064580 0.934270 0.129770 0.210312
Ni5   Ni    Ni4+2 0.563430 0.564580 0.128740 0.256103
Ni6   Ni    Ni4+2 0.436570 0.564580 0.871260 0.248397
Ni7   Ni    Ni4+2 0.063430 0.064580 0.128740 0.255643
Ni8   Ni    Ni4+2 0.936570 0.064580 0.871260 0.249030
O1    O     O_2   0.333399 0.671317 0.746346 -0.689595
O2    O     O_R   0.200445 0.682146 0.740533 -0.802341
O3    O     O_2   0.669681 0.661480 0.258013 -0.683165
O4    O     O_R   0.787648 0.698764 0.253181 -0.807642
O5    O     O_2   0.830502 0.170169 0.746457 -0.689727
O6    O     O_R   0.702134 0.188465 0.746362 -0.800225
O7    O     O_2   0.170840 0.161012 0.258779 -0.681991
O8    O     O_R   0.287657 0.199029 0.252649 -0.808102

loop_
_geom_bond_atom_site_label_1
_geom_bond_atom_site_label_2
_ccdc_geom_bond_type
N5    N14   A    
C76   C104  A    
C81   H32   S    
C83   H35   S    
N12   N24   A    
C11   O8    S    
C55   C59   S    
C62   H22   S    
C36   C42   A    
C6    C108  A    
C41   H6    S    
C22   H70   S    
N13   Ni8   S    
N31   Ni8   S    
C108  N25   A    
C33   C65   S    
C48   C57   A    
C39   C41   A    
C72   C98   S    
C28   C57   A    
N22   Ni2   S    
N27   Ni4   S    
C17   C92   A    
C6    C48   S    
C30   C35   A    
C60   H11   S    
C88   H48   S    
C60   C62   S    
N32   Ni2   S    
C21   H12   S    
C12   C74   S    
C10   C104  S    
C52   H43   S    
C59   C66   S    
C5    C107  A    
C4    C46   S    
C75   H27   S    
C20   C25   D    
C97   H58   S    
N20   N30   A    
C10   O6    S    
N19   Ni5   S    
C2    C85   A    
C61   H13   S    
C18   C19   S    
C14   C24   S    
C61   C63   S    
N18   Ni6   S    
C19   H68   S    
C17   C101  A    
C1    H1    S    
C66   H26   S    
C35   C87   S    
C3    H65   S    
C51   H42   S    
C80   H36   S    
C46   C55   A    
C70   C74   A    
C11   O7    D    
C41   C46   A    
C12   C95   A    
C69   C73   A    
C36   H76   S    
C77   H28   S    
C7    C43   A    
N9    Ni5   S    
N11   Ni7   S    
C43   N27   A    
C94   H54   S    
C91   H51   S    
C9    C103  S    
N10   Ni6   S    
C66   H21   S    
C26   H75   S    
C3    N26   A    
C15   C23   S    
C29   C64   S    
C45   C53   A    
C86   N3    A    
C31   C54   S    
C34   C38   A    
N20   Ni8   S    
C59   H15   S    
C106  H62   S    
C8    O1    D    
C24   H56   S    
N15   Ni2   S    
C82   H33   S    
C92   N8    A    
C97   N14   A    
C82   H38   S    
C54   C102  A    
N6    N15   A    
C99   H59   S    
N28   Ni5   S    
C58   C64   S    
C96   N13   A    
N2    Ni1   S    
C58   H14   S    
C13   C96   A    
C27   C31   A    
C67   C68   A    
C84   N32   A    
C2    C94   A    
C100  H60   S    
N7    N16   A    
N8    Ni7   S    
C52   N31   A    
N6    Ni5   S    
C15   C99   A    
C62   H18   S    
C8    O2    S    
C27   C56   A    
N8    N17   A    
C107  H63   S    
C50   N29   A    
C64   H20   S    
C73   C78   A    
C4    C106  A    
C29   C34   A    
H72   O4    S    
C10   O5    D    
C33   C37   A    
N26   Ni3   S    
C56   C60   S    
C49   H40   S    
C29   C53   A    
C7    C47   S    
C90   H50   S    
C35   C39   A    
C86   H47   S    
C14   C89   A    
C11   C105  S    
C72   C77   A    
C69   C83   S    
C27   C62   S    
C95   H55   S    
N29   Ni6   S    
C25   H67   S    
C40   H5    S    
C87   C105  A    
C93   H53   S    
H73   O6    S    
C68   C72   A    
C37   H2    S    
C89   H49   S    
C9    O3    D    
C63   H24   S    
C51   C76   A    
C32   N23   A    
C101  H61   S    
C75   C77   A    
N21   N31   A    
C107  N24   A    
C30   C66   S    
N1    Ni1   S    
C83   H39   S    
C18   H66   S    
C51   N30   A    
H74   O8    S    
C39   H4    S    
C20   C22   S    
C28   C33   A    
C67   C81   S    
C59   H10   S    
C81   H37   S    
C74   C79   A    
C108  H64   S    
N19   N29   A    
N5    Ni6   S    
N14   Ni1   S    
C60   H16   S    
C65   C103  A    
C68   C80   S    
C78   H29   S    
C104  N20   A    
N9    N32   A    
C90   N6    A    
N4    Ni3   S    
C85   N2    A    
C64   H25   S    
C6    C32   A    
C95   N11   A    
N3    N11   A    
C94   N10   A    
N25   Ni4   S    
N23   Ni3   S    
N1    N22   A    
N2    N10   A    
C52   C87   A    
C93   N9    A    
C71   C75   A    
N17   Ni4   S    
N18   N28   A    
C80   C81   S    
C43   H34   S    
C16   C26   S    
C14   C97   A    
C106  N22   A    
N12   Ni2   S    
C53   C58   S    
C57   C61   S    
C20   H69   S    
C85   H46   S    
C105  N21   A    
C1    N1    A    
C80   H31   S    
C30   C55   A    
C3    C7    A    
C96   H57   S    
C12   C86   A    
C92   H52   S    
C1    C4    A    
C84   C98   A    
C37   C44   A    
C23   H45   S    
C19   C24   D    
C102  N18   A    
C17   C25   S    
N24   Ni1   S    
C101  N17   A    
C82   C83   S    
C15   C90   A    
C38   C40   A    
C78   C79   A    
C50   H41   S    
C5    C45   S    
N4    N13   A    
H71   O2    S    
C18   C23   D    
C93   C98   A    
C13   C88   A    
C2    C71   S    
N30   Ni7   S    
N21   Ni7   S    
C9    O4    S    
C67   C71   A    
C42   C47   A    
C58   H9    S    
C21   N12   A    
C91   N7    A    
C69   C70   A    
C70   C82   S    
C50   C65   A    
C103  N19   A    
C100  N16   A    
N3    Ni4   S    
C16   C100  A    
C28   C63   S    
C44   C48   A    
C42   H7    S    
C88   N4    A    
C79   H30   S    
C5    C21   A    
C40   C45   A    
C44   H8    S    
C16   C91   A    
N26   N27   A    
C22   C26   D    
C99   N15   A    
N23   N25   A    
N16   Ni3   S    
C89   N5    A    
C31   C36   A    
C84   H44   S    
C61   H17   S    
C13   C73   S    
C49   N28   A    
C38   H3    S    
C8    C102  S    
N7    Ni8   S    
C32   H23   S    
C63   H19   S    
C49   C54   A    
C34   C76   S    
C47   C56   A    
