data_mof_unit_59253.cif
_audit_creation_date              2012-10-26T18:44:48-0400
_audit_creation_method            fapswitch 2.2
_symmetry_space_group_name_H-M    P1
_symmetry_Int_Tables_number       1
_space_group_crystal_system       triclinic
_cell_length_a                    16.021225
_cell_length_b                    14.725629
_cell_length_c                    10.85377
_cell_angle_alpha                 90.965123
_cell_angle_beta                  90.154241
_cell_angle_gamma                 89.419597
_cell_volume                      2560.14703294

loop_
_atom_site_label
_atom_site_type_symbol
_atom_type_description
_atom_site_fract_x
_atom_site_fract_y
_atom_site_fract_z
_atom_type_partial_charge
C1    C     C_1   0.252107 0.500926 0.500778 0.040612
C2    C     C_R   0.571694 0.047464 0.468431 0.254812
C3    C     C_R   0.955018 0.560408 0.577984 -0.018872
C4    C     C_R   0.044740 0.438720 0.423091 -0.021728
C5    C     C_R   0.042767 0.561422 0.577987 -0.021738
C6    C     C_R   0.956973 0.437746 0.423103 -0.019853
C7    C     C_R   0.340921 0.500301 0.500428 0.570412
C8    C     C_R   0.659036 0.499579 0.499546 0.571881
C9    C     C_R   0.484208 0.499535 0.264205 0.550389
C10   C     C_R   0.498931 0.501124 0.739742 0.545312
C11   C     C_R   0.912414 0.498660 0.500464 -0.013352
C12   C     C_1   0.747775 0.498643 0.499609 0.010474
C13   C     C_R   0.087399 0.500527 0.500585 -0.016474
C14   C     C_1   0.499785 0.802697 0.500102 0.189477
C15   C     C_1   0.499208 0.197326 0.499977 0.184172
C16   C     C_1   0.822576 0.498299 0.499885 -0.026156
C17   C     C_1   0.177276 0.501078 0.500880 -0.016504
C18   C     C_R   0.416321 0.661289 0.129622 -0.001305
C19   C     C_R   0.558212 0.349540 0.901580 -0.006322
C20   C     C_R   0.429534 0.662830 0.878388 -0.009723
C21   C     C_R   0.454587 0.330013 0.106658 -0.003435
C22   C     C_R   0.423673 0.745178 0.071572 -0.029927
C23   C     C_R   0.490256 0.503804 0.875866 -0.019139
C24   C     C_R   0.549344 0.263427 0.955017 -0.027145
C25   C     C_R   0.431286 0.745888 0.943341 -0.042790
C26   C     C_R   0.492907 0.252720 0.052736 -0.030814
C27   C     C_R   0.455257 0.582077 0.938749 -0.029874
C28   C     C_R   0.472930 0.417321 0.061736 -0.024598
C29   C     C_R   0.445794 0.580784 0.068593 -0.023011
C30   C     C_R   0.507934 0.423916 0.944165 -0.025660
C31   C     C_1   0.086884 0.625045 0.657568 0.217449
C32   C     C_1   0.912526 0.374310 0.343587 0.209185
C33   C     C_1   0.908543 0.622629 0.657847 0.213813
C34   C     C_R   0.461433 0.498447 0.131304 -0.022278
C35   C     C_1   0.091084 0.376449 0.343183 0.214996
C36   C     C_1   0.477863 0.163500 0.102208 0.234392
C37   C     C_1   0.427259 0.830771 0.877779 0.236869
C38   C     C_1   0.596464 0.185818 0.907541 0.227958
C39   C     C_1   0.412204 0.829410 0.140848 0.222448
C40   C     C_3   0.688791 0.123731 0.528967 -0.001373
C41   C     C_3   0.748429 0.196534 0.486552 -0.329245
C42   C     C_3   0.308212 0.881849 0.466238 0.011404
C43   C     C_3   0.225859 0.842807 0.508707 -0.329133
C44   C     C_3   0.313077 0.135718 0.474136 0.001916
C45   C     C_R   0.499696 0.902837 0.500394 -0.069067
C46   C     C_3   0.219731 0.137077 0.499277 -0.344886
C47   C     C_3   0.686930 0.871994 0.536948 -0.002933
C48   C     C_3   0.778223 0.856060 0.504305 -0.343086
C49   C     C_1   0.356497 0.656728 0.228851 0.219820
C50   C     C_1   0.628419 0.364165 0.820317 0.234410
C51   C     C_1   0.367781 0.657763 0.781328 0.254811
C52   C     C_1   0.387742 0.319233 0.194947 0.233864
C53   C     C_R   0.498598 0.097184 0.499778 -0.074935
C54   C     C_R   0.572519 0.951128 0.469532 0.250530
C55   C     C_R   0.425996 0.048886 0.532075 0.249046
C56   C     C_R   0.426510 0.952568 0.531291 0.263630
Cu1   Cu    Cu3+1 0.500000 0.589220 0.500000 1.036023
Cu2   Cu    Cu3+1 0.500000 0.410780 0.500000 1.027246
H1    H     H_    0.726237 0.066879 0.567066 0.145797
H2    H     H_    0.237539 0.781709 0.564824 0.209494
H3    H     H_    0.323666 0.100434 0.383531 0.132238
H4    H     H_    0.333696 0.207112 0.467266 0.178909
H5    H     H_    0.206481 0.175206 0.586321 0.175456
H6    H     H_    0.186281 0.170652 0.422482 0.139926
H7    H     H_    0.196590 0.066626 0.507304 0.157433
H8    H     H_    0.660335 0.806073 0.564655 0.152513
H9    H     H_    0.684190 0.919936 0.617582 0.118273
H10   H     H_    0.806838 0.920694 0.475475 0.166250
H11   H     H_    0.812562 0.830256 0.585721 0.132379
H12   H     H_    0.649507 0.154016 0.603993 0.140370
H13   H     H_    0.783545 0.805251 0.427851 0.175957
H14   H     H_    0.712654 0.254587 0.448149 0.189344
H15   H     H_    0.786385 0.221404 0.565722 0.122441
H16   H     H_    0.790862 0.168150 0.414567 0.183692
H17   H     H_    0.341435 0.828573 0.411091 0.162069
H18   H     H_    0.294007 0.940815 0.406591 0.141382
H19   H     H_    0.190986 0.894126 0.564909 0.168074
H20   H     H_    0.187405 0.823168 0.427446 0.116255
N1    N     N_1   0.500000 0.276710 0.500000 -0.194196
N2    N     N_1   0.403285 0.896842 0.195671 -0.297128
N3    N     N_1   0.306287 0.655029 0.305039 -0.303627
N4    N     N_1   0.684900 0.375424 0.756314 -0.291940
N5    N     N_1   0.316466 0.655341 0.706390 -0.265122
N6    N     N_1   0.333994 0.310819 0.264654 -0.291323
N7    N     N_1   0.500000 0.723290 0.500000 -0.192305
N8    N     N_1   0.121744 0.675896 0.721227 -0.265626
N9    N     N_1   0.877055 0.323784 0.280178 -0.282296
N10   N     N_1   0.871451 0.672127 0.721575 -0.287412
N11   N     N_1   0.127992 0.326857 0.279363 -0.265240
N12   N     N_1   0.465957 0.092418 0.142033 -0.237542
N13   N     N_1   0.424302 0.898869 0.826263 -0.207822
N14   N     N_1   0.633963 0.123878 0.869664 -0.293092
O1    O     O_R   0.380310 0.575320 0.500020 -0.465239
O2    O     O_3   0.356016 0.907768 0.570231 -0.504509
O3    O     O_3   0.354908 0.094035 0.573612 -0.515263
O4    O     O_3   0.644281 0.905313 0.432427 -0.510058
O5    O     O_R   0.619690 0.424680 0.499980 -0.486049
O6    O     O_R   0.619690 0.575320 0.499980 -0.493217
O7    O     O_R   0.380310 0.424680 0.500020 -0.498159
O8    O     O_R   0.499990 0.575350 0.319650 -0.493565
O9    O     O_R   0.500010 0.424650 0.680350 -0.492180
O10   O     O_R   0.500010 0.575350 0.680350 -0.501699
O11   O     O_R   0.499990 0.424650 0.319650 -0.495483
O12   O     O_3   0.641345 0.092586 0.426954 -0.510153

loop_
_geom_bond_atom_site_label_1
_geom_bond_atom_site_label_2
_ccdc_geom_bond_type
C6    C32   S    
C21   C26   A    
C27   C29   A    
C48   H11   S    
C55   C56   A    
C43   H20   S    
C56   O2    S    
Cu1   O10   S    
C42   H17   S    
C7    O7    A    
C15   C53   S    
C33   N10   T    
C24   C26   A    
C20   C51   S    
C20   C25   A    
C3    C33   S    
C38   N14   T    
C49   N3    T    
C4    C13   A    
C52   N6    T    
C8    O6    A    
C1    C7    S    
C41   H16   S    
C15   N1    T    
C12   C16   T    
C45   C56   A    
C22   C25   A    
C24   C38   S    
C47   O4    S    
C23   C27   A    
C47   H8    S    
C5    C13   A    
C9    O11   A    
C25   C37   S    
C4    C35   S    
C28   C34   A    
C31   N8    T    
Cu1   O1    S    
Cu2   O5    S    
C47   H9    S    
C44   C46   S    
C14   C45   S    
C53   C55   A    
C7    O1    A    
C37   N13   T    
C23   C30   A    
C10   O10   A    
C46   H7    S    
C4    C6    A    
C2    C54   A    
C6    C11   A    
C18   C29   A    
C44   H4    S    
Cu1   O8    S    
C29   C34   A    
C46   H6    S    
Cu1   O6    S    
C8    O5    A    
C40   O12   S    
C11   C16   S    
C47   C48   S    
C2    O12   S    
C8    C12   S    
Cu2   O9    S    
C48   H10   S    
C40   H12   S    
Cu2   N1    S    
C41   H14   S    
C43   H2    S    
C26   C36   S    
C40   C41   S    
C35   N11   T    
C21   C28   A    
C45   C54   A    
C9    O8    A    
C9    C34   S    
C10   C23   S    
C42   C43   S    
C48   H13   S    
C51   N5    T    
C50   N4    T    
C36   N12   T    
C42   O2    S    
C42   H18   S    
C10   O9    A    
Cu2   O7    S    
C14   N7    T    
C3    C5    A    
C2    C53   A    
C20   C27   A    
C44   H3    S    
C43   H19   S    
C1    C17   T    
C13   C17   S    
C46   H5    S    
C39   N2    T    
C18   C22   A    
C19   C24   A    
C44   O3    S    
C32   N9    T    
C19   C50   S    
Cu1   Cu2   S    
C22   C39   S    
C28   C30   A    
C55   O3    S    
Cu1   N7    S    
C3    C11   A    
C41   H15   S    
C40   H1    S    
Cu2   O11   S    
C19   C30   A    
C54   O4    S    
C21   C52   S    
C18   C49   S    
C5    C31   S    
