data_mof_unit_40042.cif
_audit_creation_date              2013-03-05T16:47:21-0500
_audit_creation_method            fapswitch 2.2
_symmetry_space_group_name_H-M    P1
_symmetry_Int_Tables_number       1
_space_group_crystal_system       triclinic
_cell_length_a                    10.88787
_cell_length_b                    10.921907
_cell_length_c                    9.695309
_cell_angle_alpha                 89.807645
_cell_angle_beta                  90.971008
_cell_angle_gamma                 89.98742
_cell_volume                      1152.75820488

loop_
_atom_site_label
_atom_site_type_symbol
_atom_site_description
_atom_site_fract_x
_atom_site_fract_y
_atom_site_fract_z
_atom_type_partial_charge
O1    O     O_R   0.500020 0.321960 0.617040 -0.584284
O2    O     O_R   0.499980 0.321920 0.382900 -0.583069
C1    C     C_R   0.502825 0.265338 0.500359 0.846840
O3    O     O_R   0.319660 0.500030 0.617070 -0.592518
O4    O     O_R   0.319620 0.499990 0.382930 -0.558827
C2    C     C_R   0.262162 0.500661 0.498466 0.790999
Cu1   Cu    Cu3+1 0.500020 0.500020 0.638630 0.936764
Cu2   Cu    Cu3+1 0.499980 0.499980 0.361370 0.931873
O5    O     O_R   0.500020 0.678080 0.617100 -0.586791
O6    O     O_R   0.499980 0.678040 0.382960 -0.577729
O7    O     O_R   0.680380 0.500010 0.617070 -0.561068
O8    O     O_R   0.680340 0.499970 0.382930 -0.596958
C3    C     C_R   0.499538 0.734685 0.499893 0.849683
C4    C     C_R   0.737715 0.498356 0.501509 0.793338
H1    H     H_    0.231939 0.595124 0.867225 0.148751
C5    C     C_R   0.191223 0.678818 0.062919 0.215201
C6    C     C_R   0.147203 0.657834 0.196352 -0.137739
H2    H     H_    0.139761 0.733100 0.268276 0.117067
C7    C     C_R   0.111131 0.539923 0.236515 0.100627
C8    C     C_R   0.117370 0.443047 0.142573 -0.124102
H3    H     H_    0.087996 0.352000 0.171908 0.125527
C9    C     C_R   0.160773 0.463493 0.010028 -0.173661
H4    H     H_    0.166380 0.387926 0.938586 0.127525
C10   C     C_R   0.197681 0.580783 0.970122 -0.152250
C11   C     C_R   0.931082 0.517132 0.379525 -0.245252
H5    H     H_    0.878620 0.533170 0.285417 0.158330
C12   C     C_R   0.871586 0.496833 0.504100 -0.085043
C13   C     C_R   0.941424 0.476726 0.626332 -0.005824
C14   C     C_R   0.068453 0.478285 0.620146 -0.252031
H6    H     H_    0.120897 0.460286 0.713525 0.155760
C15   C     C_R   0.128093 0.500112 0.495768 -0.084550
C16   C     C_R   0.057979 0.518982 0.373434 0.006287
C17   C     C_R   0.876322 0.548960 0.857587 -0.107643
H7    H     H_    0.907879 0.640171 0.831993 0.114504
C18   C     C_R   0.824299 0.527195 0.986123 -0.152348
H8    H     H_    0.815245 0.601558 0.058682 0.116025
C19   C     C_R   0.784094 0.409638 0.020770 -0.118243
H9    H     H_    0.744453 0.392663 0.120604 0.151174
C20   C     C_R   0.794644 0.313959 0.926273 -0.133927
H10   H     H_    0.762960 0.223151 0.953045 0.117230
C21   C     C_R   0.845848 0.335539 0.797128 -0.121294
H11   H     H_    0.853472 0.260974 0.724393 0.109985
C22   C     C_R   0.886757 0.453303 0.762237 0.136863
C23   C     C_2   0.522100 0.933205 0.389727 -0.176786
C24   C     C_2   0.494269 0.866792 0.501283 -0.323643
H12   H     H_    0.548654 0.888434 0.294911 0.166193
H13   H     H_    0.464595 0.908064 0.596452 0.144704
C25   C     C_2   0.514093 0.067079 0.387691 -0.159181
C26   C     C_2   0.512205 0.133361 0.503613 -0.326002
H14   H     H_    0.511683 0.111640 0.287316 0.158704
H15   H     H_    0.521717 0.091956 0.604856 0.144576
C27   C     C_2   0.456690 0.410266 0.921782 -0.068318
N1    N     N_2   0.498640 0.498660 0.846910 -0.275158
H16   H     H_    0.419283 0.330166 0.870469 0.144834
H17   H     H_    0.531019 0.576275 0.894335 0.195873
C28   C     C_2   0.453058 0.412053 0.077231 -0.053998
N2    N     N_2   0.498610 0.498630 0.153040 -0.283394
H18   H     H_    0.408969 0.335404 0.127646 0.147583
H19   H     H_    0.544118 0.569456 0.106673 0.185942
C29   C     C_3   0.229012 0.805610 0.019060 -0.448295
C30   C     C_3   0.344514 0.846818 0.096949 -0.817790
H20   H     H_    0.326379 0.853085 0.209049 0.258964
H21   H     H_    0.420764 0.781145 0.080074 0.247977
H22   H     H_    0.372824 0.938584 0.059398 0.227657
H23   H     H_    0.247522 0.808474 0.906626 0.199191
H24   H     H_    0.152944 0.870810 0.038739 0.195165

loop_
_geom_bond_atom_site_label_1
_geom_bond_atom_site_label_2
_geom_bond_distance
_ccdc_geom_bond_type
O4    Cu2   1.978349 S    
C3    C24   1.444107 S    
C19   H9    1.081903 S    
Cu2   N2    2.019729 S    
C11   C12   1.397251 A    
C21   H11   1.083152 S    
C13   C22   1.476580 S    
C7    C8    1.400790 A    
O8    C4    1.299150 A    
Cu2   O8    1.971303 S    
C30   H20   1.110265 S    
C11   C16   1.384049 A    
C25   H14   1.086533 S    
C6    H2    1.083661 S    
C1    C26   1.445228 S    
C29   H24   1.111517 S    
Cu1   Cu2   2.688116 S    
C5    C10   1.403372 A    
O1    Cu1   1.956686 S    
C8    H3    1.083202 S    
C30   H22   1.110667 S    
Cu1   O7    1.978348 S    
C21   C22   1.403419 A    
C13   C14   1.385493 A    
C14   H6    1.079617 S    
C30   H21   1.111584 S    
O3    Cu1   1.971304 S    
C7    C16   1.474267 S    
Cu2   O6    1.956686 S    
H1    C10   1.081882 S    
C17   C18   1.397265 A    
C27   H16   1.083943 S    
C29   H23   1.112247 S    
C2    C15   1.459534 S    
O2    C1    1.293757 A    
N1    H17   1.025451 S    
O4    C2    1.292280 A    
C4    C12   1.457455 S    
O7    C4    1.291956 A    
C9    C10   1.397993 A    
N2    H19   1.025362 S    
O3    C2    1.299912 A    
C5    C6    1.405316 A    
C28   N2    1.293386 D    
Cu1   N1    2.019653 S    
C6    C7    1.402278 A    
C17   C22   1.403215 A    
C27   C28   1.508503 S    
C20   H10   1.082354 S    
C17   H7    1.083242 S    
C27   N1    1.293968 D    
C20   C21   1.398525 A    
C19   C20   1.398047 A    
C5    C29   1.506656 S    
C24   H13   1.082481 S    
C12   C13   1.413669 A    
Cu1   O5    1.955228 S    
C26   H15   1.082721 S    
O5    C3    1.291757 A    
C9    H4    1.081623 S    
C25   C26   1.339359 D    
C23   H12   1.086142 S    
C18   C19   1.398329 A    
C11   H5    1.081971 S    
C14   C15   1.399046 A    
C28   H18   1.084225 S    
O6    C3    1.293428 A    
C15   C16   1.414070 A    
O2    Cu2   1.955227 S    
C23   C24   1.339288 D    
C23   C25   1.464779 S    
C8    C9    1.394022 A    
C29   C30   1.524679 S    
O1    C1    1.291889 A    
C18   H8    1.081843 S    
