data_mof_unit_63030.cif
_audit_creation_date              2012-12-11T14:24:04-0500
_audit_creation_method            fapswitch 2.2
_symmetry_space_group_name_H-M    P1
_symmetry_Int_Tables_number       1
_space_group_crystal_system       triclinic
_cell_length_a                    6.948644
_cell_length_b                    17.454119
_cell_length_c                    18.879553
_cell_angle_alpha                 105.336966
_cell_angle_beta                  89.717325
_cell_angle_gamma                 90.469296
_cell_volume                      2208.13021775

loop_
_atom_site_label
_atom_site_type_symbol
_atom_type_description
_atom_site_fract_x
_atom_site_fract_y
_atom_site_fract_z
_atom_type_partial_charge
O1    O     O_R   0.494360 0.416740 0.414860 -0.545019
O2    O     O_R   0.818980 0.432970 0.557290 -0.528821
O3    O     O_R   0.994290 0.583260 0.585140 -0.544624
C1    C     C_R   0.649986 0.415938 0.580619 0.714568
O4    O     O_R   0.823740 0.407570 0.413690 -0.507252
O5    O     O_R   0.999090 0.557670 0.440510 -0.523183
C2    C     C_R   0.655190 0.384527 0.386661 0.761300
O6    O     O_R   0.489560 0.442330 0.559490 -0.522834
O7    O     O_3   0.662450 0.549280 0.508970 -0.359821
V1    V     V_3+5 0.935350 0.490860 0.498340 1.431983
O8    O     O_R   0.329100 0.567030 0.442710 -0.527948
C3    C     C_R   0.160954 0.584078 0.419393 0.713928
O9    O     O_R   0.324330 0.592430 0.586310 -0.507732
C4    C     C_R   0.155732 0.615439 0.613340 0.761030
V2    V     V_3+5 0.435960 0.509140 0.501660 1.431137
O10   O     O_3   0.158990 0.450720 0.491030 -0.359761
C5    C     C_2   0.278803 0.790473 0.785041 -0.202425
C6    C     C_2   0.113008 0.817778 0.819576 -0.354821
H1    H     H_    0.412753 0.818864 0.807844 0.148381
H2    H     H_    0.975698 0.791638 0.799094 0.130078
C7    C     C_2   0.297421 0.723864 0.716544 0.316411
C8    C     C_2   0.143369 0.683537 0.680007 -0.339386
H3    H     H_    0.998828 0.699731 0.699477 0.097227
C9    C     C_1   0.110682 0.863935 0.132669 -0.213216
C10   C     C_1   0.118260 0.821379 0.176241 -0.000311
C11   C     C_1   0.127793 0.771177 0.228138 -0.001742
C12   C     C_1   0.135945 0.728898 0.271939 -0.001885
C13   C     C_1   0.145477 0.678679 0.323821 -0.001019
C14   C     C_1   0.153054 0.636095 0.367368 -0.216506
C15   C     C_1   0.641333 0.363991 0.632639 -0.216434
C16   C     C_1   0.636946 0.321396 0.676200 -0.001390
C17   C     C_1   0.633246 0.271154 0.728083 -0.001765
C18   C     C_1   0.630444 0.228836 0.771896 -0.001620
C19   C     C_1   0.626747 0.178606 0.823790 -0.000648
C20   C     C_1   0.622365 0.136027 0.867367 -0.213093
C21   C     C_2   0.778610 0.209634 0.215260 -0.203059
C22   C     C_2   0.613279 0.182248 0.180359 -0.354610
H4    H     H_    0.912367 0.181316 0.192785 0.148296
H5    H     H_    0.476214 0.208346 0.200513 0.130234
C23   C     C_2   0.796756 0.276294 0.283745 0.317088
C24   C     C_2   0.642615 0.316385 0.320013 -0.340129
H6    H     H_    0.498178 0.299956 0.300369 0.096905
O11   O     O_R   0.774180 0.057760 0.940580 -0.522471
O12   O     O_R   0.439830 0.092440 0.086330 -0.542328
O13   O     O_R   0.264640 0.942310 0.059470 -0.522854
C25   C     C_R   0.608320 0.114952 0.113536 0.767433
O14   O     O_R   0.444740 0.067040 0.942730 -0.526156
O15   O     O_R   0.269590 0.916730 0.914840 -0.534934
C26   C     C_R   0.613731 0.084092 0.919404 0.717421
O16   O     O_R   0.769230 0.083340 0.085210 -0.535451
O17   O     O_3   0.601340 0.950770 0.991070 -0.363042
V3    V     V_3+5 0.328370 0.009130 0.001660 1.405219
O18   O     O_R   0.939550 0.907490 0.913620 -0.542883
C27   C     C_R   0.108182 0.885062 0.886456 0.766556
O19   O     O_R   0.934640 0.932890 0.057220 -0.525370
C28   C     C_R   0.102778 0.915910 0.080600 0.716844
V4    V     V_3+5 0.827780 0.990750 0.998250 1.404342
O20   O     O_3   0.104690 0.049230 0.008930 -0.362922
N1    N     N_2   0.487893 0.703079 0.690422 -0.491636
H7    H     H_    0.584158 0.703137 0.731867 0.235926
C29   C     C_3   0.560499 0.747900 0.641445 -0.502409
H8    H     H_    0.703246 0.724510 0.619713 0.190918
H9    H     H_    0.576843 0.811650 0.671318 0.167595
H10   H     H_    0.461541 0.742165 0.594233 0.195889
N2    N     N_2   0.987002 0.297377 0.310184 -0.491231
H11   H     H_    0.084714 0.297582 0.268909 0.235850
C30   C     C_3   0.056447 0.252566 0.359171 -0.501973
H12   H     H_    0.199220 0.276169 0.381134 0.190976
H13   H     H_    0.071723 0.188868 0.329236 0.167361
H14   H     H_    0.956047 0.258049 0.406225 0.195816

loop_
_geom_bond_atom_site_label_1
_geom_bond_atom_site_label_2
_ccdc_geom_bond_type
C5    C6    D    
O5    V1    S    
C29   H10   S    
O2    C1    A    
O8    C3    A    
C20   C26   S    
O14   V3    S    
O17   V4    S    
C3    C14   S    
C9    C28   S    
C24   H6    S    
C25   O16   A    
C16   C17   S    
C22   C25   S    
O9    V2    S    
O15   V3    S    
C1    O6    A    
C30   H14   S    
C17   C18   T    
O12   V3    S    
O19   C28   A    
O19   V4    S    
C18   C19   S    
O7    V2    S    
N1    H7    S    
O14   C26   A    
O3    V1    S    
V1    O10   S    
O9    C4    A    
O15   C27   A    
C4    C8    S    
V4    O20   S    
C29   H8    S    
O3    C4    A    
V3    O20   S    
C21   C22   D    
O1    V2    S    
V2    O10   S    
O4    V1    S    
C13   C14   T    
C5    H1    S    
O12   C25   A    
C7    C8    D    
C7    N1    S    
O6    V2    S    
C6    H2    S    
C23   N2    S    
C2    C24   S    
O5    C3    A    
C15   C16   T    
C5    C7    S    
N1    C29   S    
N2    H11   S    
O11   V4    S    
C21   H4    S    
O2    V1    S    
C21   C23   S    
O17   V3    S    
C9    C10   T    
C22   H5    S    
C19   C20   T    
O7    V1    S    
C30   H13   S    
C12   C13   S    
O4    C2    A    
C23   C24   D    
C6    C27   S    
C8    H3    S    
O11   C26   A    
C11   C12   T    
O18   V4    S    
O13   V3    S    
O1    C2    A    
C10   C11   S    
O18   C27   A    
O16   V4    S    
O8    V2    S    
C29   H9    S    
C1    C15   S    
C30   H12   S    
O13   C28   A    
N2    C30   S    
