data_mof_unit_19220.cif
_audit_creation_date              2012-12-10T20:41:55-0500
_audit_creation_method            fapswitch 2.2
_symmetry_space_group_name_H-M    P1
_symmetry_Int_Tables_number       1
_space_group_crystal_system       triclinic
_cell_length_a                    15.047438
_cell_length_b                    15.19506
_cell_length_c                    9.877757
_cell_angle_alpha                 90.439032
_cell_angle_beta                  89.100342
_cell_angle_gamma                 90.049186
_cell_volume                      2258.17144429

loop_
_atom_site_label
_atom_site_type_symbol
_atom_type_description
_atom_site_fract_x
_atom_site_fract_y
_atom_site_fract_z
_atom_type_partial_charge
C1    C     C_R   0.381966 0.878009 0.500169 0.874697
C2    C     C_R   0.382330 0.122632 0.500555 0.866672
C3    C     C_R   0.881966 0.378009 0.500170 0.874695
C4    C     C_R   0.882330 0.622632 0.500555 0.866673
C5    C     C_3   0.271467 0.209714 0.751588 -0.525918
C6    C     C_3   0.251123 0.816840 0.739442 -0.521961
C7    C     C_3   0.771470 0.709718 0.751589 -0.525917
C8    C     C_3   0.751070 0.316892 0.739405 -0.521950
C9    C     C_R   0.426832 0.972541 0.073084 0.085898
C10   C     C_R   0.926830 0.472544 0.073084 0.085904
C11   C     C_R   0.575767 0.015704 0.070234 0.520583
C12   C     C_R   0.075769 0.515698 0.070234 0.520574
C13   C     C_R   0.575818 0.015525 0.926325 0.512042
C14   C     C_R   0.075820 0.515518 0.926325 0.512032
C15   C     C_R   0.426652 0.972800 0.930601 0.086457
C16   C     C_R   0.926651 0.472803 0.930601 0.086466
C17   C     C_3   0.336937 0.014023 0.930953 -0.481693
C18   C     C_3   0.836936 0.514028 0.930952 -0.481697
C19   C     C_3   0.336552 0.011433 0.084160 -0.440791
C20   C     C_3   0.836551 0.511438 0.084160 -0.440787
C21   C     C_R   0.622059 0.117940 0.499616 0.886603
C22   C     C_R   0.622714 0.882800 0.498881 0.881464
C23   C     C_R   0.122060 0.617940 0.499616 0.886602
C24   C     C_R   0.122714 0.382800 0.498881 0.881466
C25   C     C_R   0.304617 0.243666 0.618717 0.128603
C26   C     C_R   0.293617 0.769496 0.622292 0.133072
C27   C     C_R   0.804619 0.743668 0.618715 0.128605
C28   C     C_R   0.793590 0.269522 0.622298 0.133096
C29   C     C_R   0.328177 0.199899 0.499055 -0.107516
C30   C     C_R   0.326420 0.802296 0.500243 -0.112054
C31   C     C_R   0.828177 0.699898 0.499055 -0.107514
C32   C     C_R   0.826419 0.302298 0.500250 -0.112063
C33   C     C_R   0.301513 0.234813 0.374569 -0.224119
C34   C     C_R   0.306814 0.759065 0.378216 -0.234255
C35   C     C_R   0.801510 0.734810 0.374568 -0.224117
C36   C     C_R   0.806837 0.259044 0.378233 -0.234256
C37   C     C_R   0.737082 0.799698 0.373247 -0.200074
C38   C     C_R   0.742087 0.194357 0.377884 -0.193612
C39   C     C_R   0.237085 0.299701 0.373248 -0.200071
C40   C     C_R   0.242066 0.694378 0.377868 -0.193597
C41   C     C_R   0.700233 0.829305 0.496466 -0.115804
C42   C     C_R   0.697862 0.173681 0.499540 -0.130581
C43   C     C_R   0.200234 0.329305 0.496467 -0.115808
C44   C     C_R   0.197865 0.673678 0.499536 -0.130572
C45   C     C_R   0.740962 0.807800 0.617200 0.172430
C46   C     C_R   0.729766 0.205610 0.621975 0.200500
C47   C     C_R   0.240960 0.307798 0.617201 0.172437
C48   C     C_R   0.229795 0.705581 0.621970 0.200460
C49   C     C_3   0.701183 0.780708 0.749702 -0.443259
C50   C     C_3   0.680434 0.245933 0.739393 -0.440210
C51   C     C_3   0.201178 0.280703 0.749700 -0.443255
C52   C     C_3   0.180491 0.745877 0.739438 -0.440166
H1    H     H_    0.324696 0.207842 0.278654 0.167971
H2    H     H_    0.336443 0.779065 0.282611 0.180414
H3    H     H_    0.824690 0.707837 0.278653 0.167969
H4    H     H_    0.836487 0.279024 0.282634 0.180418
H5    H     H_    0.336281 0.077822 0.131937 0.204212
H6    H     H_    0.287354 0.964297 0.127202 0.203881
H7    H     H_    0.836281 0.577826 0.131937 0.204208
H8    H     H_    0.787352 0.464302 0.127202 0.203887
H9    H     H_    0.711580 0.820864 0.276846 0.191752
H10   H     H_    0.722781 0.165574 0.282148 0.230262
H11   H     H_    0.211586 0.320869 0.276848 0.191758
H12   H     H_    0.222740 0.665616 0.282126 0.230239
H13   H     H_    0.709846 0.831804 0.829599 0.235268
H14   H     H_    0.681898 0.203891 0.830867 0.255646
H15   H     H_    0.209840 0.331797 0.829601 0.235275
H16   H     H_    0.181984 0.703816 0.830891 0.255680
H17   H     H_    0.632572 0.754226 0.740606 0.201324
H18   H     H_    0.613526 0.270567 0.712035 0.191687
H19   H     H_    0.132568 0.254221 0.740599 0.201323
H20   H     H_    0.113573 0.770513 0.712136 0.191694
H21   H     H_    0.320535 0.220994 0.832825 0.206396
H22   H     H_    0.293302 0.815447 0.830791 0.218326
H23   H     H_    0.820540 0.720999 0.832824 0.206394
H24   H     H_    0.793227 0.315513 0.830780 0.218318
H25   H     H_    0.243073 0.142319 0.743366 0.207991
H26   H     H_    0.225161 0.882597 0.711266 0.200024
H27   H     H_    0.743075 0.642324 0.743371 0.207991
H28   H     H_    0.725121 0.382647 0.711187 0.200021
H29   H     H_    0.340595 0.081470 0.891910 0.207727
H30   H     H_    0.285273 0.971708 0.885577 0.201500
H31   H     H_    0.840596 0.581476 0.891911 0.207727
H32   H     H_    0.785271 0.471715 0.885575 0.201499
N1    N     N_R   0.499140 0.000000 0.142800 -0.185370
N2    N     N_R   0.999140 0.500000 0.142800 -0.185370
N3    N     N_R   0.499160 0.000000 0.857150 -0.184497
N4    N     N_R   0.999160 0.500000 0.857150 -0.184493
O1    O     O_R   0.408400 0.908380 0.614690 -0.613745
O2    O     O_R   0.408400 0.091620 0.614690 -0.620463
O3    O     O_R   0.908400 0.408380 0.614690 -0.613742
O4    O     O_R   0.908400 0.591620 0.614690 -0.620464
O5    O     O_R   0.408370 0.908370 0.385350 -0.622114
O6    O     O_R   0.408370 0.091630 0.385350 -0.628707
O7    O     O_R   0.908370 0.408370 0.385350 -0.622111
O8    O     O_R   0.908370 0.591630 0.385350 -0.628707
O9    O     O_R   0.591610 0.091610 0.614650 -0.568050
O10   O     O_R   0.591610 0.908390 0.614650 -0.593274
O11   O     O_R   0.091610 0.591610 0.614650 -0.568063
O12   O     O_R   0.091610 0.408390 0.614650 -0.593265
O13   O     O_R   0.591590 0.091600 0.385310 -0.573120
O14   O     O_R   0.591590 0.908400 0.385310 -0.597719
O15   O     O_R   0.091590 0.591600 0.385310 -0.573126
O16   O     O_R   0.091590 0.408400 0.385310 -0.597715
Zn1   Zn    Zn3+2 0.500010 0.000000 0.653130 0.991963
Zn2   Zn    Zn3+2 0.000010 0.500000 0.653130 0.991964
Zn3   Zn    Zn3+2 0.499980 0.000000 0.346870 0.992790
Zn4   Zn    Zn3+2 0.999980 0.500000 0.346870 0.992791
F1    F     F_    0.652382 0.032157 0.136011 -0.640890
F2    F     F_    0.152384 0.532146 0.136011 -0.640884
F3    F     F_    0.652589 0.031239 0.857214 -0.638398
F4    F     F_    0.152592 0.531222 0.857213 -0.638421

loop_
_geom_bond_atom_site_label_1
_geom_bond_atom_site_label_2
_ccdc_geom_bond_type
O13   Zn3   S    
C23   O11   A    
C22   O10   A    
C11   F1    S    
C12   F2    S    
C7    C27   S    
C19   H5    S    
C14   F4    S    
C28   C46   A    
C33   C39   A    
O10   Zn1   S    
C49   H13   S    
C2    C29   S    
C36   H4    S    
C32   C36   A    
C15   N3    A    
C35   C37   A    
C38   C42   A    
C6    H26   S    
C22   C41   S    
C29   C33   A    
C8    H24   S    
N4    Zn2   S    
C3    O3    A    
C17   H30   S    
C42   C46   A    
C2    O2    A    
C9    N1    A    
C4    O8    A    
C9    C19   S    
C23   O15   A    
C10   C20   S    
C18   H32   S    
O15   Zn4   S    
C20   H8    S    
C25   C47   A    
C40   C44   A    
C17   H29   S    
C52   H16   S    
C26   C48   A    
O9    Zn1   S    
C27   C45   A    
O8    Zn4   S    
C49   H17   S    
C25   C29   A    
O3    Zn2   S    
C51   H19   S    
C28   C32   A    
C6    H22   S    
C19   H6    S    
C33   H1    S    
O6    Zn3   S    
C30   C34   A    
C35   H3    S    
C2    O6    A    
C7    C49   S    
C47   C51   S    
C27   C31   A    
C23   C44   S    
C24   O16   A    
C52   H20   S    
C21   O9    A    
C37   H9    S    
N3    Zn1   S    
C45   C49   S    
C8    H28   S    
C13   N3    A    
C18   H31   S    
O14   Zn3   S    
C16   C18   S    
C51   H15   S    
C20   H7    S    
C50   H14   S    
C5    C25   S    
O4    Zn2   S    
C12   C14   A    
C34   H2    S    
C4    O4    A    
C8    C28   S    
C34   C40   A    
C5    H25   S    
C8    C50   S    
O16   Zn4   S    
C7    H27   S    
C15   C17   S    
O11   Zn2   S    
C10   N2    A    
C1    O1    A    
C24   O12   A    
C5    H21   S    
N2    Zn4   S    
O2    Zn1   S    
C22   O14   A    
C7    H23   S    
C26   C30   A    
C39   H11   S    
C46   C50   S    
O12   Zn2   S    
C40   H12   S    
C12   N2    A    
C36   C38   A    
C50   H18   S    
C14   N4    A    
C21   O13   A    
C13   F3    S    
C10   C16   A    
O5    Zn3   S    
C11   C13   A    
C6    C26   S    
C11   N1    A    
C31   C35   A    
C1    C30   S    
C17   C19   S    
C18   C20   S    
C37   C41   A    
C3    C32   S    
C4    C31   S    
O7    Zn4   S    
C21   C42   S    
C48   C52   S    
C39   C43   A    
C1    O5    A    
O1    Zn1   S    
C16   N4    A    
C24   C43   S    
C41   C45   A    
C5    C51   S    
C3    O7    A    
C6    C52   S    
N1    Zn3   S    
C43   C47   A    
C44   C48   A    
C9    C15   A    
C38   H10   S    
