data_mof_unit_6352.cif
_audit_creation_date              2012-12-11T15:50:33-0500
_audit_creation_method            fapswitch 2.2
_symmetry_space_group_name_H-M    P1
_symmetry_Int_Tables_number       1
_space_group_crystal_system       triclinic
_cell_length_a                    7.044392
_cell_length_b                    14.476111
_cell_length_c                    16.166774
_cell_angle_alpha                 90.000253
_cell_angle_beta                  89.999774
_cell_angle_gamma                 89.999292
_cell_volume                      1648.6132536

loop_
_atom_site_label
_atom_site_type_symbol
_atom_type_description
_atom_site_fract_x
_atom_site_fract_y
_atom_site_fract_z
_atom_type_partial_charge
O1    O     O_R   0.638140 0.833910 0.163320 -0.538222
O2    O     O_R   0.361860 0.166090 0.836680 -0.540012
O3    O     O_R   0.361860 0.166090 0.663320 -0.538222
O4    O     O_R   0.638140 0.833910 0.336680 -0.540007
O5    O     O_R   0.138140 0.666090 0.336680 -0.538229
O6    O     O_R   0.861860 0.333910 0.663320 -0.540015
O7    O     O_R   0.861860 0.333910 0.836680 -0.538218
O8    O     O_R   0.138140 0.666090 0.163320 -0.540035
O9    O     O_R   0.308390 0.844930 0.336080 -0.540355
O10   O     O_R   0.691610 0.155070 0.663920 -0.536580
O11   O     O_R   0.691610 0.155070 0.836080 -0.540361
O12   O     O_R   0.308390 0.844930 0.163920 -0.536604
O13   O     O_R   0.808390 0.655070 0.163920 -0.540350
O14   O     O_R   0.191610 0.344930 0.836080 -0.536590
O15   O     O_R   0.191610 0.344930 0.663920 -0.540376
O16   O     O_R   0.808390 0.655070 0.336080 -0.536560
C1    C     C_R   0.477824 0.869245 0.362647 0.702263
C2    C     C_R   0.524095 0.135343 0.633199 0.680557
C3    C     C_R   0.522177 0.130755 0.862646 0.702302
C4    C     C_R   0.475905 0.864659 0.133201 0.680568
C5    C     C_R   0.977826 0.630753 0.137355 0.702356
C6    C     C_R   0.024094 0.364658 0.866800 0.680529
C7    C     C_R   0.022174 0.369246 0.637355 0.702320
C8    C     C_R   0.975906 0.635336 0.366796 0.680541
O17   O     O_3   0.471620 0.691320 0.250000 -0.371687
O18   O     O_3   0.528380 0.308680 0.750000 -0.371690
O19   O     O_3   0.971620 0.808680 0.250000 -0.371692
O20   O     O_3   0.028380 0.191320 0.750000 -0.371686
V1    V     V_3+5 0.196770 0.760880 0.250000 1.376616
V2    V     V_3+5 0.803230 0.239120 0.750000 1.376634
V3    V     V_3+5 0.696770 0.739120 0.250000 1.376649
V4    V     V_3+5 0.303230 0.260880 0.750000 1.376618
C9    C     C_R   0.817490 0.525459 0.470427 0.143447
C10   C     C_R   0.150372 0.511387 0.561996 0.145108
C11   C     C_R   0.182508 0.474536 0.970428 0.143441
C12   C     C_R   0.849634 0.488601 0.062008 0.145154
C13   C     C_R   0.317504 0.974548 0.029580 0.143446
C14   C     C_R   0.650386 0.988609 0.938005 0.145146
C15   C     C_R   0.682508 0.025471 0.529564 0.143449
C16   C     C_R   0.349623 0.011398 0.437997 0.145131
C17   C     C_R   0.838942 0.453593 0.528300 -0.228959
C18   C     C_R   0.141913 0.567947 0.490778 -0.240772
C19   C     C_R   0.161056 0.546401 0.028302 -0.228963
C20   C     C_R   0.858093 0.432040 0.990789 -0.240769
C21   C     C_R   0.338968 0.046420 0.971713 -0.228982
C22   C     C_R   0.641930 0.932056 0.009228 -0.240796
C23   C     C_R   0.661053 0.953599 0.471696 -0.228960
C24   C     C_R   0.358084 0.067962 0.509214 -0.240767
H1    H     H_    0.716398 0.412090 0.544436 0.122217
H2    H     H_    0.252070 0.616630 0.478526 0.138098
H3    H     H_    0.283598 0.587908 0.044433 0.122208
H4    H     H_    0.747928 0.383367 0.978528 0.138090
H5    H     H_    0.216429 0.087929 0.955581 0.122222
H6    H     H_    0.752110 0.883393 0.021503 0.138083
H7    H     H_    0.783598 0.912094 0.455561 0.122223
H8    H     H_    0.247918 0.116644 0.521470 0.138078
C25   C     C_R   0.008500 0.443254 0.573246 -0.075116
C26   C     C_R   0.980657 0.571504 0.440355 -0.081990
C27   C     C_R   0.991503 0.556738 0.073252 -0.075152
C28   C     C_R   0.019345 0.428486 0.940362 -0.081956
C29   C     C_R   0.508513 0.056747 0.926757 -0.075141
C30   C     C_R   0.480662 0.928493 0.059645 -0.081873
C31   C     C_R   0.491495 0.943258 0.426752 -0.075171
C32   C     C_R   0.519343 0.071517 0.559636 -0.081942
C33   C     C_3   0.623655 0.568494 0.462352 -0.328670
C34   C     C_3   0.626328 0.665590 0.502614 -0.705287
H9    H     H_    0.657586 0.659639 0.569724 0.205168
H10   H     H_    0.736938 0.711124 0.476168 0.217070
H11   H     H_    0.490979 0.702950 0.494159 0.185120
H12   H     H_    0.573032 0.570119 0.397534 0.198215
H13   H     H_    0.519010 0.524649 0.494490 0.150969
C35   C     C_3   0.295388 0.533452 0.628762 -0.364587
C36   C     C_3   0.201738 0.563562 0.709846 -0.730383
H14   H     H_    0.107109 0.623718 0.698769 0.219453
H15   H     H_    0.117672 0.507101 0.737964 0.212855
H16   H     H_    0.313055 0.584203 0.754865 0.204683
H17   H     H_    0.393929 0.474857 0.639027 0.195996
H18   H     H_    0.383497 0.592605 0.609693 0.184771
C37   C     C_3   0.376338 0.431494 0.962361 -0.328625
C38   C     C_3   0.373637 0.334411 0.002647 -0.705506
H19   H     H_    0.342145 0.340378 0.069731 0.205265
H20   H     H_    0.263184 0.288840 0.976139 0.217121
H21   H     H_    0.509042 0.297085 0.994307 0.185116
H22   H     H_    0.426975 0.429849 0.897545 0.198239
H23   H     H_    0.480986 0.475350 0.994485 0.150954
C39   C     C_3   0.704554 0.466577 0.128754 -0.364663
C40   C     C_3   0.798065 0.436487 0.209864 -0.730365
H24   H     H_    0.892311 0.376182 0.198863 0.219425
H25   H     H_    0.882483 0.492873 0.237903 0.212830
H26   H     H_    0.686651 0.416087 0.254911 0.204696
H27   H     H_    0.606053 0.525191 0.138977 0.196023
H28   H     H_    0.616419 0.407430 0.109691 0.184811
C41   C     C_3   0.123687 0.931482 0.037598 -0.328660
C42   C     C_3   0.126473 0.834433 0.997252 -0.705956
H29   H     H_    0.158446 0.840444 0.930216 0.205455
H30   H     H_    0.236608 0.788790 0.023898 0.217246
H31   H     H_    0.990934 0.797173 0.005352 0.185108
H32   H     H_    0.072987 0.929781 0.102403 0.198260
H33   H     H_    0.019054 0.975354 0.005482 0.150987
C43   C     C_3   0.795443 0.966569 0.871252 -0.364691
C44   C     C_3   0.701889 0.936462 0.790156 -0.730394
H34   H     H_    0.607594 0.876182 0.801184 0.219427
H35   H     H_    0.617509 0.992855 0.762103 0.212836
H36   H     H_    0.813271 0.916017 0.745109 0.204713
H37   H     H_    0.893935 0.025179 0.861008 0.196039
H38   H     H_    0.883600 0.907426 0.890314 0.184877
C45   C     C_3   0.876334 0.068522 0.537614 -0.328683
C46   C     C_3   0.873600 0.165604 0.497330 -0.705550
H39   H     H_    0.842040 0.159635 0.430251 0.205294
H40   H     H_    0.763174 0.211176 0.523864 0.217134
H41   H     H_    0.009027 0.202925 0.505644 0.185115
H42   H     H_    0.926996 0.070171 0.602426 0.198242
H43   H     H_    0.980976 0.024675 0.505473 0.150979
C47   C     C_3   0.204563 0.033445 0.371235 -0.364544
C48   C     C_3   0.298165 0.063541 0.290128 -0.730104
H44   H     H_    0.392395 0.123858 0.301139 0.219358
H45   H     H_    0.382638 0.007161 0.262107 0.212770
H46   H     H_    0.186773 0.083940 0.245049 0.204636
H47   H     H_    0.106034 0.974840 0.360992 0.195964
H48   H     H_    0.116420 0.092597 0.390294 0.184763

loop_
_geom_bond_atom_site_label_1
_geom_bond_atom_site_label_2
_ccdc_geom_bond_type
O17   V3    S    
C34   H10   S    
C40   H24   S    
O18   V4    S    
C41   C42   S    
O12   V1    S    
O19   V1    S    
C36   H14   S    
C10   C18   A    
C12   C27   A    
C2    C32   S    
C18   C26   A    
C47   C48   S    
C9    C33   S    
O15   V4    S    
O16   V3    S    
C15   C45   S    
C15   C32   A    
O11   C3    A    
C43   H37   S    
C9    C26   A    
C16   C31   A    
C22   C30   A    
O8    V1    S    
C23   H7    S    
O10   C2    A    
C5    C27   S    
C39   H27   S    
C23   C31   A    
C37   H22   S    
C3    C29   S    
C24   C32   A    
C34   H11   S    
C33   H12   S    
O1    V3    S    
C46   H39   S    
O3    C2    A    
O2    V4    S    
C45   H42   S    
C11   C37   S    
C16   C24   A    
C45   H43   S    
C35   H18   S    
C16   C47   S    
O11   V2    S    
C48   H45   S    
C10   C25   A    
C45   C46   S    
C11   C19   A    
C41   H33   S    
C47   H47   S    
C19   C27   A    
C14   C29   A    
C20   H4    S    
O15   C7    A    
C34   H9    S    
C21   H5    S    
O16   C8    A    
O7    V2    S    
C36   H15   S    
C22   H6    S    
O3    V4    S    
C38   H21   S    
C17   H1    S    
C13   C30   A    
O5    V1    S    
O17   V1    S    
C13   C41   S    
C44   H34   S    
O20   V4    S    
C14   C43   S    
C39   C40   S    
C35   C36   S    
C42   H31   S    
C12   C39   S    
C33   H13   S    
O19   V3    S    
C11   C28   A    
C35   H17   S    
O10   V2    S    
C48   H46   S    
O12   C4    A    
O8    C5    A    
O13   C5    A    
C42   H30   S    
C18   H2    S    
C7    C25   S    
O4    C1    A    
O9    C1    A    
O6    V2    S    
O18   V2    S    
C44   H36   S    
C40   H25   S    
C36   H16   S    
C12   C20   A    
C13   C21   A    
C10   C35   S    
C37   H23   S    
C15   C23   A    
C44   H35   S    
C24   H8    S    
O1    C4    A    
O2    C3    A    
O13   V3    S    
O14   V4    S    
C38   H19   S    
O9    V1    S    
O7    C6    A    
C43   H38   S    
C46   H41   S    
C9    C17   A    
O14   C6    A    
O20   V2    S    
C17   C25   A    
C39   H28   S    
C1    C31   S    
C6    C28   S    
C19   H3    S    
O5    C8    A    
C20   C28   A    
O6    C7    A    
C21   C29   A    
C43   C44   S    
C38   H20   S    
C46   H40   S    
C4    C30   S    
C42   H29   S    
C14   C22   A    
O4    V3    S    
C37   C38   S    
C8    C26   S    
C33   C34   S    
C40   H26   S    
C41   H32   S    
C47   H48   S    
C48   H44   S    
