data_mof_unit_31733.cif
_audit_creation_date              2012-12-11T14:08:39-0500
_audit_creation_method            fapswitch 2.2
_symmetry_space_group_name_H-M    P1
_symmetry_Int_Tables_number       1
_space_group_crystal_system       triclinic
_cell_length_a                    28.219596
_cell_length_b                    7.184347
_cell_length_c                    17.243021
_cell_angle_alpha                 89.998505
_cell_angle_beta                  102.028393
_cell_angle_gamma                 89.999906
_cell_volume                      3419.08613724

loop_
_atom_site_label
_atom_site_type_symbol
_atom_type_description
_atom_site_fract_x
_atom_site_fract_y
_atom_site_fract_z
_atom_type_partial_charge
O1    O     O_R   0.000700 0.436510 0.857920 -0.512027
O2    O     O_R   0.999300 0.563490 0.142080 -0.523852
O3    O     O_R   0.999300 0.936510 0.642080 -0.512011
O4    O     O_R   0.000700 0.063490 0.357920 -0.523838
O5    O     O_R   0.930080 0.766380 0.721890 -0.539918
O6    O     O_R   0.069920 0.233620 0.278110 -0.536402
O7    O     O_R   0.069920 0.266380 0.778110 -0.539925
O8    O     O_R   0.930080 0.733620 0.221890 -0.536407
C1    C     C_R   0.910585 0.597628 0.708437 0.705300
C2    C     C_R   0.089436 0.402433 0.291134 0.690876
C3    C     C_R   0.089415 0.097627 0.791562 0.705281
C4    C     C_R   0.910564 0.902434 0.208865 0.690860
O9    O     O_R   0.996180 0.766230 0.862310 -0.546806
O10   O     O_R   0.003820 0.233770 0.137690 -0.549139
O11   O     O_R   0.003820 0.266230 0.637690 -0.546809
O12   O     O_R   0.996180 0.733770 0.362310 -0.549171
O13   O     O_R   0.065870 0.936460 0.783500 -0.543580
O14   O     O_R   0.934130 0.063540 0.216500 -0.545085
O15   O     O_R   0.934130 0.436460 0.716500 -0.543576
O16   O     O_R   0.065870 0.563540 0.283500 -0.545080
C5    C     C_R   0.997672 0.595943 0.894201 0.700395
C6    C     C_R   0.001982 0.404067 0.105796 0.705167
C7    C     C_R   0.002327 0.095946 0.605797 0.700431
C8    C     C_R   0.998017 0.904064 0.394204 0.705121
O17   O     O_3   0.022790 0.603020 0.723980 -0.374591
O18   O     O_3   0.977210 0.396980 0.276020 -0.383003
O19   O     O_3   0.977210 0.103020 0.776020 -0.374595
O20   O     O_3   0.022790 0.896980 0.223980 -0.382994
V1    V     V_3+5 0.995770 0.877900 0.754830 1.461458
V2    V     V_3+5 0.004230 0.122100 0.245170 1.404654
V3    V     V_3+5 0.004230 0.377900 0.745170 1.461441
V4    V     V_3+5 0.995770 0.622100 0.254830 1.404607
C9    C     C_2   0.008016 0.077789 0.522031 0.153050
C10   C     C_2   0.991947 0.922535 0.477590 0.187248
C11   C     C_2   0.991983 0.577789 0.977966 0.153028
C12   C     C_2   0.008052 0.422539 0.022412 0.187218
C13   C     C_R   0.683770 0.982038 0.026791 0.609329
C14   C     C_R   0.315983 0.018488 0.976382 0.602833
C15   C     C_R   0.316226 0.482007 0.473203 0.609354
C16   C     C_R   0.684015 0.518424 0.523623 0.602828
O21   O     O_2   0.713358 0.000506 0.975046 -0.509783
O22   O     O_2   0.286355 0.000096 0.028068 -0.517025
O23   O     O_2   0.286634 0.500452 0.524944 -0.509757
O24   O     O_2   0.713643 0.499941 0.471942 -0.517040
N1    N     N_R   0.703113 0.946398 0.104993 -0.561094
N2    N     N_R   0.296684 0.054055 0.898165 -0.561060
N3    N     N_R   0.296887 0.446396 0.395000 -0.561118
N4    N     N_R   0.703315 0.554063 0.601834 -0.561052
C17   C     C_R   0.673881 0.930179 0.158766 0.570600
C18   C     C_R   0.325938 0.070028 0.844422 0.575830
C19   C     C_R   0.326119 0.430215 0.341228 0.570626
C20   C     C_R   0.674060 0.570115 0.655573 0.575824
C21   C     C_R   0.777391 0.763333 0.154953 -0.081433
C22   C     C_R   0.222437 0.237501 0.848644 -0.082849
C23   C     C_R   0.222603 0.263263 0.345202 -0.081473
C24   C     C_R   0.777562 0.737504 0.651357 -0.082841
C25   C     C_R   0.827843 0.752294 0.180167 -0.189774
C26   C     C_R   0.172038 0.248407 0.822671 -0.193281
C27   C     C_R   0.172151 0.252225 0.319989 -0.189638
C28   C     C_R   0.827961 0.748409 0.677331 -0.193271
C29   C     C_R   0.833944 0.084444 0.159903 -0.191998
C30   C     C_R   0.165962 0.915610 0.841231 -0.197404
C31   C     C_R   0.166067 0.584502 0.339926 -0.191993
C32   C     C_R   0.834039 0.415619 0.658762 -0.197419
C33   C     C_R   0.783618 0.094835 0.134389 -0.088970
C34   C     C_R   0.216236 0.905357 0.867533 -0.090117
C35   C     C_R   0.216393 0.594894 0.365438 -0.088968
C36   C     C_R   0.783764 0.405366 0.632461 -0.090110
C37   C     C_R   0.755010 0.934551 0.131613 0.377692
C38   C     C_R   0.244805 0.065988 0.871419 0.379263
C39   C     C_R   0.244991 0.434548 0.368377 0.377822
C40   C     C_R   0.755194 0.565994 0.628579 0.379232
C41   C     C_R   0.602355 0.976951 0.053514 -0.048876
C42   C     C_R   0.397423 0.023290 0.949743 -0.048908
C43   C     C_R   0.397642 0.476963 0.446487 -0.048873
C44   C     C_R   0.602575 0.523311 0.550261 -0.048908
C45   C     C_R   0.633183 0.999270 0.999927 -0.098965
C46   C     C_R   0.366571 0.001200 0.003306 -0.096046
C47   C     C_R   0.366813 0.499246 0.500072 -0.098988
C48   C     C_R   0.633427 0.501160 0.496701 -0.096044
C49   C     C_R   0.613444 0.049699 0.921854 -0.198538
C50   C     C_R   0.386289 0.950947 0.081406 -0.199493
C51   C     C_R   0.386549 0.549650 0.578148 -0.198514
C52   C     C_R   0.613707 0.450874 0.418606 -0.199509
C53   C     C_R   0.623212 0.947156 0.134195 -0.016450
C54   C     C_R   0.376596 0.052922 0.869036 -0.017756
C55   C     C_R   0.376788 0.447200 0.365803 -0.016482
C56   C     C_R   0.623402 0.553000 0.630962 -0.017733
C57   C     C_R   0.856852 0.912889 0.182954 -0.049295
C58   C     C_R   0.143075 0.087357 0.818459 -0.057765
C59   C     C_R   0.143150 0.412884 0.317039 -0.049340
C60   C     C_R   0.856925 0.587362 0.681539 -0.057771
H1    H     H_    0.854847 0.211173 0.161014 0.136977
H2    H     H_    0.145086 0.788576 0.839181 0.131212
H3    H     H_    0.145171 0.711283 0.338681 0.136957
H4    H     H_    0.854915 0.288587 0.660809 0.131222
H5    H     H_    0.766777 0.228011 0.116818 0.119800
H6    H     H_    0.233078 0.771983 0.884705 0.117336
H7    H     H_    0.233243 0.728115 0.382880 0.119664
H8    H     H_    0.766923 0.271994 0.615286 0.117358
H9    H     H_    0.637600 0.085069 0.882950 0.182798
H10   H     H_    0.362119 0.915784 0.120314 0.182058
H11   H     H_    0.362391 0.584989 0.617051 0.182804
H12   H     H_    0.637877 0.415670 0.379703 0.182057
C61   C     C_R   0.479111 0.028220 0.919913 0.070030
C62   C     C_R   0.520668 0.971791 0.083391 0.068490
C63   C     C_R   0.520886 0.528264 0.580092 0.070033
C64   C     C_R   0.479330 0.471825 0.416615 0.068485
C65   C     C_R   0.469013 0.973007 0.057514 -0.054194
C66   C     C_R   0.530752 0.027225 0.945797 -0.054073
C67   C     C_R   0.530984 0.473014 0.442495 -0.054196
C68   C     C_R   0.469244 0.527238 0.554209 -0.054083
C69   C     C_R   0.448784 0.010341 0.976135 0.003667
C70   C     C_R   0.550990 0.989822 0.027161 0.003599
C71   C     C_R   0.551213 0.510365 0.523871 0.003671
C72   C     C_R   0.449007 0.489841 0.472844 0.003598
C73   C     C_R   0.456218 0.034776 0.838631 -0.138400
C74   C     C_R   0.543591 0.964877 0.164659 -0.137260
C75   C     C_R   0.543781 0.534875 0.661373 -0.138430
C76   C     C_R   0.456410 0.464950 0.335346 -0.137219
C77   C     C_R   0.406416 0.054210 0.814028 -0.183345
C78   C     C_R   0.593404 0.945558 0.189218 -0.184192
C79   C     C_R   0.593583 0.554333 0.685971 -0.183387
C80   C     C_R   0.406597 0.445638 0.310781 -0.184159
O25   O     O_2   0.306084 0.099875 0.767218 -0.512721
O26   O     O_2   0.693764 0.900244 0.235952 -0.517474
O27   O     O_2   0.693913 0.600045 0.732771 -0.512728
O28   O     O_2   0.306237 0.400305 0.264041 -0.517445
C81   C     C_R   0.563177 0.069908 0.894320 0.433246
C82   C     C_R   0.436554 0.930660 0.108983 0.432982
C83   C     C_R   0.436815 0.569879 0.605685 0.433251
C84   C     C_R   0.563441 0.430620 0.391030 0.432985
H13   H     H_    0.155866 0.383007 0.805817 0.134936
H14   H     H_    0.844026 0.617934 0.197478 0.133502
H15   H     H_    0.844132 0.883006 0.694189 0.134939
H16   H     H_    0.155961 0.117814 0.302814 0.133490
H17   H     H_    0.244110 0.362662 0.851419 0.120359
H18   H     H_    0.755696 0.638437 0.153076 0.120289
H19   H     H_    0.755889 0.862663 0.648585 0.120377
H20   H     H_    0.244292 0.138322 0.347211 0.120178
H21   H     H_    0.391238 0.063660 0.751020 0.178538
H22   H     H_    0.608599 0.935929 0.252215 0.178580
H23   H     H_    0.608761 0.563827 0.748977 0.178522
H24   H     H_    0.391404 0.436040 0.247783 0.178586
H25   H     H_    0.475385 0.015238 0.791663 0.194882
H26   H     H_    0.524460 0.984099 0.211680 0.196699
H27   H     H_    0.524619 0.515364 0.708348 0.194901
H28   H     H_    0.475545 0.484199 0.288330 0.196684
O29   O     O_3   0.038547 0.201513 0.494506 -0.574253
C85   C     C_3   0.016166 0.376870 0.479590 -0.089794
H29   H     H_    0.023707 0.464237 0.533769 0.171498
H30   H     H_    0.976430 0.367940 0.454825 0.112585
H31   H     H_    0.032902 0.448158 0.435101 0.165978
O30   O     O_3   0.968355 0.780680 0.508937 -0.564558
C86   C     C_3   0.918218 0.793859 0.477171 -0.271471
H32   H     H_    0.903741 0.932727 0.489219 0.121077
H33   H     H_    0.899283 0.687877 0.506385 0.168935
H34   H     H_    0.909794 0.764143 0.412433 0.135741
O31   O     O_3   0.961451 0.701515 0.005488 -0.574253
C87   C     C_3   0.983834 0.876867 0.020404 -0.089771
H35   H     H_    0.976293 0.964244 0.966227 0.171491
H36   H     H_    0.023569 0.867927 0.045169 0.112604
H37   H     H_    0.967098 0.948150 0.064895 0.165962
O32   O     O_3   0.031647 0.280681 0.991077 -0.564572
C88   C     C_3   0.081791 0.294079 0.022748 -0.271281
H38   H     H_    0.096227 0.432896 0.010524 0.121045
H39   H     H_    0.100723 0.187957 0.993602 0.168920
H40   H     H_    0.090265 0.264727 0.087517 0.135630
O33   O     O_3   0.546662 0.164181 0.823425 -0.565865
C89   C     C_3   0.563169 0.078527 0.760003 -0.282197
H41   H     H_    0.564218 0.923709 0.764583 0.151803
H42   H     H_    0.599166 0.134330 0.755401 0.167076
H43   H     H_    0.537617 0.113992 0.703860 0.176571
O34   O     O_3   0.453009 0.836703 0.179964 -0.566518
C90   C     C_3   0.436629 0.923313 0.243299 -0.282921
H44   H     H_    0.400552 0.868465 0.247971 0.166541
H45   H     H_    0.435808 0.078088 0.238540 0.152335
H46   H     H_    0.462134 0.887752 0.299479 0.176779
O35   O     O_3   0.453321 0.664127 0.676586 -0.565872
C91   C     C_3   0.436829 0.578379 0.740004 -0.282186
H47   H     H_    0.435809 0.423562 0.735417 0.151826
H48   H     H_    0.400822 0.634073 0.744608 0.167066
H49   H     H_    0.462374 0.613875 0.796149 0.176577
O36   O     O_3   0.546981 0.336654 0.320054 -0.566508
C92   C     C_3   0.563370 0.423209 0.256715 -0.282934
H50   H     H_    0.599442 0.368300 0.252048 0.166548
H51   H     H_    0.564205 0.577984 0.261463 0.152315
H52   H     H_    0.537862 0.387666 0.200537 0.176775

loop_
_geom_bond_atom_site_label_1
_geom_bond_atom_site_label_2
_ccdc_geom_bond_type
O17   V3    S    
C61   C66   A    
O1    C5    A    
C88   H38   S    
C81   O33   S    
C23   C27   A    
C86   H33   S    
O13   V1    S    
O33   C89   S    
C64   C76   A    
O3    C7    A    
C11   C12   D    
C48   C52   A    
C21   C37   A    
O4    V2    S    
C90   H45   S    
C49   H9    S    
C82   O34   S    
O7    C3    A    
C17   O26   S    
C51   H11   S    
C62   C70   A    
C19   O28   S    
C32   C36   A    
C73   H25   S    
O32   C88   S    
O10   V2    S    
C14   O22   S    
N4    C20   A    
C74   C78   A    
C55   C80   A    
O4    C8    A    
C29   H1    S    
C92   H51   S    
C22   H17   S    
O19   V1    S    
C89   H41   S    
C75   H27   S    
C31   H3    S    
C27   H16   S    
O1    V3    S    
C44   C71   A    
O36   C92   S    
C66   C81   A    
O2    V4    S    
C63   C68   A    
O3    V1    S    
C73   C77   A    
O34   C90   S    
C1    O15   A    
C90   H44   S    
C91   H48   S    
C24   C40   A    
C85   H31   S    
O2    C6    A    
C16   C48   A    
O14   V2    S    
N1    C17   A    
C50   C82   A    
C44   C56   A    
C91   H49   S    
C65   C69   A    
O11   C7    A    
O15   V3    S    
O12   C8    A    
C62   C74   A    
C86   H34   S    
C61   C73   A    
N4    C40   S    
C56   C79   A    
C1    C60   S    
C63   C75   A    
C20   O27   S    
C29   C57   A    
C90   H46   S    
O5    V1    S    
C10   O30   S    
C26   H13   S    
C31   C35   A    
C86   H32   S    
O7    V3    S    
C30   C34   A    
N1    C37   S    
C21   H18   S    
O8    V4    S    
C87   H37   S    
C17   C53   A    
C4    C57   S    
C20   C56   A    
C32   H4    S    
C2    O16   A    
C24   H19   S    
C83   O35   S    
O18   V4    S    
C92   H52   S    
N3    C19   A    
C14   C46   A    
C7    C9    S    
C42   C69   A    
C13   C45   A    
C52   C84   A    
C8    C10   S    
C23   H20   S    
C24   C28   A    
C36   C40   A    
C74   H26   S    
C87   H36   S    
C18   C54   A    
C36   H8    S    
O5    C1    A    
C77   H21   S    
C67   C71   A    
C46   C50   A    
C49   C81   A    
O31   C87   S    
C22   C38   A    
C45   C49   A    
O8    C4    A    
N3    C39   S    
C54   C77   A    
C79   H23   S    
C9    C10   D    
C50   H10   S    
C61   C69   A    
O9    C5    A    
C53   C78   A    
C18   O25   S    
C27   C59   A    
C42   C54   A    
C26   C58   A    
C28   H15   S    
C41   C53   A    
O30   C86   S    
C25   C57   A    
C43   C55   A    
O6    V2    S    
C2    C59   S    
C76   H28   S    
C88   H40   S    
C75   C79   A    
C19   C55   A    
C52   H12   S    
C85   H30   S    
C25   H14   S    
C78   H22   S    
C13   N1    A    
C68   C72   A    
N2    C38   S    
C91   H47   S    
C15   N3    A    
C22   C26   A    
O9    V1    S    
C16   N4    A    
C66   C70   A    
C3    O13   A    
C21   C25   A    
C44   C48   A    
O6    C2    A    
C15   O23   S    
C34   H6    S    
O11   V3    S    
C5    C11   S    
C35   H7    S    
O12   V4    S    
C6    C12   S    
N2    C18   A    
C64   C67   A    
C87   H35   S    
C64   C72   A    
C30   H2    S    
C51   C83   A    
C33   H5    S    
O16   V4    S    
O29   C85   S    
C84   O36   S    
C47   C51   A    
C3    C58   S    
O10   C6    A    
C92   H50   S    
C34   C38   A    
C89   H42   S    
C33   C37   A    
C30   C58   A    
O20   V2    S    
C63   C71   A    
C35   C39   A    
C68   C83   A    
C13   O21   S    
C11   O31   S    
C14   N2    A    
C41   C70   A    
O35   C91   S    
C29   C33   A    
C67   C84   A    
C16   O24   S    
C31   C59   A    
C88   H39   S    
C42   C46   A    
C4    O14   A    
C65   C82   A    
C12   O32   S    
C41   C45   A    
C85   H29   S    
C80   H24   S    
C9    O29   S    
C43   C72   A    
C32   C60   A    
C28   C60   A    
C43   C47   A    
C89   H43   S    
C23   C39   A    
C76   C80   A    
C15   C47   A    
C62   C65   A    
