data_mof_unit_26312.cif
_audit_creation_date              2012-10-26T19:35:34-0400
_audit_creation_method            fapswitch 2.2
_symmetry_space_group_name_H-M    P1
_symmetry_Int_Tables_number       1
_space_group_crystal_system       triclinic
_cell_length_a                    15.812931
_cell_length_b                    11.001533
_cell_length_c                    9.611819
_cell_angle_alpha                 89.920846
_cell_angle_beta                  87.005776
_cell_angle_gamma                 94.172947
_cell_volume                      1665.40213895

loop_
_atom_site_label
_atom_site_type_symbol
_atom_type_description
_atom_site_fract_x
_atom_site_fract_y
_atom_site_fract_z
_atom_type_partial_charge
C1    C     C_R   0.498389 0.262161 0.501615 0.527532
C2    C     C_R   0.492179 0.128073 0.505683 -0.070787
C3    C     C_R   0.490810 0.064419 0.378384 -0.146628
C4    C     C_R   0.339948 0.501367 0.503122 0.529181
C5    C     C_R   0.484216 0.935977 0.373864 0.249021
C6    C     C_R   0.485923 0.868021 0.498478 -0.019316
C7    C     C_R   0.475991 0.931945 0.621910 -0.085332
C8    C     C_3   0.476993 0.907268 0.773643 0.207960
C9    C     C_3   0.488562 0.048664 0.788645 0.271701
C10   C     C_R   0.573222 0.526721 0.066959 0.207111
C11   C     C_R   0.430049 0.462293 0.082876 -0.033459
C12   C     C_3   0.084709 0.531739 0.511418 0.047988
C13   C     C_R   0.427458 0.465444 0.935842 0.064741
C14   C     C_R   0.573801 0.522705 0.919944 0.099564
C15   C     C_3   0.631944 0.634644 0.905071 -0.234592
C16   C     C_R   0.496110 0.736669 0.499706 0.541707
C17   C     C_3   0.626316 0.644760 0.063083 0.126433
C18   C     C_R   0.660348 0.503005 0.496895 0.557823
C19   C     C_3   0.966335 0.419183 0.531046 -0.101210
C20   C     C_3   0.032352 0.452666 0.410288 -0.107087
C21   C     C_1   0.250645 0.510468 0.510235 -0.048217
C22   C     C_1   0.750829 0.513127 0.490475 -0.021592
C23   C     C_3   0.970524 0.610630 0.594777 -0.106182
C24   C     C_3   0.019301 0.498771 0.631993 -0.110111
C25   C     C_R   0.415647 0.096182 0.880993 0.076954
C26   C     C_R   0.430762 0.149230 0.011675 -0.098270
C27   C     C_R   0.363139 0.172033 0.105624 -0.160309
C28   C     C_R   0.279806 0.138178 0.073525 -0.113193
C29   C     C_R   0.263492 0.084841 0.945447 -0.105893
C30   C     C_R   0.330361 0.068895 0.847605 -0.079101
C31   C     C_3   0.603301 0.196579 0.807712 -0.002537
C32   C     C_3   0.680396 0.227486 0.892592 -0.381088
C33   C     C_R   0.340545 0.434711 0.885972 0.052345
C34   C     C_3   0.919084 0.530707 0.493631 0.037173
C35   C     C_R   0.270833 0.491285 0.948403 -0.132716
C36   C     C_R   0.187477 0.452161 0.919622 -0.123290
C37   C     C_R   0.172300 0.356828 0.826712 -0.104543
C38   C     C_R   0.240214 0.302019 0.761681 -0.112050
C39   C     C_R   0.323198 0.336560 0.796879 -0.026216
C40   C     C_3   0.748608 0.750505 0.125765 -0.009480
C41   C     C_3   0.838785 0.738340 0.167561 -0.377792
C42   C     C_R   0.071573 0.773609 0.448355 0.031079
C43   C     C_R   0.016930 0.858735 0.402782 -0.103711
C44   C     C_R   0.046201 0.980732 0.381292 -0.115869
C45   C     C_3   0.037239 0.643281 0.474466 0.023784
C46   C     C_R   0.130093 0.019255 0.406772 -0.108856
C47   C     C_R   0.184723 0.935873 0.454055 -0.127082
C48   C     C_R   0.155703 0.813779 0.475172 -0.102811
C49   C     C_3   0.390496 0.882027 0.208022 -0.006441
C50   C     C_3   0.340495 0.760804 0.238787 -0.348850
C51   C     C_3   0.352768 0.766360 0.770865 0.008798
C52   C     C_3   0.259918 0.764294 0.822280 -0.398554
C53   C     C_3   0.983964 0.564761 0.372506 -0.106249
C54   C     C_1   0.175616 0.520180 0.513479 -0.074378
C55   C     C_1   0.826935 0.522524 0.489442 -0.068079
C56   C     C_R   0.483530 0.056283 0.629030 -0.048400
Cu1   Cu    Cu3+1 0.500000 0.499980 0.640670 0.889696
Cu2   Cu    Cu3+1 0.500000 0.500020 0.359330 0.957323
H1    H     H_    0.058470 0.387077 0.334635 0.099284
H2    H     H_    0.031749 0.476281 0.740819 0.097975
H3    H     H_    0.495346 0.113558 0.280851 0.143867
H4    H     H_    0.494627 0.170054 0.043704 0.144315
H5    H     H_    0.375360 0.212752 0.205593 0.122940
H6    H     H_    0.227897 0.153699 0.147649 0.110042
H7    H     H_    0.198755 0.059461 0.919843 0.104128
H8    H     H_    0.315941 0.031009 0.746994 0.110243
H9    H     H_    0.556158 0.263514 0.835670 0.168730
H10   H     H_    0.624255 0.204292 0.695751 0.165405
H11   H     H_    0.729838 0.162938 0.867957 0.153231
H12   H     H_    0.533085 0.860884 0.802559 0.152423
H13   H     H_    0.707056 0.321621 0.867393 0.115243
H14   H     H_    0.661875 0.221759 0.005625 0.156909
H15   H     H_    0.280965 0.563736 0.022964 0.088445
H16   H     H_    0.134769 0.495110 0.970387 0.100480
H17   H     H_    0.108180 0.323701 0.806224 0.099429
H18   H     H_    0.228463 0.228681 0.688610 0.090128
H19   H     H_    0.373962 0.289075 0.750526 0.144711
H20   H     H_    0.716421 0.808632 0.203885 0.145921
H21   H     H_    0.752064 0.796325 0.021847 0.124274
H22   H     H_    0.871548 0.677242 0.094016 0.152720
H23   H     H_    0.373713 0.432171 0.145442 0.135999
H24   H     H_    0.874184 0.829323 0.165323 0.087553
H25   H     H_    0.837657 0.700303 0.274520 0.159070
H26   H     H_    0.951372 0.830825 0.385356 0.096609
H27   H     H_    0.003606 0.045616 0.345962 0.099525
H28   H     H_    0.152498 0.113872 0.391230 0.095708
H29   H     H_    0.249443 0.965980 0.475600 0.092583
H30   H     H_    0.199003 0.752780 0.514938 0.100322
H31   H     H_    0.391752 0.898539 0.094639 0.223735
H32   H     H_    0.355204 0.956244 0.257699 0.112378
H33   H     H_    0.334964 0.743710 0.352759 0.142222
H34   H     H_    0.695717 0.613974 0.860967 0.145755
H35   H     H_    0.275633 0.762960 0.200292 0.091685
H36   H     H_    0.372823 0.686258 0.185823 0.187144
H37   H     H_    0.376745 0.677034 0.793636 0.206613
H38   H     H_    0.352988 0.781455 0.657066 0.123188
H39   H     H_    0.231241 0.847291 0.787142 0.137139
H40   H     H_    0.223810 0.684343 0.778310 0.121053
H41   H     H_    0.254043 0.759902 0.937715 0.155851
H42   H     H_    0.603744 0.709025 0.851267 0.111402
H43   H     H_    0.589750 0.721169 0.104507 0.156492
H44   H     H_    0.936440 0.326350 0.553820 0.102586
H45   H     H_    0.969998 0.590604 0.265038 0.096235
H46   H     H_    0.943930 0.675845 0.670373 0.101104
N1    N     N_R   0.500530 0.500930 0.147930 -0.269211
N2    N     N_R   0.500530 0.500890 0.852020 -0.261029
O1    O     O_R   0.500000 0.319640 0.618810 -0.540457
O2    O     O_3   0.705321 0.633718 0.121744 -0.545311
O3    O     O_3   0.475588 0.878462 0.247120 -0.550980
O4    O     O_3   0.400179 0.857278 0.843313 -0.604255
O5    O     O_R   0.500010 0.319680 0.381230 -0.507131
O6    O     O_R   0.379070 0.499970 0.618770 -0.512566
O7    O     O_R   0.379080 0.500010 0.381190 -0.526586
O8    O     O_R   0.499990 0.680320 0.618770 -0.533657
O9    O     O_R   0.500000 0.680360 0.381190 -0.448568
O10   O     O_R   0.620920 0.499990 0.618810 -0.511446
O11   O     O_R   0.620930 0.500030 0.381230 -0.448113
O12   O     O_3   0.570888 0.076386 0.839129 -0.601133

loop_
_geom_bond_atom_site_label_1
_geom_bond_atom_site_label_2
_ccdc_geom_bond_type
C23   C45   S    
C20   C53   S    
C19   C20   S    
C15   H42   S    
C41   H22   S    
C22   C55   T    
C9    C25   S    
C7    C8    S    
C32   H14   S    
C38   H18   S    
C11   H23   S    
C31   H9    S    
C26   C27   A    
C37   C38   A    
C39   H19   S    
C28   C29   A    
C5    C6    A    
C19   H44   S    
Cu1   O6    S    
C10   C17   S    
C41   H25   S    
C52   H39   S    
C1    C2    S    
C17   H43   S    
C15   H34   S    
C33   C39   A    
C35   H15   S    
C23   H46   S    
C8    C9    S    
C11   N1    A    
Cu2   O7    S    
C23   C24   S    
C48   H30   S    
C32   H13   S    
C49   H32   S    
C51   H38   S    
C40   O2    S    
Cu1   N2    S    
C4    O6    A    
C45   C53   S    
C34   C55   S    
C9    O12   S    
C7    C56   A    
C44   C46   A    
Cu1   O10   S    
C3    H3    S    
C31   H10   S    
Cu2   O5    S    
C4    O7    A    
C10   C14   A    
C17   O2    S    
C18   O10   A    
C50   H36   S    
C25   C26   A    
Cu2   O11   S    
C51   C52   S    
C42   C45   S    
C47   H29   S    
C43   C44   A    
C31   O12   S    
C13   C33   S    
C29   C30   A    
C8    O4    S    
C47   C48   A    
C24   H2    S    
C23   C34   S    
C12   C20   S    
C40   H21   S    
C9    C56   S    
C42   C48   A    
C20   H1    S    
C18   O11   A    
C30   H8    S    
C27   H5    S    
C1    O1    A    
C29   H7    S    
C28   H6    S    
C40   C41   S    
Cu1   O1    S    
C51   O4    S    
Cu2   O9    S    
C40   H20   S    
C42   C43   A    
C44   H27   S    
C16   O9    A    
C49   O3    S    
C25   C30   A    
C15   C17   S    
C46   C47   A    
C36   C37   A    
C18   C22   S    
C32   H11   S    
C31   C32   S    
C49   H31   S    
C13   N2    A    
C3    C5    A    
C19   C34   S    
C16   O8    A    
C50   H35   S    
C6    C7    A    
C12   C45   S    
C12   C24   S    
C52   H41   S    
C8    H12   S    
C21   C54   T    
Cu2   N1    S    
C2    C3    A    
C26   H4    S    
C2    C56   A    
C1    O5    A    
C4    C21   S    
C11   C13   A    
Cu1   Cu2   S    
C38   C39   A    
Cu1   O8    S    
C5    O3    S    
C53   H45   S    
C41   H24   S    
C52   H40   S    
C33   C35   A    
C19   C24   S    
C37   H17   S    
C6    C16   S    
C50   H33   S    
C14   N2    A    
C43   H26   S    
C34   C53   S    
C49   C50   S    
C27   C28   A    
C14   C15   S    
C10   N1    A    
C35   C36   A    
C36   H16   S    
C12   C54   S    
C51   H37   S    
C46   H28   S    
