data_mof_unit_63430.cif
_audit_creation_date              2012-12-10T19:29:31-0500
_audit_creation_method            fapswitch 2.2
_symmetry_space_group_name_H-M    P1
_symmetry_Int_Tables_number       1
_space_group_crystal_system       triclinic
_cell_length_a                    22.273985
_cell_length_b                    22.267381
_cell_length_c                    14.960285
_cell_angle_alpha                 89.997761
_cell_angle_beta                  89.940266
_cell_angle_gamma                 90.000067
_cell_volume                      7420.0476404

loop_
_atom_site_label
_atom_site_type_symbol
_atom_type_description
_atom_site_fract_x
_atom_site_fract_y
_atom_site_fract_z
_atom_type_partial_charge
C1    C     C_R   0.418751 0.918786 0.500022 0.899931
C2    C     C_R   0.581249 0.081214 0.499978 0.900000
C3    C     C_R   0.581251 0.918788 0.499980 0.899957
C4    C     C_R   0.418749 0.081212 0.500020 0.899977
C5    C     C_R   0.918751 0.418786 0.500022 0.900000
C6    C     C_R   0.081249 0.581214 0.499978 0.899931
C7    C     C_R   0.081251 0.418788 0.499980 0.899978
C8    C     C_R   0.918749 0.581212 0.500019 0.899957
C9    C     C_1   0.336409 0.162889 0.500288 0.066783
C10   C     C_1   0.663594 0.837113 0.499718 0.066684
C11   C     C_1   0.663595 0.162885 0.499711 0.066956
C12   C     C_1   0.336411 0.837109 0.500300 0.067065
C13   C     C_1   0.836406 0.662886 0.500282 0.066687
C14   C     C_1   0.163591 0.337111 0.499712 0.066786
C15   C     C_1   0.163589 0.662891 0.499700 0.067063
C16   C     C_1   0.836405 0.337115 0.500289 0.066954
C17   C     C_1   0.499915 0.999998 0.189844 0.176346
C18   C     C_1   0.500085 0.000002 0.810156 0.176202
C19   C     C_1   0.999918 0.499998 0.189844 0.176192
C20   C     C_1   0.000082 0.500002 0.810155 0.176336
C21   C     C_3   0.472778 0.949990 0.969426 -0.208651
C22   C     C_3   0.527223 0.050010 0.030574 -0.208767
C23   C     C_3   0.529389 0.951232 0.030576 -0.208872
C24   C     C_3   0.470611 0.048768 0.969424 -0.208893
C25   C     C_3   0.972731 0.450015 0.969428 -0.208770
C26   C     C_3   0.027269 0.549985 0.030572 -0.208653
C27   C     C_3   0.029346 0.451205 0.030573 -0.208893
C28   C     C_3   0.970654 0.548795 0.969427 -0.208872
C29   C     C_3   0.701225 0.729620 0.540354 0.757314
C30   C     C_3   0.298494 0.270101 0.458597 0.757431
C31   C     C_3   0.298252 0.730145 0.457718 0.757547
C32   C     C_3   0.701183 0.270418 0.540195 0.757483
C33   C     C_3   0.201506 0.229900 0.541403 0.757431
C34   C     C_3   0.798775 0.770380 0.459645 0.757314
C35   C     C_3   0.798817 0.229582 0.459805 0.757484
C36   C     C_3   0.201748 0.769855 0.542282 0.757546
C37   C     C_3   0.228806 0.200961 0.457136 -0.302747
C38   C     C_3   0.770895 0.798741 0.543928 -0.302735
C39   C     C_3   0.770849 0.201301 0.544085 -0.302830
C40   C     C_3   0.228560 0.799288 0.458044 -0.302813
C41   C     C_3   0.729105 0.701259 0.456072 -0.302733
C42   C     C_3   0.271194 0.299039 0.542864 -0.302746
C43   C     C_3   0.271440 0.700712 0.541956 -0.302814
C44   C     C_3   0.729151 0.298699 0.455915 -0.302831
C45   C     C_1   0.374167 0.125450 0.500120 -0.137288
C46   C     C_1   0.625835 0.874551 0.499881 -0.137377
C47   C     C_1   0.625835 0.125449 0.499874 -0.137048
C48   C     C_1   0.374169 0.874548 0.500129 -0.136970
C49   C     C_1   0.874165 0.625449 0.500119 -0.137372
C50   C     C_1   0.125833 0.374550 0.499879 -0.137281
C51   C     C_1   0.125831 0.625452 0.499871 -0.136975
C52   C     C_1   0.874165 0.374551 0.500126 -0.137053
C53   C     C_3   0.263701 0.235853 0.585440 -0.303217
C54   C     C_3   0.736887 0.764733 0.414573 -0.303247
C55   C     C_3   0.736977 0.235185 0.414575 -0.303007
C56   C     C_3   0.264196 0.763646 0.585440 -0.302888
C57   C     C_3   0.763113 0.735267 0.585426 -0.303246
C58   C     C_3   0.236299 0.264147 0.414560 -0.303216
C59   C     C_3   0.235804 0.736354 0.414560 -0.302889
C60   C     C_3   0.763023 0.264814 0.585425 -0.303008
C61   C     C_3   0.290917 0.208123 0.500495 -0.029469
C62   C     C_3   0.709087 0.791881 0.499516 -0.029375
C63   C     C_3   0.709087 0.208118 0.499514 -0.029622
C64   C     C_3   0.290920 0.791874 0.500509 -0.029731
C65   C     C_3   0.790913 0.708119 0.500483 -0.029376
C66   C     C_3   0.209083 0.291877 0.499505 -0.029469
C67   C     C_3   0.209080 0.708126 0.499491 -0.029731
C68   C     C_3   0.790913 0.291882 0.500486 -0.029622
C69   C     C_3   0.443768 0.998766 0.029112 0.035922
C70   C     C_3   0.556232 0.001234 0.970888 0.035977
C71   C     C_3   0.943768 0.498817 0.029118 0.035996
C72   C     C_3   0.056231 0.501183 0.970882 0.035942
C73   C     C_3   0.499651 0.999992 0.089606 0.026325
C74   C     C_3   0.500349 0.000008 0.910394 0.026293
C75   C     C_3   0.999654 0.499992 0.089606 0.026275
C76   C     C_3   0.000346 0.500008 0.910394 0.026308
H1    H     H_    0.212070 0.159895 0.423262 0.195676
H2    H     H_    0.787394 0.839572 0.578678 0.195660
H3    H     H_    0.787310 0.160502 0.578963 0.195680
H4    H     H_    0.211632 0.840552 0.424918 0.195727
H5    H     H_    0.712606 0.660428 0.421322 0.195659
H6    H     H_    0.287930 0.340105 0.576738 0.195675
H7    H     H_    0.288368 0.659448 0.575082 0.195729
H8    H     H_    0.712690 0.339498 0.421037 0.195681
H9    H     H_    0.725958 0.778142 0.344995 0.195420
H10   H     H_    0.275110 0.222921 0.655047 0.195447
H11   H     H_    0.276009 0.776167 0.655061 0.195749
H12   H     H_    0.726121 0.221712 0.345001 0.195709
H13   H     H_    0.224890 0.277079 0.344953 0.195451
H14   H     H_    0.774042 0.721858 0.655004 0.195423
H15   H     H_    0.773879 0.278288 0.654999 0.195705
H16   H     H_    0.223991 0.723833 0.344939 0.195746
H17   H     H_    0.554009 0.911156 0.055136 0.169994
H18   H     H_    0.445992 0.088844 0.944864 0.170001
H19   H     H_    0.449938 0.908874 0.944864 0.170193
H20   H     H_    0.550063 0.091126 0.055136 0.170132
H21   H     H_    0.053924 0.411105 0.055137 0.170004
H22   H     H_    0.946076 0.588895 0.944863 0.169998
H23   H     H_    0.949859 0.408918 0.944863 0.170131
H24   H     H_    0.050141 0.591082 0.055137 0.170193
N1    N     N_1   0.500020 0.000000 0.268010 -0.076538
N2    N     N_1   0.499980 0.000000 0.731990 -0.076579
N3    N     N_1   0.000020 0.500000 0.268010 -0.076576
N4    N     N_1   0.999980 0.500000 0.731990 -0.076535
O1    O     O_R   0.438390 0.938390 0.574460 -0.612477
O2    O     O_R   0.561610 0.061610 0.425540 -0.612405
O3    O     O_R   0.561610 0.938390 0.425540 -0.612325
O4    O     O_R   0.438390 0.061610 0.574460 -0.612371
O5    O     O_R   0.938390 0.438390 0.574460 -0.612404
O6    O     O_R   0.061610 0.561610 0.425540 -0.612476
O7    O     O_R   0.061610 0.438390 0.425540 -0.612372
O8    O     O_R   0.938390 0.561610 0.574460 -0.612327
O9    O     O_R   0.438400 0.938390 0.425520 -0.596147
O10   O     O_R   0.561600 0.061610 0.574480 -0.596383
O11   O     O_R   0.561600 0.938390 0.574480 -0.596951
O12   O     O_R   0.438400 0.061610 0.425520 -0.596812
O13   O     O_R   0.938400 0.438390 0.425520 -0.596393
O14   O     O_R   0.061600 0.561610 0.574480 -0.596158
O15   O     O_R   0.061600 0.438390 0.574480 -0.596801
O16   O     O_R   0.938400 0.561610 0.425520 -0.596939
Zn1   Zn    Zn3+2 0.500000 1.000000 0.599450 1.028957
Zn2   Zn    Zn3+2 0.500000 0.000000 0.400550 1.029203
Zn3   Zn    Zn3+2 0.000000 0.500000 0.599450 1.029204
Zn4   Zn    Zn3+2 0.000000 0.500000 0.400550 1.028958
C77   C     C_2   0.620423 0.002645 0.941055 0.910458
O17   O     O_2   0.660433 0.003516 0.996861 -0.598329
O18   O     O_R   0.634297 0.002959 0.849976 -0.798874
H25   H     H_    0.679149 0.003946 0.838468 0.356927
C78   C     C_2   0.379577 0.997355 0.058945 0.910758
O19   O     O_2   0.339567 0.996484 0.003138 -0.598069
O20   O     O_R   0.365703 0.997040 0.150024 -0.798681
H26   H     H_    0.320851 0.996054 0.161532 0.357023
C79   C     C_2   0.120423 0.502535 0.941052 0.910760
O21   O     O_2   0.160432 0.503370 0.996864 -0.598064
O22   O     O_R   0.134301 0.502838 0.849975 -0.798685
H27   H     H_    0.179153 0.503784 0.838468 0.357024
C80   C     C_2   0.879577 0.497465 0.058947 0.910459
O23   O     O_2   0.839567 0.496630 0.003136 -0.598323
O24   O     O_R   0.865699 0.497162 0.150025 -0.798877
H28   H     H_    0.820847 0.496216 0.161532 0.356928
F1    F     F_    0.649487 0.709805 0.582116 -0.626299
F2    F     F_    0.349942 0.289626 0.415750 -0.626138
F3    F     F_    0.349449 0.710873 0.413961 -0.625978
F4    F     F_    0.649401 0.290273 0.581792 -0.626008
F5    F     F_    0.150058 0.210374 0.584250 -0.626138
F6    F     F_    0.850513 0.790195 0.417884 -0.626299
F7    F     F_    0.850599 0.209727 0.418208 -0.626009
F8    F     F_    0.150551 0.789127 0.586039 -0.625978

loop_
_geom_bond_atom_site_label_1
_geom_bond_atom_site_label_2
_ccdc_geom_bond_type
C9    C45   T    
O11   Zn1   S    
C26   C72   S    
C11   C47   T    
C42   H6    S    
O4    Zn1   S    
C12   C48   T    
C36   C67   S    
O22   H27   S    
C71   C80   S    
N4    Zn3   S    
C13   C65   S    
C4    O4    A    
C58   C66   S    
C31   C43   S    
C9    C61   S    
C6    O14   A    
O13   Zn4   S    
C11   C63   S    
C8    O8    A    
C42   C53   S    
C21   C69   S    
C12   C64   S    
C43   H7    S    
C20   C76   S    
C18   N2    T    
C31   C59   S    
C55   H12   S    
C17   N1    T    
O6    Zn4   S    
O10   Zn1   S    
C53   C61   S    
C25   H23   S    
O9    Zn2   S    
C55   C63   S    
C70   C74   S    
C56   C64   S    
C5    C52   S    
C69   C73   S    
C53   H10   S    
C16   C68   S    
C15   C51   T    
C6    C51   S    
N2    Zn1   S    
C37   C58   S    
C72   C76   S    
C59   H16   S    
C59   C67   S    
C29   F1    S    
C18   C74   S    
C40   C59   S    
C17   C73   S    
C6    O6    A    
C23   C70   S    
C10   C62   S    
C1    O9    A    
C23   C73   S    
C27   C75   S    
N3    Zn4   S    
C34   C65   S    
C36   F8    S    
C24   C69   S    
C4    C45   S    
C33   C53   S    
C57   H14   S    
C14   C50   T    
C35   C55   S    
C7    O15   A    
C36   C40   S    
C32   C63   S    
O8    Zn3   S    
O5    Zn3   S    
C56   H11   S    
C41   C65   S    
C21   H19   S    
C3    O3    A    
C37   H1    S    
C21   C74   S    
C2    O2    A    
C33   C37   S    
C23   H17   S    
C5    O13   A    
C39   H3    S    
C35   C39   S    
C10   C46   T    
C15   C67   S    
C36   C56   S    
C24   H18   S    
C38   C57   S    
C80   O24   S    
C41   H5    S    
C33   C66   S    
O2    Zn2   S    
C40   H4    S    
C26   C75   S    
C14   C66   S    
O1    Zn1   S    
C35   F7    S    
C60   C68   S    
O12   Zn2   S    
C25   C71   S    
C70   C77   S    
C69   C78   S    
C29   C57   S    
C34   C54   S    
C21   C23   S    
C79   O21   D    
C13   C49   T    
C44   C68   S    
C28   C71   S    
C32   C60   S    
O18   H25   S    
C28   C76   S    
C8    O16   A    
C42   C66   S    
C78   O19   D    
C60   H15   S    
C28   H22   S    
C29   C62   S    
C27   H21   S    
C29   C41   S    
O7    Zn4   S    
C34   C38   S    
C22   H20   S    
C31   C64   S    
C4    O12   A    
C30   C42   S    
C16   C52   T    
C7    C50   S    
C57   C65   S    
O3    Zn2   S    
C44   H8    S    
C40   C64   S    
C54   H9    S    
C37   C61   S    
O24   H28   S    
C1    C48   S    
C20   N4    T    
O15   Zn3   S    
C2    C47   S    
C25   C27   S    
C38   H2    S    
C39   C63   S    
C80   O23   D    
C3    C46   S    
C26   C28   S    
N1    Zn2   S    
C30   F2    S    
C34   F6    S    
C25   C76   S    
C19   C75   S    
C3    O11   A    
C71   C75   S    
C2    O10   A    
C44   C55   S    
C24   C74   S    
C72   C79   S    
C77   O17   D    
C5    O5    A    
C35   C68   S    
C39   C60   S    
C30   C58   S    
C7    O7    A    
C22   C24   S    
O14   Zn3   S    
C31   F3    S    
O20   H26   S    
C58   H13   S    
C19   N3    T    
C41   C54   S    
C32   F4    S    
O16   Zn4   S    
C43   C56   S    
C32   C44   S    
C43   C67   S    
C30   C61   S    
C1    O1    A    
C77   O18   S    
C79   O22   S    
C54   C62   S    
C22   C73   S    
C78   O20   S    
C8    C49   S    
C22   C70   S    
C27   C72   S    
C33   F5    S    
C26   H24   S    
C38   C62   S    
