data_mof_unit_43586.cif
_audit_creation_date              2013-03-05T16:31:36-0500
_audit_creation_method            fapswitch 2.2
_symmetry_space_group_name_H-M    P1
_symmetry_Int_Tables_number       1
_space_group_crystal_system       triclinic
_cell_length_a                    9.544112
_cell_length_b                    10.860755
_cell_length_c                    15.512828
_cell_angle_alpha                 89.874995
_cell_angle_beta                  74.279578
_cell_angle_gamma                 89.98996
_cell_volume                      1547.85100868

loop_
_atom_site_label
_atom_site_type_symbol
_atom_site_description
_atom_site_fract_x
_atom_site_fract_y
_atom_site_fract_z
_atom_type_partial_charge
O1    O     O_R   0.118810 0.319640 0.500000 -0.580611
O2    O     O_R   0.881230 0.319680 0.499990 -0.594589
C1    C     C_R   0.999915 0.262703 0.499871 0.811801
O3    O     O_R   0.055580 0.499970 0.629840 -0.575622
O4    O     O_R   0.818000 0.500010 0.629830 -0.584879
C2    C     C_R   0.918057 0.500649 0.672075 0.812097
Cu1   Cu    Cu3+1 0.140670 0.499980 0.500000 0.971697
Cu2   Cu    Cu3+1 0.859330 0.500020 0.500000 0.950144
O5    O     O_R   0.118770 0.680320 0.500010 -0.560536
O6    O     O_R   0.881190 0.680360 0.500000 -0.585612
O7    O     O_R   0.182000 0.499990 0.370170 -0.586256
O8    O     O_R   0.944420 0.500030 0.370160 -0.589769
C3    C     C_R   0.999975 0.737289 0.499676 0.818962
C4    C     C_R   0.081630 0.498323 0.327985 0.815524
C5    C     C_R   0.872211 0.505639 0.770242 -0.056100
C6    C     C_R   0.125683 0.483362 0.230451 -0.111997
C7    C     C_R   0.919170 0.555027 0.911602 -0.130200
C8    C     C_R   0.969418 0.539172 0.819331 -0.171884
C9    C     C_R   0.726198 0.482720 0.814631 -0.231923
C10   C     C_R   0.673306 0.494794 0.908018 0.089091
C11   C     C_R   0.771850 0.535275 0.955932 0.185521
C12   C     C_R   0.525048 0.470891 0.954590 0.077180
C13   C     C_R   0.474698 0.498978 0.047425 0.088495
C14   C     C_R   0.577091 0.539706 0.092354 -0.208658
C15   C     C_R   0.722658 0.556114 0.047545 -0.161613
C16   C     C_R   0.426612 0.416932 0.911983 -0.222421
C17   C     C_R   0.283285 0.392794 0.958175 -0.176430
C18   C     C_R   0.230336 0.422991 0.048587 0.069679
C19   C     C_R   0.324879 0.480476 0.093183 0.053324
C20   C     C_R   0.085104 0.395064 0.096086 0.352270
C21   C     C_R   0.034328 0.424834 0.186567 -0.236162
C22   C     C_R   0.266697 0.515670 0.182914 -0.250867
H1    H     H_    0.797286 0.586051 0.085029 0.152439
H2    H     H_    0.328410 0.568954 0.217975 0.144968
H3    H     H_    0.925092 0.398030 0.223324 0.181493
H4    H     H_    0.214392 0.349671 0.921845 0.202638
H5    H     H_    0.995215 0.584168 0.948284 0.146071
H6    H     H_    0.082878 0.557138 0.786165 0.166598
H7    H     H_    0.654816 0.459633 0.774061 0.150219
H8    H     H_    0.549852 0.555978 0.163198 0.145596
H9    H     H_    0.457796 0.387169 0.843272 0.142880
C23   C     C_R   0.120701 0.061993 0.500866 0.029180
C24   C     C_R   0.998562 0.130087 0.499121 -0.069108
C25   C     C_R   0.871953 0.064593 0.496516 -0.198328
H10   H     H_    0.773105 0.112359 0.494800 0.166175
C26   C     C_R   0.872016 0.935441 0.496364 -0.190076
H11   H     H_    0.773223 0.887716 0.494518 0.173854
C27   C     C_R   0.998680 0.869896 0.498847 -0.116461
C28   C     C_R   0.120792 0.937967 0.500634 0.065292
C29   C     C_3   0.274707 0.929496 0.504630 0.474869
C30   C     C_3   0.274487 0.071296 0.505100 -0.508016
H12   H     H_    0.348945 0.887250 0.444162 0.048780
H13   H     H_    0.283076 0.112133 0.569121 0.222647
H14   H     H_    0.346752 0.112755 0.443382 0.162943
C31   C     C_R   0.593232 0.590448 0.456195 0.279638
N1    N     N_R   0.648210 0.500930 0.499430 -0.190643
C32   C     C_R   0.552267 0.418142 0.550328 -0.075858
H15   H     H_    0.590743 0.350311 0.589697 0.140312
C33   C     C_R   0.403325 0.418240 0.550417 -0.075526
H16   H     H_    0.330057 0.350661 0.589947 0.139731
N2    N     N_R   0.352300 0.500890 0.499430 -0.188399
C34   C     C_R   0.445892 0.590035 0.455825 0.324737
C35   C     C_3   0.485099 0.615384 0.357770 -0.547884
C36   C     C_3   0.643369 0.618487 0.358659 -0.514969
H17   H     H_    0.460506 0.535550 0.319868 0.216991
H18   H     H_    0.443604 0.705732 0.341675 0.190274
H19   H     H_    0.708628 0.542979 0.318864 0.221268
H20   H     H_    0.692985 0.711600 0.345460 0.198871
Cl1   Cl    Cl    0.965914 0.313702 0.047475 -0.655667
F1    F     F_    0.284582 0.879695 0.584981 -0.637180

loop_
_geom_bond_atom_site_label_1
_geom_bond_atom_site_label_2
_geom_bond_distance
_ccdc_geom_bond_type
O1    C1    1.292873 A    
C3    C27   1.440321 S    
C29   H12   1.110874 S    
C13   C14   1.416710 A    
C35   H17   1.108899 S    
C26   H11   1.083233 S    
C22   H2    1.073656 S    
C34   C35   1.489751 S    
O2    C1    1.290224 A    
C17   H4    1.082298 S    
C6    C22   1.392657 A    
C5    C8    1.399091 A    
C9    C10   1.405432 A    
O8    C4    1.295793 A    
C23   C30   1.490348 S    
Cu2   O8    1.957058 S    
C30   H14   1.111532 S    
C31   C36   1.488871 S    
Cu2   N1    2.017390 S    
C31   N1    1.363116 A    
C18   C20   1.414907 A    
C7    C8    1.391957 A    
C8    H6    1.083111 S    
C35   H18   1.111033 S    
C33   H16   1.081470 S    
C10   C11   1.418005 A    
C7    H5    1.084166 S    
C14   C15   1.386122 A    
C6    C21   1.396933 A    
Cu1   O7    1.944587 S    
C36   H19   1.111413 S    
C1    C24   1.440469 S    
C16   C17   1.386212 A    
O4    C2    1.296379 A    
C9    H7    1.075274 S    
O3    Cu1   1.957058 S    
C27   C28   1.386900 A    
C13   C19   1.427694 A    
Cu2   O6    1.969745 S    
C18   C19   1.422297 A    
C14   H8    1.073597 S    
C10   C12   1.427202 A    
C29   C30   1.540095 S    
C19   C22   1.405507 A    
C21   H3    1.083535 S    
C24   C25   1.412324 A    
C29   F1    1.384134 S    
C20   C21   1.393868 A    
O7    C4    1.298449 A    
C4    C6    1.465877 S    
C32   C33   1.421138 A    
O4    Cu2   1.944584 S    
C33   N2    1.368940 A    
N2    C34   1.364869 A    
C23   C28   1.347024 A    
C12   C16   1.414677 A    
C35   C36   1.514728 S    
C31   C34   1.407804 A    
C36   H20   1.111567 S    
Cu1   Cu2   2.685139 S    
C20   Cl1   1.763989 S    
N1    C32   1.369583 A    
O3    C2    1.298498 A    
C28   C29   1.489796 S    
C23   C24   1.386816 A    
C17   C18   1.395684 A    
Cu1   O5    1.969709 S    
C11   C15   1.389665 A    
C12   C13   1.422949 A    
Cu1   N2    2.017469 S    
O5    C3    1.292773 A    
C25   C26   1.402698 A    
O1    Cu1   1.969745 S    
C2    C5    1.467212 S    
C5    C9    1.399115 A    
C26   C27   1.412264 A    
O2    Cu2   1.969708 S    
C25   H10   1.083157 S    
C32   H15   1.081681 S    
C16   H9    1.076463 S    
C15   H1    1.084670 S    
C30   H13   1.111660 S    
O6    C3    1.290245 A    
C7    C11   1.404059 A    
