data_mof_unit_60565.cif
_audit_creation_date              2012-12-10T18:23:14-0500
_audit_creation_method            fapswitch 2.2
_symmetry_space_group_name_H-M    P1
_symmetry_Int_Tables_number       1
_space_group_crystal_system       triclinic
_cell_length_a                    21.584956
_cell_length_b                    21.558738
_cell_length_c                    21.926311
_cell_angle_alpha                 61.145444
_cell_angle_beta                  118.64618
_cell_angle_gamma                 88.494771
_cell_volume                      7389.04490652

loop_
_atom_site_label
_atom_site_type_symbol
_atom_type_description
_atom_site_fract_x
_atom_site_fract_y
_atom_site_fract_z
_atom_type_partial_charge
C1    C     C_R   0.620595 0.499954 0.498558 0.928134
C2    C     C_3   0.777698 0.444793 0.477283 0.310766
C3    C     C_3   0.679518 0.578139 0.432825 -0.635073
C4    C     C_R   0.418835 0.581345 0.337634 0.865213
C5    C     C_3   0.756155 0.475524 0.587897 0.386129
C6    C     C_3   0.689529 0.497878 0.499827 -0.087318
C7    C     C_3   0.810801 0.499189 0.500975 -0.119391
C8    C     C_3   0.752670 0.579732 0.437462 -0.532389
C9    C     C_3   0.829560 0.471060 0.590869 0.280511
C10   C     C_3   0.707702 0.216868 0.028714 -0.167877
C11   C     C_3   0.689461 0.302711 0.972065 -0.167286
C12   C     C_3   0.290662 0.710140 0.082395 0.062703
C13   C     C_1   0.623615 0.373760 0.751473 -0.209672
C14   C     C_1   0.874130 0.125688 0.248435 -0.189259
C15   C     C_3   0.724150 0.205586 0.972681 -0.162621
C16   C     C_R   0.377247 0.502573 0.496449 0.962293
C17   C     C_3   0.706728 0.290605 0.917671 0.213483
C18   C     C_3   0.807350 0.196582 0.027693 -0.162499
C19   C     C_3   0.790100 0.208661 0.082127 0.209058
C20   C     C_3   0.789112 0.282410 0.971058 -0.166975
C21   C     C_3   0.772668 0.293701 0.027083 -0.161694
C22   C     C_1   0.660924 0.336070 0.826642 -0.097823
C23   C     C_3   0.182287 0.744822 0.972601 0.504084
C24   C     C_1   0.836218 0.163231 0.173222 -0.086186
C25   C     C_3   0.270542 0.453538 0.468371 0.288907
C26   C     C_3   0.197316 0.456321 0.464747 0.328551
C27   C     C_3   0.334196 0.469856 0.589172 0.215772
C28   C     C_R   0.579960 0.418667 0.662351 0.915417
C29   C     C_3   0.254793 0.586301 0.440956 -0.496577
C30   C     C_3   0.309670 0.504133 0.496812 -0.196631
C31   C     C_3   0.189525 0.503156 0.499027 -0.270162
C32   C     C_3   0.262381 0.474173 0.589277 0.172804
C33   C     C_3   0.181910 0.586360 0.438607 0.345122
C34   C     C_3   0.208830 0.792524 0.917336 0.065192
C35   C     C_R   0.000399 0.878933 0.499465 0.924857
C36   C     C_R   0.081150 0.918846 0.662291 0.916466
C37   C     C_R   0.999477 0.120589 0.500676 0.938970
C38   C     C_R   0.918805 0.081136 0.337616 0.894141
C39   C     C_R   0.000957 0.377760 0.500769 0.972216
C40   C     C_3   0.283073 0.727567 0.972253 -0.326785
C41   C     C_R   0.878494 0.501008 0.500248 0.962459
C42   C     C_R   0.997934 0.621632 0.499963 0.937631
C43   C     C_R   0.121672 0.502285 0.500055 0.977747
C44   C     C_3   0.066130 0.785582 0.494804 -0.427106
C45   C     C_3   0.216759 0.775582 0.027458 -0.328767
C46   C     C_3   0.060752 0.717489 0.488512 0.300171
C47   C     C_3   0.011629 0.746257 0.583112 0.299980
C48   C     C_3   0.925355 0.825715 0.423798 -0.532596
C49   C     C_3   0.001554 0.810225 0.500489 -0.022964
C50   C     C_3   0.998806 0.689286 0.500750 -0.062150
C51   C     C_3   0.009194 0.674298 0.583271 0.326494
C52   C     C_3   0.318408 0.757976 0.028076 -0.183387
C53   C     C_3   0.922594 0.753893 0.425051 -0.474316
C54   C     C_3   0.081601 0.178015 0.565935 0.258270
C55   C     C_3   0.085306 0.247116 0.573621 0.905054
C56   C     C_3   0.243738 0.823828 0.971387 -0.183440
C57   C     C_3   0.971837 0.255145 0.414289 -0.555929
C58   C     C_3   0.944088 0.204674 0.523626 -0.481345
C59   C     C_3   0.999403 0.187080 0.503157 -0.055184
C60   C     C_3   0.002756 0.307217 0.504432 -0.085848
C61   C     C_3   0.975650 0.325307 0.415596 -0.571653
C62   C     C_3   0.945692 0.275798 0.524964 0.335067
C63   C     C_1   0.374024 0.626245 0.248559 -0.186081
C64   C     C_1   0.125648 0.874913 0.751294 -0.192138
C65   C     C_3   0.255631 0.680236 0.027278 0.505917
C66   C     C_3   0.706383 0.496619 0.328728 -0.329051
C67   C     C_1   0.336259 0.664156 0.173411 -0.001894
C68   C     C_3   0.761747 0.411841 0.713028 -0.283322
C69   C     C_3   0.937993 0.386430 0.726308 -0.204354
C70   C     C_3   0.236012 0.530661 0.325792 -0.166489
C71   C     C_3   0.117431 0.432248 0.366177 -0.255933
C72   C     C_3   0.276827 0.344317 0.666516 -0.310918
C73   C     C_3   0.089380 0.697891 0.312834 -0.303978
C74   C     C_3   0.425826 0.465027 0.707311 -0.271381
C75   C     C_3   0.173353 0.622510 0.620923 -0.328308
C76   C     C_3   0.072811 0.730866 0.713572 -0.344106
C77   C     C_3   0.971277 0.590635 0.665198 -0.378692
C78   C     C_1   0.163217 0.837777 0.826392 -0.005806
C79   C     C_3   0.096848 0.701543 0.001057 -0.329272
C80   C     C_3   0.095846 0.075175 0.690296 -0.280259
C81   C     C_3   0.178523 0.196211 0.719167 -0.211857
C82   C     C_3   0.197748 0.241024 0.572718 -0.507875
C83   C     C_3   0.908994 0.241473 0.618931 -0.265138
C84   C     C_3   0.234897 0.590398 0.998682 -0.332458
C85   C     C_3   0.693031 0.327421 0.501841 -0.314515
C86   C     C_3   0.705429 0.442691 0.477525 0.318683
H1    H     H_    0.375223 0.762795 0.052968 0.152020
H2    H     H_    0.703418 0.170300 0.948747 0.132964
H3    H     H_    0.308620 0.394850 0.521592 0.051140
H4    H     H_    0.371143 0.410510 0.627957 0.085495
H5    H     H_    0.238242 0.883840 0.946211 0.149346
H6    H     H_    0.281740 0.618375 0.467423 0.213852
H7    H     H_    0.242518 0.618481 0.376773 0.177177
H8    H     H_    0.176054 0.618531 0.464156 0.113859
H9    H     H_    0.254553 0.520377 0.597259 0.178599
H10   H     H_    0.121399 0.773884 0.548740 0.227397
H11   H     H_    0.191117 0.794448 0.051673 0.152593
H12   H     H_    0.632917 0.596031 0.368739 0.194794
H13   H     H_    0.063331 0.628554 0.638655 0.111133
H14   H     H_    0.877854 0.845421 0.424766 0.213115
H15   H     H_    0.917601 0.870966 0.364168 0.187273
H16   H     H_    0.910302 0.766051 0.364184 0.186719
H17   H     H_    0.875424 0.737872 0.429034 0.230423
H18   H     H_    0.962685 0.765434 0.582839 0.134767
H19   H     H_    0.107411 0.181317 0.531905 0.120915
H20   H     H_    0.006511 0.245649 0.392946 0.196432
H21   H     H_    0.013488 0.348003 0.397162 0.214854
H22   H     H_    0.886018 0.215511 0.474048 0.168204
H23   H     H_    0.741073 0.605391 0.373728 0.236105
H24   H     H_    0.913201 0.264145 0.367552 0.207934
H25   H     H_    0.654308 0.463450 0.414679 0.062941
H26   H     H_    0.819840 0.388265 0.530395 0.173808
H27   H     H_    0.676130 0.547061 0.317505 0.155674
H28   H     H_    0.671018 0.460866 0.321780 0.154515
H29   H     H_    0.716936 0.516577 0.278692 0.195051
H30   H     H_    0.708100 0.453136 0.683967 0.156721
H31   H     H_    0.808871 0.428792 0.744282 0.124730
H32   H     H_    0.767328 0.356295 0.762048 0.193369
H33   H     H_    0.915489 0.407032 0.751677 0.122927
H34   H     H_    0.744837 0.522610 0.593983 0.013116
H35   H     H_    0.977204 0.415517 0.716244 0.147251
H36   H     H_    0.970406 0.325639 0.774473 0.175668
H37   H     H_    0.664287 0.620131 0.443336 0.232471
H38   H     H_    0.309283 0.709455 0.948012 0.156028
H39   H     H_    0.821585 0.310114 0.945683 0.124083
H40   H     H_    0.856488 0.152304 0.052085 0.131099
H41   H     H_    0.184206 0.565875 0.307646 0.227679
H42   H     H_    0.220598 0.525538 0.272762 0.162519
H43   H     H_    0.279023 0.558510 0.331956 0.118987
H44   H     H_    0.102913 0.393196 0.408785 0.176188
H45   H     H_    0.853432 0.511042 0.605975 0.030896
H46   H     H_    0.164825 0.400280 0.373958 0.186909
H47   H     H_    0.068221 0.459590 0.300535 0.170906
H48   H     H_    0.201614 0.398375 0.507345 0.042193
H49   H     H_    0.310126 0.334041 0.644623 0.101931
H50   H     H_    0.219667 0.343719 0.631215 0.226364
H51   H     H_    0.304588 0.296638 0.733158 0.176377
H52   H     H_    0.133035 0.725020 0.316493 0.142489
H53   H     H_    0.061447 0.710324 0.338951 0.165319
H54   H     H_    0.046343 0.722644 0.245382 0.182020
H55   H     H_    0.471223 0.421081 0.725160 0.150639
H56   H     H_    0.775593 0.616749 0.458080 0.191922
H57   H     H_    0.398093 0.438869 0.740217 0.190534
H58   H     H_    0.452113 0.500246 0.728718 0.180769
H59   H     H_    0.060617 0.832677 0.437535 0.152028
H60   H     H_    0.038243 0.741026 0.421391 0.118673
H61   H     H_    0.161283 0.569719 0.647951 0.193229
H62   H     H_    0.166594 0.655032 0.645074 0.196027
H63   H     H_    0.233459 0.605887 0.644715 0.191579
H64   H     H_    0.050843 0.685938 0.739013 0.161326
H65   H     H_    0.035469 0.786387 0.686185 0.187865
H66   H     H_    0.128458 0.719507 0.766865 0.197045
H67   H     H_    0.640278 0.347007 0.947572 0.126994
H68   H     H_    0.006298 0.597889 0.716752 0.159727
H69   H     H_    0.002355 0.540056 0.676816 0.182548
H70   H     H_    0.921190 0.581278 0.665660 0.184249
H71   H     H_    0.094288 0.734649 0.026496 0.159508
H72   H     H_    0.139995 0.644828 0.052686 0.190858
H73   H     H_    0.041794 0.693542 0.973462 0.191828
H74   H     H_    0.055870 0.049472 0.664817 0.153958
H75   H     H_    0.069717 0.115618 0.695495 0.220528
H76   H     H_    0.141515 0.028911 0.755446 0.173564
H77   H     H_    0.206838 0.238083 0.707297 0.167116
H78   H     H_    0.675143 0.189197 0.053956 0.131858
H79   H     H_    0.207991 0.144201 0.732206 0.176854
H80   H     H_    0.183022 0.180506 0.777678 0.157408
H81   H     H_    0.184334 0.245092 0.515015 0.187992
H82   H     H_    0.220201 0.181363 0.625841 0.207323
H83   H     H_    0.243553 0.264375 0.589400 0.190671
H84   H     H_    0.954693 0.155890 0.582428 0.182864
H85   H     H_    0.925604 0.179404 0.659704 0.152855
H86   H     H_    0.852073 0.264096 0.560942 0.132402
H87   H     H_    0.905930 0.263617 0.654103 0.235197
H88   H     H_    0.889287 0.320110 0.473690 0.115289
H89   H     H_    0.793386 0.329012 0.050985 0.129013
H90   H     H_    0.269782 0.598383 0.972951 0.160133
H91   H     H_    0.175494 0.626686 0.947239 0.186850
H92   H     H_    0.236552 0.531144 0.026268 0.192108
H93   H     H_    0.918925 0.368904 0.366828 0.224637
H94   H     H_    0.711534 0.267416 0.552703 0.187948
H95   H     H_    0.718021 0.330786 0.466675 0.144152
H96   H     H_    0.630876 0.347834 0.459492 0.170300
O1    O     O_R   0.592630 0.447740 0.499990 -0.576035
O2    O     O_R   0.965300 0.442140 0.430470 -0.644927
O3    O     O_R   0.942170 0.465260 0.569550 -0.620907
O4    O     O_R   0.592590 0.552250 0.500040 -0.655254
O5    O     O_R   0.872610 0.534760 0.430420 -0.602196
O6    O     O_R   0.034700 0.557860 0.569530 -0.654332
O7    O     O_R   0.965140 0.627350 0.430400 -0.657374
O8    O     O_R   0.127390 0.465250 0.569580 -0.605422
O9    O     O_R   0.057830 0.534740 0.430450 -0.542994
O10   O     O_R   0.438420 0.509360 0.376750 -0.611743
O11   O     O_R   0.438370 0.613870 0.376810 -0.629268
O12   O     O_R   0.947670 0.907410 0.499960 -0.649188
O13   O     O_R   0.407410 0.447750 0.499960 -0.614967
O14   O     O_R   0.407370 0.552260 0.500010 -0.589681
O15   O     O_R   0.561630 0.386130 0.623190 -0.606772
O16   O     O_R   0.561580 0.490640 0.623250 -0.620871
O17   O     O_R   0.052240 0.907300 0.499970 -0.621386
O18   O     O_3   0.775879 0.453567 0.407384 -0.625472
O19   O     O_3   0.762999 0.405549 0.652445 -0.511024
O20   O     O_3   0.880476 0.395740 0.651318 -0.555946
O21   O     O_3   0.265695 0.457609 0.399044 -0.582287
O22   O     O_3   0.134089 0.488146 0.381380 -0.513925
O23   O     O_R   0.113890 0.938270 0.623230 -0.591468
O24   O     O_3   0.272544 0.411240 0.662965 -0.586881
O25   O     O_3   0.119344 0.619552 0.354630 -0.519249
O26   O     O_3   0.373730 0.511299 0.619153 -0.591056
O27   O     O_3   0.130836 0.662318 0.532353 -0.641612
O28   O     O_3   0.081537 0.731134 0.653689 -0.657847
O29   O     O_3   0.947410 0.655138 0.585931 -0.631973
O30   O     O_3   0.109459 0.740466 0.937171 -0.615376
O31   O     O_3   0.127557 0.106001 0.643701 -0.625357
O32   O     O_3   0.101732 0.226560 0.653669 -0.565425
O33   O     O_3   0.134183 0.285102 0.555382 -0.690270
O34   O     O_R   0.009320 0.938380 0.623210 -0.631738
O35   O     O_3   0.964436 0.260972 0.603467 -0.550684
O36   O     O_3   0.263894 0.603368 0.062668 -0.609640
O37   O     O_3   0.716668 0.368196 0.538532 -0.537154
O38   O     O_R   0.052330 0.092440 0.500040 -0.615820
O39   O     O_R   0.947760 0.092550 0.500030 -0.642918
O40   O     O_R   0.990680 0.061470 0.376790 -0.625112
O41   O     O_R   0.886110 0.061580 0.376770 -0.619152
O42   O     O_R   0.034860 0.372650 0.569600 -0.546378
Zn1   Zn    Zn3+2 0.500030 0.430220 0.499960 0.990885
Zn2   Zn    Zn3+2 0.499970 0.569780 0.500040 0.952408
Zn3   Zn    Zn3+2 0.069820 0.999850 0.500010 0.966580
Zn4   Zn    Zn3+2 0.930180 0.000000 0.499990 0.931747
Zn5   Zn    Zn3+2 0.046440 0.453600 0.592900 0.982862
Zn6   Zn    Zn3+2 0.953560 0.546400 0.407100 0.983360

loop_
_geom_bond_atom_site_label_1
_geom_bond_atom_site_label_2
_ccdc_geom_bond_type
C44   C49   S    
C58   C62   S    
C15   C18   S    
C29   H7    S    
C74   H57   S    
C34   C56   S    
C85   H96   S    
C23   C45   S    
C66   H27   S    
C54   O31   S    
C4    O10   A    
C2    C7    S    
C42   O7    A    
C3    C6    S    
C33   H8    S    
O1    Zn1   S    
C55   O32   S    
C1    O1    A    
C35   O17   A    
C7    C8    S    
C47   C49   S    
C74   O26   S    
C1    O4    A    
O39   Zn4   S    
C2    H26   S    
O34   Zn4   S    
C31   C43   S    
C44   H10   S    
C69   H36   S    
C58   H84   S    
C75   H63   S    
O11   Zn2   S    
C18   C19   S    
C10   C15   S    
C85   H94   S    
C77   H70   S    
C5    O19   S    
C65   O36   S    
C83   O35   S    
C57   C59   S    
C26   C31   S    
C73   H52   S    
C76   H66   S    
C16   C30   S    
C48   H15   S    
C62   H88   S    
C29   C33   S    
C46   H60   S    
C70   O21   S    
C17   C20   S    
C41   O5    A    
C27   H4    S    
C60   C62   S    
C27   O26   S    
O12   Zn4   S    
C14   C24   T    
C57   C61   S    
C86   O37   S    
C35   O12   A    
C68   H32   S    
C71   H46   S    
O5    Zn6   S    
C56   H5    S    
C75   O27   S    
C31   C32   S    
C45   C56   S    
C44   C46   S    
O7    Zn6   S    
C21   H89   S    
C83   H85   S    
C35   C49   S    
C85   H95   S    
C81   H80   S    
C31   C33   S    
C13   C28   S    
O23   Zn3   S    
C47   H18   S    
C76   O28   S    
C69   H35   S    
C53   H16   S    
C58   H22   S    
C39   O2    A    
C54   C59   S    
C57   H20   S    
C73   O25   S    
C82   H83   S    
C43   O9    A    
C69   O20   S    
C45   H11   S    
C55   C60   S    
C27   C30   S    
C81   H77   S    
C79   O30   S    
C79   H72   S    
C48   H14   S    
C8    H23   S    
C12   C52   S    
C3    H37   S    
C44   H59   S    
O14   Zn2   S    
C82   H81   S    
C9    H45   S    
C51   H13   S    
C4    O11   A    
C40   H38   S    
C12   C67   S    
C63   C67   T    
C71   O22   S    
C50   C53   S    
C66   H29   S    
O13   Zn1   S    
C5    H34   S    
C18   H40   S    
C1    C6    S    
C62   O35   S    
C43   O8    A    
C3    C8    S    
C9    O20   S    
C11   H67   S    
O41   Zn4   S    
C72   H49   S    
C47   C51   S    
C73   H53   S    
C76   H65   S    
C75   H61   S    
C25   C26   S    
C40   C52   S    
C69   H33   S    
C70   H43   S    
C28   O16   A    
O38   Zn3   S    
C60   C61   S    
C38   O41   A    
C26   O22   S    
C5    C9    S    
C29   C30   S    
C26   H48   S    
C68   H31   S    
C14   C38   S    
C81   O32   S    
O4    Zn2   S    
C76   H64   S    
C10   C19   S    
C23   C34   S    
C83   H86   S    
C50   C51   S    
C41   O3    A    
C36   O34   A    
C84   H92   S    
C80   H74   S    
C80   H76   S    
C37   C59   S    
C84   O36   S    
C42   C50   S    
C4    C63   S    
C72   H51   S    
C74   H55   S    
C68   H30   S    
C61   H93   S    
C40   C65   S    
C83   H87   S    
C42   O6    A    
C75   H62   S    
C2    O18   S    
C39   O42   A    
C32   O24   S    
O6    Zn5   S    
C70   H42   S    
C25   C30   S    
C7    C9    S    
C74   H58   S    
C54   C55   S    
C33   O25   S    
C10   H78   S    
C86   H25   S    
C66   H28   S    
C54   H19   S    
C19   C21   S    
C27   C32   S    
C64   C78   T    
C52   H1    S    
C17   C22   S    
C12   C45   S    
C25   O21   S    
C11   C17   S    
C71   H47   S    
C72   O24   S    
C57   H24   S    
C15   C17   S    
C80   O31   S    
C73   H54   S    
C48   C53   S    
C46   O27   S    
O3    Zn5   S    
C12   C65   S    
C46   C50   S    
C25   H3    S    
C28   O15   A    
C6    C86   S    
O8    Zn5   S    
C38   O40   A    
C19   C24   S    
C58   C59   S    
O2    Zn6   S    
C68   O19   S    
C70   H41   S    
C36   C64   S    
O42   Zn5   S    
C77   H69   S    
C71   H44   S    
C55   O33   S    
C3    H12   S    
C23   C65   S    
C5    C6    S    
C52   C56   S    
O40   Zn3   S    
C53   H17   S    
O9    Zn6   S    
C48   C49   S    
C39   C60   S    
C82   H82   S    
C79   H73   S    
C16   O14   A    
C11   C21   S    
C13   C22   T    
C2    C86   S    
C79   H71   S    
C18   C20   S    
C36   O23   A    
C7    C41   S    
C85   O37   S    
C84   H91   S    
C61   H21   S    
C66   O18   S    
C80   H75   S    
C72   H50   S    
C10   C11   S    
C77   O29   S    
C37   O39   A    
C82   O33   S    
C51   O29   S    
C20   H39   S    
C32   H9    S    
C20   C21   S    
C23   O30   S    
C47   O28   S    
C16   O13   A    
C77   H68   S    
C81   H79   S    
C34   C40   S    
C8    H56   S    
C37   O38   A    
C84   H90   S    
O17   Zn3   S    
C29   H6    S    
C34   C78   S    
O16   Zn2   S    
O10   Zn1   S    
C15   H2    S    
O15   Zn1   S    
