data_mof_unit_61774.cif
_audit_creation_date              2012-12-10T16:43:24-0500
_audit_creation_method            fapswitch 2.2
_symmetry_space_group_name_H-M    P1
_symmetry_Int_Tables_number       1
_space_group_crystal_system       triclinic
_cell_length_a                    18.44482
_cell_length_b                    18.433907
_cell_length_c                    18.476293
_cell_angle_alpha                 119.707381
_cell_angle_beta                  90.320812
_cell_angle_gamma                 119.876064
_cell_volume                      4457.58804506

loop_
_atom_site_label
_atom_site_type_symbol
_atom_type_description
_atom_site_fract_x
_atom_site_fract_y
_atom_site_fract_z
_atom_type_partial_charge
C1    C     C_R   0.361270 0.002332 0.138228 0.721587
C2    C     C_2   0.791317 0.985367 0.677902 0.048149
C3    C     C_2   0.720247 0.940465 0.775892 -0.131600
C4    C     C_R   0.639840 0.001389 0.862801 0.852508
C5    C     C_2   0.703278 0.010844 0.816114 -0.249517
C6    C     C_2   0.276642 0.443794 0.715564 -0.356412
C7    C     C_2   0.191844 0.385990 0.708644 0.016821
C8    C     C_2   0.336047 0.554521 0.783236 0.495292
C9    C     C_2   0.306753 0.612559 0.797181 -0.287729
C10   C     C_2   0.279742 0.066325 0.334330 0.435869
C11   C     C_2   0.194812 0.986850 0.307200 0.335887
C12   C     C_R   0.070769 0.909080 0.746534 0.458372
C13   C     C_2   0.334550 0.053794 0.277835 -0.274403
C14   C     C_2   0.305187 0.014948 0.192059 0.377850
C15   C     C_2   0.780240 0.944121 0.219471 -0.129622
C16   C     C_R   0.637223 0.277104 0.138219 0.912287
C17   C     C_2   0.795143 0.990123 0.306156 -0.242469
C18   C     C_2   0.716164 0.937753 0.166491 -0.216284
C19   C     C_2   0.710672 0.016669 0.193894 0.050450
C20   C     C_2   0.762652 0.555117 0.217967 0.440237
C21   C     C_2   0.795671 0.611698 0.306906 -0.358443
C22   C     C_2   0.692581 0.444219 0.168069 0.071803
C23   C     C_R   0.156583 0.946187 0.738594 -0.104122
C24   C     C_2   0.696591 0.387942 0.192197 -0.376954
C25   C     C_R   0.138284 0.276972 0.640233 0.844269
C26   C     C_R   0.860238 0.722620 0.361426 0.895628
C27   C     C_R   0.859748 0.998401 0.636965 0.822254
C28   C     C_R   0.361637 0.722901 0.860614 0.895501
C29   C     C_R   0.138770 0.998556 0.361702 0.747986
C30   C     C_R   0.858721 0.998424 0.360517 0.860886
C31   C     C_R   0.139829 0.004205 0.644736 0.848677
C32   C     C_R   0.641708 0.002037 0.139565 0.817352
C33   C     C_R   0.359386 0.995259 0.855460 0.853310
C34   C     C_R   0.207214 0.919874 0.763437 -0.033464
C35   C     C_R   0.161245 0.826851 0.756577 0.455325
C36   C     C_R   0.071744 0.780201 0.751170 -0.422026
C37   C     C_R   0.027840 0.824489 0.752073 0.356572
C38   C     C_R   0.301387 0.988102 0.793390 -0.030054
C39   C     C_R   0.339993 0.060524 0.773574 -0.190327
C40   C     C_R   0.286992 0.066519 0.726411 -0.199119
C41   C     C_R   0.194869 0.009017 0.707352 -0.016320
C42   C     C_2   0.785305 0.952669 0.729955 -0.206864
H1    H     H_    0.411393 0.111717 0.793301 0.191582
H2    H     H_    0.748992 0.423449 0.250381 0.140746
H3    H     H_    0.036756 0.710393 0.748002 0.172114
H4    H     H_    0.318480 0.117414 0.705898 0.184115
H5    H     H_    0.830370 0.934266 0.739925 0.175592
H6    H     H_    0.690535 0.876358 0.781324 0.190521
H7    H     H_    0.430610 0.543252 0.808807 0.341653
H8    H     H_    0.377824 0.207297 0.422032 0.340673
H9    H     H_    0.102037 0.840956 0.223323 0.352592
H10   H     H_    0.216359 0.972811 0.095101 0.350023
H11   H     H_    0.159887 0.713362 0.740837 0.343102
H12   H     H_    0.738298 0.078950 0.816430 0.187106
H13   H     H_    0.768595 0.546771 0.109409 0.355689
H14   H     H_    0.922885 0.726309 0.759348 0.353868
H15   H     H_    0.976351 0.930059 0.764613 0.376694
H16   H     H_    0.304632 0.408777 0.670421 0.180946
H17   H     H_    0.240211 0.578000 0.758722 0.139493
H18   H     H_    0.400713 0.079755 0.308516 0.132942
H19   H     H_    0.811227 0.905794 0.186116 0.195546
H20   H     H_    0.758909 0.021493 0.338019 0.184681
H21   H     H_    0.670544 0.864564 0.103661 0.182234
H22   H     H_    0.770713 0.576325 0.341982 0.124573
I1    I     I_    0.132410 0.437700 0.803598 -0.297097
I2    I     I_    0.808713 0.171915 0.302738 -0.313190
I3    I     I_    0.584772 0.382335 0.061784 -0.299272
I4    I     I_    0.694637 0.999380 0.632835 -0.305758
O1    O     O_3   0.500000 0.000000 0.000000 -0.514417
O2    O     O_R   0.054120 0.939900 0.325040 -0.644655
O3    O     O_R   0.884120 0.060070 0.444330 -0.626340
O4    O     O_R   0.325020 0.939940 0.054210 -0.634886
O5    O     O_R   0.175860 0.060090 0.615830 -0.657367
O6    O     O_R   0.884120 0.939900 0.324160 -0.635647
O7    O     O_R   0.055710 0.939940 0.615850 -0.596919
O8    O     O_R   0.885720 0.939940 0.614980 -0.636428
O9    O     O_R   0.174930 0.060060 0.445830 -0.592387
O10   O     O_R   0.054120 0.229160 0.614300 -0.612322
O11   O     O_R   0.885050 0.770830 0.325070 -0.568079
O12   O     O_R   0.614240 0.229150 0.054160 -0.610256
O13   O     O_R   0.614240 0.060060 0.885070 -0.630951
O14   O     O_R   0.614900 0.229170 0.174980 -0.635351
O15   O     O_R   0.445840 0.770840 0.885740 -0.577787
O16   O     O_R   0.615830 0.060100 0.175880 -0.615144
O17   O     O_R   0.324090 0.939910 0.884220 -0.597962
O18   O     O_R   0.615830 0.939930 0.055710 -0.645245
O19   O     O_R   0.444240 0.060060 0.884190 -0.645056
O20   O     O_3   0.422352 0.598545 0.828186 -0.718664
O21   O     O_3   0.315762 0.159162 0.414763 -0.765886
O22   O     O_3   0.162596 0.891983 0.230213 -0.738819
O23   O     O_R   0.325020 0.770840 0.885120 -0.632761
O24   O     O_3   0.224794 0.993312 0.156857 -0.714182
O25   O     O_3   0.201472 0.777519 0.745783 -0.732020
O26   O     O_3   0.792476 0.600951 0.173652 -0.702881
O27   O     O_3   0.942608 0.784644 0.755342 -0.761436
O28   O     O_3   0.034976 0.962941 0.757626 -0.739930
O29   O     O_R   0.445840 0.060100 0.175010 -0.651720
O30   O     O_R   0.614900 0.939900 0.885710 -0.640194
O31   O     O_3   0.999960 0.000000 0.500040 -0.519574
O32   O     O_R   0.174930 0.229160 0.614920 -0.640080
O33   O     O_R   0.885720 0.770850 0.445880 -0.655691
O34   O     O_R   0.885050 0.060100 0.614330 -0.608030
Zn1   Zn    Zn3+2 0.542440 0.085830 0.956610 1.012236
Zn2   Zn    Zn3+2 0.543390 0.085850 0.129220 1.002796
Zn3   Zn    Zn3+2 0.543390 0.914160 0.957530 1.018906
Zn4   Zn    Zn3+2 0.370780 0.914160 0.956640 1.017588
Zn5   Zn    Zn3+2 0.957510 0.914170 0.543430 1.008478
Zn6   Zn    Zn3+2 0.956570 0.085840 0.542520 1.035351
Zn7   Zn    Zn3+2 0.956570 0.914150 0.370820 1.021347
Zn8   Zn    Zn3+2 0.129180 0.085840 0.543400 1.012052

loop_
_geom_bond_atom_site_label_1
_geom_bond_atom_site_label_2
_ccdc_geom_bond_type
O33   Zn5   S    
H14   O27   S    
C21   C26   S    
C3    C42   S    
O32   Zn8   S    
C4    O30   A    
C15   C18   S    
C6    H16   S    
C35   C36   A    
O23   Zn4   S    
O6    Zn7   S    
C30   O3    A    
O5    Zn8   S    
C13   H18   S    
O7    Zn5   S    
O31   Zn6   S    
C12   C23   A    
O30   Zn3   S    
C36   C37   A    
C18   C19   D    
C2    I4    S    
H9    O22   S    
C38   C39   A    
C30   O6    A    
C18   H21   S    
C31   O5    A    
O31   Zn7   S    
C3    H6    S    
C37   O27   S    
C19   I2    S    
O10   Zn6   S    
C34   C35   A    
C12   C37   A    
C33   O17   A    
C21   H22   S    
C25   O32   A    
C4    O13   A    
C10   O21   S    
C8    C9    D    
H15   O28   S    
O34   Zn6   S    
C2    C27   S    
C35   O25   S    
C16   C24   S    
C13   C14   D    
C28   O15   A    
C17   C30   S    
H7    O20   S    
H13   O26   S    
C19   C32   S    
O1    Zn1   S    
C32   O16   A    
C1    O4    A    
O11   Zn7   S    
O12   Zn1   S    
H11   O25   S    
C25   O10   A    
C5    H12   S    
C1    O29   A    
C39   C40   A    
O1    Zn3   S    
C6    C8    S    
O31   Zn8   S    
O15   Zn3   S    
C8    O20   S    
C40   H4    S    
O2    Zn7   S    
C17   H20   S    
C7    I1    S    
H8    O21   S    
C31   O7    A    
C23   C34   A    
C32   O18   A    
C16   O14   A    
C15   H19   S    
C36   H3    S    
C14   O24   S    
O19   Zn1   S    
C40   C41   A    
O4    Zn4   S    
O8    Zn5   S    
C24   H2    S    
C22   C24   D    
H10   O24   S    
O18   Zn3   S    
C27   O8    A    
C29   O2    A    
O13   Zn1   S    
O1    Zn2   S    
C15   C17   D    
C20   O26   S    
C31   C41   S    
C34   C38   A    
C33   C38   S    
C20   C22   S    
C4    C5    S    
C3    C5    D    
C10   C13   S    
C23   C41   A    
C39   H1    S    
O1    Zn4   S    
C6    C7    D    
O31   Zn5   S    
C27   O34   A    
C26   O11   A    
C7    C25   S    
C33   O19   A    
C26   O33   A    
C11   O22   S    
C2    C42   D    
O16   Zn2   S    
C28   O23   A    
C42   H5    S    
O9    Zn8   S    
C22   I3    S    
O29   Zn2   S    
C10   C11   D    
C29   O9    A    
C20   C21   D    
C11   C29   S    
O14   Zn2   S    
C12   O28   S    
C1    C14   S    
C16   O12   A    
O3    Zn6   S    
C9    H17   S    
O17   Zn4   S    
C9    C28   S    
