data_mof_unit_61509.cif
_audit_creation_date              2012-12-10T16:36:51-0500
_audit_creation_method            fapswitch 2.2
_symmetry_space_group_name_H-M    P1
_symmetry_Int_Tables_number       1
_space_group_crystal_system       triclinic
_cell_length_a                    14.23415
_cell_length_b                    16.424897
_cell_length_c                    15.155882
_cell_angle_alpha                 90.30377
_cell_angle_beta                  92.078685
_cell_angle_gamma                 90.005441
_cell_volume                      3540.97946211

loop_
_atom_site_label
_atom_site_type_symbol
_atom_type_description
_atom_site_fract_x
_atom_site_fract_y
_atom_site_fract_z
_atom_type_partial_charge
C1    C     C_R   0.679114 0.844550 0.519339 0.496682
C2    C     C_R   0.965882 0.542638 0.109743 0.113106
C3    C     C_R   0.589883 0.941469 0.129900 -0.148591
C4    C     C_R   0.089846 0.441428 0.129904 -0.148589
C5    C     C_R   0.591234 0.929054 0.039569 -0.150309
C6    C     C_R   0.091187 0.429007 0.039573 -0.150308
C7    C     C_2   0.249794 0.220176 0.474626 -0.065035
C8    C     C_2   0.249547 0.779951 0.474459 -0.063908
C9    C     C_2   0.749706 0.720109 0.474724 -0.065043
C10   C     C_2   0.749552 0.279947 0.474453 -0.063911
C11   C     C_2   0.751586 0.784617 0.529639 0.099208
C12   C     C_R   0.678875 0.155833 0.519165 0.496899
C13   C     C_2   0.751018 0.216150 0.529727 0.099025
C14   C     C_2   0.251546 0.284584 0.529678 0.099204
C15   C     C_2   0.251019 0.716149 0.529726 0.099023
C16   C     C_R   0.320418 0.156379 0.480880 0.523668
C17   C     C_R   0.320340 0.843763 0.480815 0.523579
C18   C     C_R   0.820409 0.656372 0.480891 0.523660
C19   C     C_R   0.820340 0.343762 0.480814 0.523578
C20   C     C_R   0.520230 0.000589 0.261079 0.496310
C21   C     C_R   0.020230 0.500587 0.261080 0.496306
C22   C     C_R   0.479148 0.000442 0.738736 0.535512
C23   C     C_R   0.179109 0.344546 0.519342 0.496681
C24   C     C_R   0.979147 0.500442 0.738737 0.535493
C25   C     C_R   0.526626 0.996339 0.165388 0.025325
C26   C     C_R   0.026626 0.496332 0.165390 0.025335
C27   C     C_R   0.470840 0.003601 0.834017 0.052138
C28   C     C_R   0.970840 0.503604 0.834019 0.052129
C29   C     C_R   0.404064 0.072981 0.958524 0.104652
C30   C     C_R   0.904110 0.573021 0.958526 0.104646
C31   C     C_R   0.408244 0.059700 0.868143 -0.163611
C32   C     C_R   0.908280 0.559733 0.868146 -0.163617
C33   C     C_R   0.530674 0.958209 0.890065 0.081697
C34   C     C_R   0.178876 0.655833 0.519165 0.496909
C35   C     C_R   0.030643 0.458184 0.890068 0.081700
C36   C     C_R   0.529256 0.971671 0.982180 -0.003724
C37   C     C_R   0.029236 0.471651 0.982183 -0.003725
C38   C     C_R   0.465744 0.029887 0.017278 0.103460
C39   C     C_R   0.965763 0.529901 0.017281 0.103463
C40   C     C_R   0.465853 0.042619 0.109741 0.113107
H1    H     H_    0.636655 0.906015 0.172648 0.136529
H2    H     H_    0.194407 0.784858 0.423145 0.073181
H3    H     H_    0.447672 0.141571 0.189245 0.226115
H4    H     H_    0.353715 0.076681 0.181314 0.265243
H5    H     H_    0.947768 0.641603 0.189240 0.226109
H6    H     H_    0.853775 0.576754 0.181326 0.265237
H7    H     H_    0.350482 0.187045 0.960365 0.232084
H8    H     H_    0.269812 0.111832 0.966965 0.226848
H9    H     H_    0.850605 0.687111 0.960365 0.232086
H10   H     H_    0.769886 0.611939 0.966968 0.226854
H11   H     H_    0.663817 0.919508 0.869465 0.221513
H12   H     H_    0.136595 0.405954 0.172653 0.136503
H13   H     H_    0.582472 0.843693 0.876778 0.233277
H14   H     H_    0.163759 0.419413 0.869467 0.221512
H15   H     H_    0.082362 0.343640 0.876786 0.233265
H16   H     H_    0.287939 0.299616 0.658948 0.227585
H17   H     H_    0.355181 0.351573 0.588973 0.227102
H18   H     H_    0.286506 0.702640 0.659243 0.229378
H19   H     H_    0.354404 0.650019 0.589816 0.226506
H20   H     H_    0.788667 0.800147 0.658697 0.227487
H21   H     H_    0.855495 0.851845 0.588156 0.227182
H22   H     H_    0.786475 0.202696 0.659257 0.229384
H23   H     H_    0.640736 0.884924 0.015617 0.121766
H24   H     H_    0.854366 0.150016 0.589871 0.226489
H25   H     H_    0.140659 0.384851 0.015622 0.121764
H26   H     H_    0.362250 0.094371 0.823786 0.125347
H27   H     H_    0.862308 0.594425 0.823789 0.125357
H28   H     H_    0.694147 0.714463 0.423829 0.072175
H29   H     H_    0.694420 0.284848 0.423131 0.073176
H30   H     H_    0.194406 0.214662 0.423555 0.072160
N1    N     N_3   0.407108 0.104290 0.146662 -0.576179
N2    N     N_3   0.820890 0.205846 0.599580 -0.579143
N3    N     N_3   0.907176 0.604337 0.146665 -0.576178
N4    N     N_3   0.336833 0.130690 0.989042 -0.582818
N5    N     N_3   0.836919 0.630765 0.989043 -0.582811
N6    N     N_3   0.595067 0.901793 0.851971 -0.611463
N7    N     N_3   0.094997 0.401732 0.851976 -0.611469
N8    N     N_3   0.321914 0.295805 0.599044 -0.582826
N9    N     N_3   0.320908 0.705832 0.599563 -0.579152
N10   N     N_3   0.822309 0.796113 0.598635 -0.582806
O1    O     O_3   0.500000 0.000000 0.500000 -0.453819
O2    O     O_R   0.885830 0.337110 0.539910 -0.493867
O3    O     O_R   0.692160 0.095230 0.468550 -0.541464
O4    O     O_R   0.692160 0.904770 0.468550 -0.544629
O5    O     O_R   0.192160 0.595230 0.468550 -0.541458
O6    O     O_R   0.192160 0.404770 0.468550 -0.544605
O7    O     O_R   0.316720 0.904790 0.427870 -0.546977
O8    O     O_R   0.316720 0.095210 0.427870 -0.551089
O9    O     O_R   0.816720 0.404790 0.427870 -0.546983
O10   O     O_R   0.816720 0.595210 0.427870 -0.551086
O11   O     O_R   0.594900 0.000000 0.310900 -0.541028
O12   O     O_3   0.000000 0.500000 0.500000 -0.453819
O13   O     O_R   0.094900 0.500000 0.310900 -0.541028
O14   O     O_R   0.483090 0.932320 0.697550 -0.505270
O15   O     O_R   0.483090 0.067680 0.697550 -0.551994
O16   O     O_R   0.983090 0.432320 0.697550 -0.505262
O17   O     O_R   0.983090 0.567680 0.697550 -0.552037
O18   O     O_R   0.438930 0.000000 0.294000 -0.551540
O19   O     O_R   0.938930 0.500000 0.294000 -0.551527
O20   O     O_R   0.605310 0.837110 0.563680 -0.534539
O21   O     O_R   0.605310 0.162890 0.563680 -0.538605
O22   O     O_R   0.105310 0.337110 0.563680 -0.534568
O23   O     O_R   0.105310 0.662890 0.563680 -0.538568
O24   O     O_R   0.385830 0.162890 0.539910 -0.494622
O25   O     O_R   0.385830 0.837110 0.539910 -0.493871
O26   O     O_R   0.885830 0.662890 0.539910 -0.494623
Zn1   Zn    Zn3+2 0.493670 0.096680 0.574000 0.950998
Zn2   Zn    Zn3+2 0.493670 0.903320 0.574000 0.966857
Zn3   Zn    Zn3+2 0.993670 0.596680 0.574000 0.950994
Zn4   Zn    Zn3+2 0.993670 0.403320 0.574000 0.966826
Zn5   Zn    Zn3+2 0.617760 0.000000 0.438070 0.933860
Zn6   Zn    Zn3+2 0.117760 0.500000 0.438070 0.933886
Zn7   Zn    Zn3+2 0.394920 0.000000 0.413930 0.929480
Zn8   Zn    Zn3+2 0.894920 0.500000 0.413930 0.929486

loop_
_geom_bond_atom_site_label_1
_geom_bond_atom_site_label_2
_ccdc_geom_bond_type
O21   Zn1   S    
C31   H26   S    
C30   C32   A    
C21   C26   S    
O1    Zn1   S    
C40   N1    S    
C22   O15   A    
C1    C11   S    
O5    Zn6   S    
C7    H30   S    
C27   C33   A    
C1    O4    A    
O14   Zn2   S    
C4    H12   S    
O2    Zn4   S    
C35   C37   A    
C8    H2    S    
C24   O16   A    
C25   C40   A    
H15   N7    S    
O12   Zn3   S    
C23   O22   A    
C20   C25   S    
H21   N10   S    
C5    C36   A    
C33   C36   A    
H16   N8    S    
C5    H23   S    
H4    N1    S    
H5    N3    S    
O11   Zn5   S    
O8    Zn7   S    
C2    C39   A    
C16   O24   A    
C7    C14   D    
C15   N9    S    
O1    Zn5   S    
C28   C35   A    
C23   O6    A    
C29   C38   A    
H9    N5    S    
C19   O2    A    
C15   C34   S    
H14   N7    S    
C14   N8    S    
O1    Zn2   S    
C22   O14   A    
O19   Zn8   S    
C1    O20   A    
C20   O11   A    
C6    H25   S    
O25   Zn2   S    
O20   Zn2   S    
O4    Zn5   S    
C27   C31   A    
C24   O17   A    
C18   O10   A    
H8    N4    S    
C28   C32   A    
H11   N6    S    
C4    C6    A    
H19   N9    S    
O12   Zn6   S    
O18   Zn7   S    
C29   N4    S    
O16   Zn4   S    
C35   N7    S    
C12   O3    A    
C34   O5    A    
C14   C23   S    
O6    Zn6   S    
C18   O26   A    
C19   O9    A    
C17   O25   A    
O17   Zn3   S    
C33   N6    S    
C3    C25   A    
C10   C19   S    
C6    C37   A    
H22   N2    S    
C2    C26   A    
O24   Zn1   S    
C9    C11   D    
C2    N3    S    
O15   Zn1   S    
H18   N9    S    
C32   H27   S    
C7    C16   S    
C8    C15   D    
C22   C27   S    
O3    Zn5   S    
O22   Zn4   S    
H13   N6    S    
O9    Zn8   S    
H20   N10   S    
H3    N1    S    
C17   O7    A    
H17   N8    S    
C24   C28   S    
H7    N4    S    
C3    C5    A    
C10   C13   D    
C4    C26   A    
C13   N2    S    
C8    C17   S    
O23   Zn3   S    
C36   C38   A    
C9    H28   S    
C12   O21   A    
C29   C31   A    
H10   N5    S    
C38   C40   A    
C30   N5    S    
O12   Zn4   S    
C21   O13   A    
C21   O19   A    
C34   O23   A    
O10   Zn8   S    
C30   C39   A    
H24   N2    S    
O7    Zn7   S    
C3    H1    S    
C11   N10   S    
O13   Zn6   S    
C10   H29   S    
C9    C18   S    
C20   O18   A    
C12   C13   S    
C37   C39   A    
O1    Zn7   S    
C16   O8    A    
O12   Zn8   S    
H6    N3    S    
O26   Zn3   S    
