data_mof_unit_39864.cif
_audit_creation_date              2012-12-11T17:02:21-0500
_audit_creation_method            fapswitch 2.2
_symmetry_space_group_name_H-M    P1
_symmetry_Int_Tables_number       1
_space_group_crystal_system       triclinic
_cell_length_a                    21.638743
_cell_length_b                    7.061109
_cell_length_c                    14.910329
_cell_angle_alpha                 90.1943
_cell_angle_beta                  106.490841
_cell_angle_gamma                 89.730122
_cell_volume                      2184.45890587

loop_
_atom_site_label
_atom_site_type_symbol
_atom_type_description
_atom_site_fract_x
_atom_site_fract_y
_atom_site_fract_z
_atom_type_partial_charge
O1    O     O_R   0.585850 0.505770 0.002130 -0.546717
O2    O     O_R   0.414150 0.005770 0.997870 -0.540894
O3    O     O_R   0.467530 0.173560 0.861970 -0.550369
O4    O     O_R   0.532470 0.673560 0.138030 -0.547146
C1    C     C_R   0.455757 0.344000 0.825271 0.739582
C2    C     C_R   0.544044 0.844081 0.174786 0.723241
O5    O     O_R   0.588690 0.175900 0.993250 -0.522987
O6    O     O_R   0.411310 0.675900 0.006750 -0.518511
O7    O     O_R   0.536170 0.007950 0.130090 -0.523401
O8    O     O_R   0.463830 0.507950 0.869910 -0.523049
C3    C     C_R   0.615331 0.344159 0.999086 0.750821
C4    C     C_R   0.384848 0.845103 0.002020 0.748342
O9    O     O_3   0.482630 0.339970 0.044740 -0.354488
O10   O     O_3   0.517370 0.839970 0.955260 -0.370282
V1    V     V_3+5 0.503220 0.064200 0.991700 1.563801
V2    V     V_3+5 0.496780 0.564200 0.008300 1.574772
C5    C     C_R   0.293116 0.004698 0.046643 -0.135695
C6    C     C_R   0.706889 0.502014 0.956466 -0.091765
C7    C     C_R   0.316545 0.853972 0.003569 -0.183376
C8    C     C_R   0.683785 0.351736 0.998819 -0.171367
C9    C     C_R   0.272578 0.710288 0.961292 0.638697
C10   C     C_R   0.728391 0.209256 0.041800 0.645919
C11   C     C_R   0.207512 0.720118 0.961241 -0.167734
C12   C     C_R   0.793732 0.220813 0.042771 -0.147742
H1    H     H_    0.174700 0.610641 0.925994 0.218557
H2    H     H_    0.827008 0.111629 0.077662 0.210845
C13   C     C_R   0.183698 0.877326 0.999362 -0.125473
C14   C     C_R   0.817031 0.378963 0.005294 -0.109847
C15   C     C_R   0.227790 0.017487 0.042144 0.025109
C16   C     C_R   0.772091 0.517593 0.962815 -0.078293
C17   C     C_3   0.225218 0.224141 0.021448 0.478712
C18   C     C_3   0.772176 0.725226 0.980884 0.486451
C19   C     C_3   0.296934 0.212619 0.029614 -0.200067
C20   C     C_3   0.699959 0.710376 0.969295 -0.206552
H3    H     H_    0.211094 0.310901 0.074739 0.100134
H4    H     H_    0.786548 0.811000 0.927943 0.093524
H5    H     H_    0.309286 0.240856 0.963515 0.206548
H6    H     H_    0.685401 0.744029 0.033240 0.201500
C21   C     C_R   0.929926 0.887771 0.721034 -0.237745
C22   C     C_R   0.071031 0.392338 0.278775 -0.242734
C23   C     C_R   0.571441 0.842999 0.276455 -0.137058
C24   C     C_R   0.429017 0.347660 0.723600 -0.139645
C25   C     C_R   0.935131 0.009300 0.570948 0.737167
C26   C     C_R   0.068112 0.534819 0.426245 0.735190
C27   C     C_R   0.965961 0.967607 0.665044 -0.200577
C28   C     C_R   0.037384 0.494206 0.332232 -0.194059
C29   C     C_R   0.865227 0.833093 0.679815 -0.007708
C30   C     C_R   0.133688 0.321522 0.322584 -0.047809
C31   C     C_R   0.835442 0.860558 0.581908 -0.105079
C32   C     C_R   0.168630 0.392130 0.412661 -0.106695
C33   C     C_R   0.869629 0.965745 0.530682 -0.167952
C34   C     C_R   0.133580 0.489859 0.466028 -0.155095
C35   C     C_R   0.771366 0.798139 0.534266 0.109185
C36   C     C_R   0.237249 0.371442 0.451236 0.102824
C37   C     C_R   0.737396 0.878078 0.446682 0.025604
C38   C     C_R   0.267214 0.415952 0.546884 0.016065
C39   C     C_R   0.771867 0.996198 0.401874 -0.262389
C40   C     C_R   0.229237 0.501816 0.598621 -0.268296
C41   C     C_R   0.837249 0.030617 0.440546 0.703988
C42   C     C_R   0.164476 0.541644 0.558770 0.718437
C43   C     C_R   0.741657 0.650218 0.569027 -0.178105
C44   C     C_R   0.277360 0.323130 0.394981 -0.185267
C45   C     C_R   0.675755 0.617751 0.536755 -0.046306
C46   C     C_R   0.342929 0.285872 0.432370 -0.046166
C47   C     C_R   0.638674 0.712923 0.455921 -0.081292
C48   C     C_R   0.372053 0.305712 0.529622 -0.073575
C49   C     C_R   0.670658 0.833458 0.406303 0.057247
C50   C     C_R   0.334434 0.377255 0.587160 0.046469
C51   C     C_R   0.571849 0.678110 0.418179 0.686359
C52   C     C_R   0.437235 0.252617 0.571811 0.700773
C53   C     C_R   0.539212 0.742565 0.329539 -0.175895
C54   C     C_R   0.464762 0.273516 0.667522 -0.165226
C55   C     C_R   0.635525 0.895980 0.315765 -0.182854
C56   C     C_R   0.364799 0.399312 0.684231 -0.200922
H7    H     H_    0.657983 0.970276 0.270419 0.156225
H8    H     H_    0.339079 0.444429 0.732729 0.158768
H9    H     H_    0.489497 0.700639 0.299036 0.156470
H10   H     H_    0.514023 0.227096 0.698576 0.151191
H11   H     H_    0.750054 0.062927 0.335577 0.178572
H12   H     H_    0.248681 0.549249 0.669682 0.182218
H13   H     H_    0.769681 0.555671 0.621847 0.149355
H14   H     H_    0.258940 0.322328 0.319727 0.139032
O11   O     O_R   0.036080 0.231270 0.130120 -0.522640
O12   O     O_R   0.963920 0.731270 0.869880 -0.517155
O13   O     O_R   0.911300 0.558970 0.006750 -0.518730
O14   O     O_R   0.088700 0.058970 0.993250 -0.510719
C57   C     C_R   0.885299 0.390159 0.004223 0.785499
C58   C     C_R   0.114985 0.889631 0.997560 0.794519
O15   O     O_R   0.032450 0.561140 0.138040 -0.556134
O16   O     O_R   0.967550 0.061140 0.861960 -0.550478
O17   O     O_R   0.085870 0.728910 0.002130 -0.556935
O18   O     O_R   0.914130 0.228910 0.997870 -0.553323
C59   C     C_R   0.045409 0.393011 0.175486 0.782189
C60   C     C_R   0.955998 0.892504 0.824425 0.765613
O19   O     O_3   0.017320 0.394650 0.955270 -0.369250
O20   O     O_3   0.982680 0.894650 0.044730 -0.380101
V3    V     V_3+5 0.996780 0.670490 0.008300 1.577137
V4    V     V_3+5 0.003220 0.170490 0.991700 1.595703
F1    F     F_    0.291058 0.569152 0.912598 -0.698595
F2    F     F_    0.710144 0.067572 0.089713 -0.694117
C61   C     C_2   0.649271 0.475026 0.588062 0.919808
O21   O     O_2   0.612412 0.523814 0.632715 -0.494589
O22   O     O_R   0.669322 0.286329 0.589182 -0.652090
H15   H     H_    0.648793 0.202287 0.627661 0.319102
C62   C     C_2   0.378334 0.222684 0.366097 0.919283
O23   O     O_2   0.424237 0.313621 0.357419 -0.482540
O24   O     O_R   0.357915 0.060235 0.312151 -0.661127
H16   H     H_    0.387218 0.024964 0.272379 0.307370
F3    F     F_    0.969467 0.091947 0.518216 -0.551859
F4    F     F_    0.034023 0.622339 0.478461 -0.561117
C63   C     C_2   0.035626 0.013622 0.704461 0.949639
O25   O     O_2   0.069966 0.915959 0.766656 -0.548158
O26   O     O_R   0.062280 0.167319 0.669759 -0.583442
H17   H     H_    0.109982 0.183345 0.701992 0.343382
C64   C     C_2   0.968882 0.553560 0.292060 0.932360
O27   O     O_2   0.931975 0.455565 0.232886 -0.546219
O28   O     O_R   0.946289 0.720449 0.322887 -0.585791
H18   H     H_    0.898962 0.744847 0.290753 0.346369
C65   C     C_2   0.827350 0.772598 0.742840 0.714589
O29   O     O_2   0.782634 0.870399 0.751598 -0.550032
O30   O     O_R   0.840579 0.596896 0.786835 -0.662586
H19   H     H_    0.804678 0.553863 0.812666 0.271767
C66   C     C_2   0.157110 0.152228 0.282156 0.772802
O31   O     O_2   0.160136 0.153216 0.201586 -0.597222
O32   O     O_R   0.178008 0.993261 0.338473 -0.638820
H20   H     H_    0.193643 0.887396 0.304163 0.299496
F5    F     F_    0.537996 0.570284 0.462575 -0.610291
F6    F     F_    0.474326 0.170036 0.522938 -0.628849
F7    F     F_    0.188704 0.260445 0.930577 -0.655880
F8    F     F_    0.806600 0.766471 0.072206 -0.647971
C67   C     C_2   0.339345 0.316298 0.112999 0.759610
O33   O     O_2   0.395707 0.269076 0.144542 -0.529253
O34   O     O_R   0.315108 0.469553 0.152423 -0.685766
H21   H     H_    0.348889 0.530184 0.206146 0.304386
C68   C     C_2   0.658395 0.804226 0.881973 0.795584
O35   O     O_2   0.608072 0.729842 0.837354 -0.522457
O36   O     O_R   0.676540 0.978698 0.853536 -0.658685
H22   H     H_    0.644356 0.028404 0.794840 0.305406
F9    F     F_    0.867582 0.138633 0.390853 -0.587704
F10   F     F_    0.132291 0.632192 0.612566 -0.584477

loop_
_geom_bond_atom_site_label_1
_geom_bond_atom_site_label_2
_ccdc_geom_bond_type
C48   C50   A    
C1    C24   S    
C45   C47   A    
C61   O21   D    
C13   C15   A    
C5    C15   A    
C39   H11   S    
C63   O25   D    
O1    C3    A    
C22   C59   S    
C45   C61   S    
O2    C4    A    
C2    O7    A    
C18   F8    S    
O34   H21   S    
O19   V4    S    
O18   V4    S    
C66   O31   D    
C29   C31   A    
C67   O34   S    
C22   C28   A    
C62   O24   S    
C32   C36   A    
C56   H8    S    
C28   C64   S    
O12   V3    S    
C18   H4    S    
C7    C9    A    
C12   H2    S    
C9    F1    S    
O14   C58   A    
C39   C41   A    
C47   C49   A    
C40   C42   A    
C64   O27   D    
O11   C59   A    
C6    C8    A    
C43   C45   A    
O6    V2    S    
C51   C53   A    
C54   H10   S    
C34   C42   A    
C66   O32   S    
C35   C43   A    
C64   O28   S    
C2    C23   S    
O20   V4    S    
C32   C34   A    
O24   H16   S    
C17   C19   S    
C6    C16   A    
C11   C13   A    
C44   C46   A    
C40   H12   S    
C23   C53   A    
C26   C34   A    
C30   C32   A    
C44   H14   S    
C61   O22   S    
C68   O36   S    
C57   O18   A    
C55   H7    S    
C5    C19   S    
C30   C66   S    
C26   C28   A    
O16   C60   A    
C35   C37   A    
C36   C38   A    
C3    C8    S    
C24   C56   A    
C10   F2    S    
O13   C57   A    
C68   O35   D    
O4    C2    A    
O8    V2    S    
O5    V1    S    
C36   C44   A    
C31   C33   A    
C38   C50   A    
O11   V4    S    
C19   H5    S    
O15   V3    S    
C18   C20   S    
O4    V2    S    
O5    C3    A    
C21   C60   S    
C6    C20   S    
C58   O17   A    
C41   F9    S    
O6    C4    A    
O20   V3    S    
C14   C57   S    
C24   C54   A    
C63   O26   S    
O1    V2    S    
O12   C60   A    
O17   V3    S    
O2    V1    S    
C25   C27   A    
O30   H19   S    
C65   O30   S    
C42   F10   S    
C49   C55   A    
C8    C10   A    
C9    C11   A    
O32   H20   S    
C17   H3    S    
C33   C41   A    
C67   O33   D    
C53   H9    S    
O3    V1    S    
C21   C29   A    
O26   H17   S    
C62   O23   D    
C52   F6    S    
C22   C30   A    
C46   C62   S    
C20   H6    S    
C12   C14   A    
O3    C1    A    
C37   C49   A    
C65   O29   D    
O19   V3    S    
O36   H22   S    
C21   C27   A    
C37   C39   A    
O7    V1    S    
C14   C16   A    
C15   C17   S    
C43   H13   S    
C27   C63   S    
C16   C18   S    
C19   C67   S    
C48   C52   A    
C20   C68   S    
C25   C33   A    
C47   C51   A    
C4    C7    S    
C29   C65   S    
C5    C7    A    
C38   C40   A    
C10   C12   A    
C11   H1    S    
O15   C59   A    
C13   C58   S    
O14   V4    S    
C31   C35   A    
O13   V3    S    
C23   C55   A    
C1    O8    A    
C51   F5    S    
C17   F7    S    
O9    V2    S    
O22   H15   S    
O10   V1    S    
C52   C54   A    
C25   F3    S    
O28   H18   S    
C50   C56   A    
O16   V4    S    
C46   C48   A    
C26   F4    S    
