data_mof_unit_53577.cif
_audit_creation_date              2012-12-11T16:17:30-0500
_audit_creation_method            fapswitch 2.2
_symmetry_space_group_name_H-M    P1
_symmetry_Int_Tables_number       1
_space_group_crystal_system       triclinic
_cell_length_a                    6.903299
_cell_length_b                    28.980307
_cell_length_c                    32.00071
_cell_angle_alpha                 101.328167
_cell_angle_beta                  89.599417
_cell_angle_gamma                 90.536394
_cell_volume                      6276.96801572

loop_
_atom_site_label
_atom_site_type_symbol
_atom_type_description
_atom_site_fract_x
_atom_site_fract_y
_atom_site_fract_z
_atom_type_partial_charge
O1    O     O_R   0.494350 0.453160 0.452490 -0.540738
O2    O     O_R   0.820990 0.455850 0.538220 -0.530995
O3    O     O_R   0.994300 0.546840 0.547510 -0.529803
C1    C     C_R   0.651137 0.445710 0.551862 0.707267
O4    O     O_R   0.823860 0.447580 0.452250 -0.547385
O5    O     O_R   0.997190 0.538510 0.460920 -0.526383
C2    C     C_R   0.654575 0.434575 0.436461 0.697919
O6    O     O_R   0.491450 0.461490 0.539080 -0.542042
O7    O     O_3   0.661790 0.529840 0.502950 -0.361036
V1    V     V_3+5 0.935470 0.494460 0.499450 1.504727
O8    O     O_R   0.327090 0.544150 0.461780 -0.525998
C3    C     C_R   0.159060 0.554147 0.448023 0.703801
O9    O     O_R   0.324210 0.552420 0.547750 -0.551571
C4    C     C_R   0.154677 0.565047 0.563983 0.762501
V2    V     V_3+5 0.435840 0.505540 0.500550 1.488736
O10   O     O_3   0.159650 0.470160 0.497050 -0.371436
C5    C     C_R   0.974483 0.608413 0.629607 0.361895
C6    C     C_R   0.970594 0.641841 0.667820 0.307968
C7    C     C_R   0.128851 0.673409 0.679001 -0.191232
C8    C     C_R   0.296346 0.668070 0.652962 0.422298
C9    C     C_R   0.302133 0.632547 0.615766 -0.286983
H1    H     H_    0.431174 0.628834 0.595998 0.144731
C10   C     C_R   0.142288 0.602765 0.603289 -0.243826
N1    N     N_R   0.266359 0.724210 0.743829 -0.189788
N2    N     N_R   0.249836 0.758326 0.778343 -0.260236
C11   C     C_R   0.081396 0.782342 0.787130 0.512435
N3    N     N_R   0.932752 0.772047 0.759203 -0.272863
N4    N     N_R   0.949295 0.738014 0.724714 -0.249745
C12   C     C_R   0.115480 0.712955 0.716543 0.572060
C13   C     C_R   0.909668 0.821107 0.855769 -0.107938
C14   C     C_R   0.898268 0.859403 0.891426 0.349464
C15   C     C_R   0.047290 0.894068 0.898899 -0.189345
C16   C     C_R   0.204115 0.890592 0.869551 0.286054
C17   C     C_R   0.207340 0.854744 0.833364 -0.109651
H2    H     H_    0.326339 0.853808 0.810926 0.169854
C18   C     C_R   0.062795 0.820055 0.825797 -0.137212
C19   C     C_R   0.129833 0.653758 0.280192 0.650336
N5    N     N_R   0.123947 0.673586 0.322638 -0.585915
C20   C     C_R   0.097829 0.720931 0.336023 0.646786
C21   C     C_R   0.085690 0.751196 0.306207 -0.048480
C22   C     C_R   0.090441 0.731172 0.262160 -0.152158
C23   C     C_R   0.109126 0.681822 0.248835 -0.094685
C24   C     C_R   0.063724 0.800455 0.319542 0.339752
C25   C     C_R   0.057764 0.829908 0.288952 -0.141796
C26   C     C_R   0.072737 0.810018 0.244631 -0.054456
C27   C     C_R   0.078700 0.760418 0.231449 -0.098265
C28   C     C_R   0.071993 0.740040 0.187443 -0.104481
C29   C     C_R   0.077703 0.690503 0.174369 0.303536
C30   C     C_R   0.109123 0.661757 0.204769 0.300700
C31   C     C_R   0.086156 0.837908 0.212729 0.623204
N6    N     N_R   0.071655 0.817791 0.170450 -0.586062
C32   C     C_R   0.057192 0.770037 0.157556 0.657770
O11   O     O_2   0.155766 0.606900 0.268566 -0.460673
O12   O     O_2   0.083909 0.738419 0.378223 -0.442587
O13   O     O_2   0.119178 0.884650 0.223476 -0.482005
O14   O     O_2   0.030543 0.751875 0.115828 -0.435553
C33   C     C_R   0.213797 0.848016 0.108605 -0.032612
C34   C     C_R   0.200012 0.878362 0.078515 -0.135853
C35   C     C_R   0.041899 0.910382 0.080814 -0.226583
C36   C     C_R   0.895347 0.909342 0.112226 0.405936
C37   C     C_R   0.906650 0.877579 0.139628 -0.033070
H3    H     H_    0.792370 0.877084 0.162941 0.151877
C38   C     C_R   0.065153 0.847986 0.139226 0.183500
C39   C     C_R   0.300737 0.646516 0.381396 -0.049931
C40   C     C_R   0.300480 0.619746 0.414143 0.346211
C41   C     C_R   0.151782 0.585572 0.415934 -0.284550
C42   C     C_R   0.998356 0.581277 0.385900 0.326257
C43   C     C_R   0.989599 0.611788 0.357215 -0.011995
H4    H     H_    0.867679 0.609222 0.335708 0.160185
C44   C     C_R   0.139297 0.643748 0.353967 0.128454
C45   C     C_R   0.540565 0.224041 0.837993 0.582023
N7    N     N_R   0.567180 0.176700 0.825358 -0.565030
C46   C     C_R   0.600997 0.157045 0.783432 0.547573
C47   C     C_R   0.593565 0.184875 0.751313 -0.110994
C48   C     C_R   0.578623 0.234274 0.764644 0.000345
C49   C     C_R   0.555418 0.253826 0.808354 -0.070325
C50   C     C_R   0.605733 0.165376 0.706902 -0.086319
C51   C     C_R   0.605518 0.195291 0.676606 -0.090609
C52   C     C_R   0.595304 0.245056 0.690416 -0.113608
C53   C     C_R   0.587797 0.264378 0.734616 0.011776
C54   C     C_R   0.588796 0.314044 0.748921 -0.103979
C55   C     C_R   0.559307 0.333079 0.792972 -0.067234
C56   C     C_R   0.544008 0.302669 0.821851 -0.096550
C57   C     C_R   0.586159 0.276673 0.661626 0.579557
N8    N     N_R   0.609776 0.324061 0.675872 -0.559292
C58   C     C_R   0.623395 0.342599 0.718453 0.536502
O15   O     O_2   0.501763 0.242281 0.879303 -0.487558
O16   O     O_2   0.643761 0.110888 0.773388 -0.506334
O17   O     O_2   0.552552 0.260722 0.619810 -0.498894
O18   O     O_2   0.674112 0.388248 0.730882 -0.506301
H5    H     H_    0.519977 0.317434 0.855297 0.214677
C59   C     C_R   0.474496 0.388630 0.644388 -0.037204
C60   C     C_R   0.487165 0.419358 0.614858 -0.057698
C61   C     C_R   0.638829 0.413921 0.583789 -0.262293
C62   C     C_R   0.779606 0.378286 0.583698 -0.076577
C63   C     C_R   0.777076 0.351197 0.615884 0.450938
C64   C     C_R   0.620884 0.355039 0.645271 0.168265
C65   C     C_R   0.402615 0.115138 0.856949 -0.017733
C66   C     C_R   0.403943 0.083100 0.884996 0.428242
C67   C     C_R   0.550066 0.086082 0.916556 -0.252661
C68   C     C_R   0.703870 0.119291 0.917450 -0.129137
C69   C     C_R   0.710853 0.148777 0.886772 0.009593
C70   C     C_R   0.560016 0.146661 0.856718 0.147519
C71   C     C_R   0.469884 0.369095 0.390119 -0.123545
H6    H     H_    0.350953 0.375967 0.412711 0.161228
C72   C     C_R   0.448923 0.333857 0.353100 -0.007146
C73   C     C_R   0.603390 0.325483 0.323105 -0.048651
C74   C     C_R   0.773454 0.352849 0.331196 -0.055759
H7    H     H_    0.893198 0.347096 0.308767 0.126941
C75   C     C_R   0.793033 0.387273 0.368434 -0.095950
H8    H     H_    0.926022 0.407683 0.373553 0.115335
C76   C     C_R   0.640875 0.396055 0.398153 -0.098226
N9    N     N_R   0.531218 0.243990 0.285422 -0.260203
N10   N     N_R   0.521819 0.210696 0.250170 -0.230778
C77   C     C_R   0.573148 0.220379 0.211747 0.508513
N11   N     N_R   0.637339 0.264428 0.210003 -0.241750
N12   N     N_R   0.647493 0.297687 0.245322 -0.262388
C78   C     C_R   0.592899 0.288285 0.283727 0.464404
C79   C     C_R   0.411895 0.179549 0.143446 0.395159
C80   C     C_R   0.407331 0.143274 0.106990 0.372988
C81   C     C_R   0.548140 0.106923 0.100687 -0.413438
C82   C     C_R   0.702154 0.110430 0.130594 0.370007
C83   C     C_R   0.715761 0.148638 0.165074 0.403169
C84   C     C_R   0.567394 0.182784 0.172767 -0.329782
O19   O     O_R   0.699050 0.038480 0.960880 -0.546792
O20   O     O_R   0.366680 0.052470 0.047720 -0.522711
O21   O     O_R   0.193410 0.961530 0.039110 -0.549039
C85   C     C_R   0.536112 0.066258 0.063221 0.724088
O22   O     O_R   0.369510 0.044100 0.961740 -0.518652
O23   O     O_R   0.196260 0.953110 0.952520 -0.555848
C86   C     C_R   0.539304 0.054360 0.948312 0.678430
O24   O     O_R   0.696210 0.046900 0.047470 -0.535674
O25   O     O_3   0.528780 0.970170 0.997070 -0.367451
V3    V     V_3+5 0.255080 0.005530 0.000540 1.545086
O26   O     O_R   0.866350 0.947520 0.952280 -0.512092
C87   C     C_R   0.035796 0.934163 0.936540 0.771739
O27   O     O_R   0.863520 0.955880 0.038260 -0.517053
C88   C     C_R   0.032008 0.944751 0.051104 0.689192
V4    V     V_3+5 0.754720 0.994440 0.999470 1.559029
O28   O     O_3   0.030880 0.029830 0.002930 -0.358586
O29   O     O_3   0.815007 0.579601 0.620107 -0.600168
H9    H     H_    0.755541 0.588536 0.594759 0.285439
C89   C     C_2   0.029228 0.881120 0.304404 0.520378
H10   H     H_    0.124737 0.900625 0.328509 0.069017
O30   O     O_2   0.892346 0.901141 0.292049 -0.476461
O31   O     O_3   0.054147 0.670637 0.131760 -0.577157
H11   H     H_    0.991075 0.639387 0.129438 0.326409
O32   O     O_3   0.141106 0.614065 0.191809 -0.586053
H12   H     H_    0.207655 0.608469 0.163753 0.323389
C90   C     C_2   0.379740 0.815697 0.108871 0.593011
H13   H     H_    0.434152 0.809375 0.138973 0.006613
O33   O     O_2   0.450092 0.793923 0.075805 -0.462500
C91   C     C_2   0.346584 0.876109 0.043904 0.596799
H14   H     H_    0.300014 0.876202 0.011589 0.016168
O34   O     O_2   0.519705 0.876078 0.051346 -0.487315
O35   O     O_3   0.739313 0.939230 0.118173 -0.612664
H15   H     H_    0.779870 0.969357 0.110939 0.285164
C92   C     C_2   0.468373 0.677452 0.375274 0.566724
H16   H     H_    0.472189 0.695110 0.348380 0.012105
O36   O     O_2   0.605871 0.683298 0.399581 -0.468568
O37   O     O_3   0.445789 0.628007 0.444145 -0.578638
H17   H     H_    0.387268 0.627159 0.472346 0.296091
O38   O     O_3   0.855425 0.547256 0.382844 -0.615627
H18   H     H_    0.915708 0.517815 0.387490 0.285038
O39   O     O_3   0.808535 0.642158 0.693456 -0.582694
H19   H     H_    0.845131 0.654512 0.723440 0.322631
C93   C     C_2   0.613534 0.113578 0.691475 0.595512
H20   H     H_    0.502859 0.091023 0.701294 0.090472
O40   O     O_2   0.745090 0.095843 0.668233 -0.487292
C94   C     C_2   0.624513 0.174058 0.630525 0.594329
H21   H     H_    0.736492 0.186560 0.611419 0.094512
O41   O     O_2   0.513252 0.143101 0.613554 -0.484254
C95   C     C_2   0.523962 0.383892 0.809681 0.527001
H22   H     H_    0.457637 0.405601 0.789846 0.110831
O42   O     O_2   0.563780 0.401879 0.846439 -0.484680
C96   C     C_2   0.310657 0.390915 0.675250 0.572894
H23   H     H_    0.252206 0.358694 0.682975 0.022341
O43   O     O_2   0.246473 0.428500 0.693954 -0.484701
C97   C     C_2   0.343685 0.457681 0.616666 0.561764
H24   H     H_    0.393236 0.493310 0.616529 0.031679
O44   O     O_2   0.169882 0.449479 0.616622 -0.504681
C98   C     C_2   0.924939 0.367198 0.548541 0.595870
H25   H     H_    0.888248 0.371406 0.516601 -0.000024
O45   O     O_2   0.086778 0.353320 0.554697 -0.480440
O46   O     O_3   0.926132 0.319826 0.616848 -0.596617
H26   H     H_    0.932683 0.311714 0.645430 0.296391
C99   C     C_2   0.236948 0.116204 0.827321 0.533030
H27   H     H_    0.228214 0.143705 0.808837 0.008460
O47   O     O_2   0.106363 0.086995 0.823333 -0.467809
O48   O     O_3   0.450936 0.698608 0.663818 -0.589879
H28   H     H_    0.555905 0.690288 0.642419 0.318459
O49   O     O_3   0.261182 0.048800 0.880623 -0.578232
H29   H     H_    0.319578 0.019322 0.885685 0.317043
C100  C     C_2   0.855247 0.123147 0.950814 0.583723
H30   H     H_    0.813677 0.124003 0.983732 0.017003
O50   O     O_2   0.027087 0.123500 0.941624 -0.496182
C101  C     C_2   0.871246 0.183293 0.885782 0.577267
H31   H     H_    0.922042 0.190415 0.855489 0.011507
O51   O     O_2   0.940983 0.205874 0.918532 -0.479985
C102  C     C_2   0.261529 0.308042 0.345519 0.400844
H32   H     H_    0.224907 0.288286 0.314153 0.074151
O52   O     O_2   0.144089 0.308823 0.374368 -0.511184
O53   O     O_3   0.261949 0.211594 0.148338 -0.577173
H33   H     H_    0.274223 0.234363 0.175575 0.311156
O54   O     O_3   0.262452 0.145096 0.077873 -0.574047
H34   H     H_    0.316479 0.134263 0.048893 0.299117
O55   O     O_3   0.844099 0.076854 0.127507 -0.581371
H35   H     H_    0.780593 0.045862 0.118929 0.282326
O56   O     O_3   0.875112 0.149953 0.191345 -0.574061
H36   H     H_    0.884773 0.180801 0.210973 0.317087
C103  C     C_2   0.772788 0.780425 0.851841 0.438263
H37   H     H_    0.733527 0.760027 0.820973 0.099762
O57   O     O_2   0.707389 0.767951 0.883441 -0.473798
O58   O     O_3   0.744983 0.863316 0.919862 -0.611203
H38   H     H_    0.627004 0.850352 0.904251 0.312628
O59   O     O_3   0.351526 0.923338 0.873944 -0.636828
H39   H     H_    0.423707 0.919933 0.899787 0.300855
O60   O     O_3   0.049389 0.818946 0.362787 -0.585388
H40   H     H_    0.975075 0.848532 0.367787 0.303642

loop_
_geom_bond_atom_site_label_1
_geom_bond_atom_site_label_2
_ccdc_geom_bond_type
C100  O50   D    
O53   H33   S    
N5    C44   S    
C21   C22   A    
O48   H28   S    
O37   H17   S    
C22   C23   A    
C62   C63   A    
O21   V3    S    
C1    O6    A    
C71   C72   A    
C54   C55   A    
C60   C97   S    
C67   C86   S    
O60   H40   S    
C83   C84   A    
C93   O40   D    
C14   O58   S    
C50   C51   A    
O19   V4    S    
O24   V4    S    
O26   V4    S    
O27   V4    S    
C11   N3    A    
O39   H19   S    
C80   O54   S    
N4    C12   A    
C6    C7    A    
V3    O28   S    
C66   O49   S    
C53   C54   A    
C20   O12   S    
C72   C73   A    
C77   N11   A    
C65   C66   A    
C51   C94   S    
N11   N12   A    
C5    O29   S    
C17   H2    S    
C46   C47   A    
C15   C87   S    
C19   C23   A    
C101  O51   D    
C75   H8    S    
C67   C68   A    
C75   C76   A    
C69   C70   A    
C98   H25   S    
O8    V2    S    
C16   O59   S    
C21   C24   A    
C7    C8    A    
C8    O48   S    
C74   C75   A    
C102  H32   S    
C47   C50   A    
C29   O31   S    
C65   C70   A    
C22   C27   A    
C92   H16   S    
O1    V2    S    
O21   C88   A    
C39   C44   A    
C91   O34   D    
C48   C53   A    
C73   C78   S    
C17   C18   A    
C54   C58   A    
C19   O11   S    
C37   H3    S    
C96   O43   D    
C41   C42   A    
C35   C36   A    
C95   H22   S    
O9    C4    A    
C33   C90   S    
C92   O36   D    
O23   V3    S    
C42   C43   A    
C85   O24   A    
C49   C56   A    
O4    V1    S    
C71   H6    S    
C6    O39   S    
C59   C64   A    
C33   C38   A    
C33   C34   A    
C95   O42   D    
N5    C20   A    
V4    O28   S    
C47   C48   A    
O55   H35   S    
C68   C69   A    
O26   C87   A    
C79   O53   S    
N1    N2    A    
C81   C85   S    
O56   H36   S    
C58   O18   S    
C69   C101  S    
C13   C103  S    
O4    C2    A    
O58   H38   S    
C43   H4    S    
C35   C88   S    
C31   N6    A    
N2    C11   A    
C79   C84   A    
C3    C41   S    
C59   C96   S    
C52   C53   A    
C30   O32   S    
C71   C76   A    
C4    C10   S    
O2    C1    A    
C48   C49   A    
C36   O35   S    
C46   O16   S    
C19   N5    A    
C34   C91   S    
C42   O38   S    
O19   C86   A    
C28   C29   A    
C55   C95   S    
C13   C14   A    
C73   C74   A    
O59   H39   S    
C63   C64   A    
C37   C38   A    
C5    C6    A    
C81   C82   A    
N6    C38   S    
C61   C62   A    
C60   C61   A    
C5    C10   A    
C57   N8    A    
N1    C12   A    
N8    C58   A    
N9    N10   A    
O3    C4    A    
C1    C61   S    
C11   C18   S    
C96   H23   S    
C103  O57   D    
O25   V4    S    
O6    V2    S    
C65   C99   S    
O9    V2    S    
C2    C76   S    
O25   V3    S    
C45   O15   S    
C24   O60   S    
C57   O17   S    
C40   O37   S    
O2    V1    S    
C45   C49   A    
C93   H20   S    
C68   C100  S    
C72   C102  S    
O31   H11   S    
O7    V1    S    
C89   O30   D    
O54   H34   S    
C27   C28   A    
O35   H15   S    
O20   C85   A    
C77   C84   S    
O1    C2    A    
C63   O46   S    
C14   C15   A    
O23   C87   A    
C25   C26   A    
C82   O55   S    
N7    C46   A    
O5    V1    S    
C79   C80   A    
C62   C98   S    
N10   C77   A    
C28   C32   A    
N7    C70   S    
C97   H24   S    
C50   C93   S    
C56   H5    S    
O27   C88   A    
N12   C78   A    
C31   O13   S    
C90   H13   S    
C66   C67   A    
C13   C18   A    
C15   C16   A    
C9    C10   A    
C89   H10   S    
C34   C35   A    
N6    C32   A    
O3    V1    S    
V1    O10   S    
O29   H9    S    
O49   H29   S    
O5    C3    A    
C51   C52   A    
O46   H26   S    
C52   C57   A    
C94   O41   D    
C26   C31   A    
C24   C25   A    
C25   C89   S    
C29   C30   A    
V2    O10   S    
C83   O56   S    
C39   C40   A    
C103  H37   S    
C59   C60   A    
C16   C17   A    
C100  H30   S    
C90   O33   D    
O32   H12   S    
C40   C41   A    
O7    V2    S    
C101  H31   S    
C98   O45   D    
O22   V3    S    
C99   O47   D    
O38   H18   S    
N8    C64   S    
C23   C30   A    
N9    C78   A    
C20   C21   A    
C26   C27   A    
C74   H7    S    
C45   N7    A    
C8    C9    A    
O20   V3    S    
C102  O52   D    
C55   C56   A    
C94   H21   S    
C39   C92   S    
N3    N4    A    
C82   C83   A    
C43   C44   A    
C80   C81   A    
C36   C37   A    
C99   H27   S    
O22   C86   A    
C91   H14   S    
C9    H1    S    
C32   O14   S    
O8    C3    A    
C97   O44   D    
C7    C12   S    
