data_mof_unit_32987.cif
_audit_creation_date              2012-12-10T19:10:07-0500
_audit_creation_method            fapswitch 2.2
_symmetry_space_group_name_H-M    P1
_symmetry_Int_Tables_number       1
_space_group_crystal_system       triclinic
_cell_length_a                    10.898159
_cell_length_b                    10.810593
_cell_length_c                    9.61638
_cell_angle_alpha                 89.437348
_cell_angle_beta                  91.131976
_cell_angle_gamma                 91.167303
_cell_volume                      1132.45276572

loop_
_atom_site_label
_atom_site_type_symbol
_atom_type_description
_atom_site_fract_x
_atom_site_fract_y
_atom_site_fract_z
_atom_type_partial_charge
C1    C     C_R   0.502020 0.262581 0.500698 0.805631
C2    C     C_R   0.175757 0.353913 0.981218 0.439340
C3    C     C_R   0.931354 0.485236 0.378771 -0.247860
C4    C     C_R   0.871784 0.494515 0.504895 -0.100299
C5    C     C_R   0.942080 0.499939 0.629492 -0.008055
C6    C     C_R   0.068515 0.515023 0.622235 -0.177923
C7    C     C_R   0.128357 0.501116 0.495995 -0.084501
C8    C     C_R   0.057983 0.481040 0.373340 0.004973
C9    C     C_R   0.892724 0.554774 0.873794 -0.177703
C10   C     C_R   0.845136 0.521980 0.003038 -0.126813
C11   C     C_R   0.797586 0.402403 0.025956 -0.102859
C12   C     C_R   0.262400 0.500127 0.498481 0.820809
C13   C     C_R   0.798361 0.315167 0.920143 -0.156595
C14   C     C_R   0.845061 0.347758 0.790610 -0.046347
C15   C     C_R   0.890981 0.468297 0.766304 0.163695
C16   C     C_R   0.473427 0.061336 0.618791 0.089213
C17   C     C_R   0.512613 0.129431 0.503387 -0.088975
C18   C     C_R   0.567447 0.067358 0.393613 -0.219434
C19   C     C_R   0.568533 0.938058 0.393566 -0.224049
C20   C     C_R   0.512204 0.870836 0.501367 -0.077224
C21   C     C_R   0.471873 0.933952 0.616810 0.114346
C22   C     C_3   0.350505 0.924064 0.685723 -0.510557
C23   C     C_R   0.502663 0.737395 0.499648 0.785862
C24   C     C_3   0.353140 0.064018 0.690080 -0.387742
C25   C     C_R   0.489833 0.607690 0.071794 0.266194
C26   C     C_R   0.498277 0.392457 0.074995 -0.095230
C27   C     C_R   0.498698 0.392478 0.927113 -0.008118
C28   C     C_R   0.491352 0.607739 0.925067 0.246808
C29   C     C_3   0.578845 0.715511 0.921597 -0.497279
C30   C     C_3   0.573992 0.717725 0.078922 -0.518787
C31   C     C_R   0.737579 0.497174 0.501740 0.776693
C32   C     C_R   0.184048 0.480383 0.010934 -0.187861
C33   C     C_R   0.149090 0.522849 0.140715 -0.175273
C34   C     C_R   0.108823 0.438207 0.242128 0.151945
C35   C     C_R   0.104254 0.311301 0.213132 -0.213953
C36   C     C_R   0.137403 0.269402 0.082833 -0.180913
Cu1   Cu    Cu3+1 0.499990 0.499980 0.640670 0.972031
Cu2   Cu    Cu3+1 0.500010 0.500020 0.359330 0.940132
H1    H     H_    0.758928 0.376867 0.125047 0.133620
H2    H     H_    0.761803 0.222688 0.938178 0.115227
H3    H     H_    0.845149 0.279442 0.708941 0.111963
H4    H     H_    0.606348 0.118237 0.306859 0.147594
H5    H     H_    0.610757 0.891287 0.308728 0.150030
H6    H     H_    0.276893 0.885414 0.616065 0.196543
H7    H     H_    0.355897 0.880503 0.790614 0.193620
H8    H     H_    0.279737 0.106730 0.624776 0.231051
H9    H     H_    0.363814 0.099776 0.797637 0.226229
H10   H     H_    0.499184 0.304675 0.129322 0.143164
H11   H     H_    0.215528 0.546085 0.933361 0.135118
H12   H     H_    0.499927 0.304849 0.874367 0.153408
H13   H     H_    0.669989 0.691089 0.881569 0.219234
H14   H     H_    0.538587 0.798735 0.872251 0.197027
H15   H     H_    0.662871 0.698174 0.132264 0.207070
H16   H     H_    0.525850 0.799955 0.116865 0.192694
H17   H     H_    0.151644 0.621138 0.161549 0.129205
H18   H     H_    0.071618 0.245378 0.290216 0.144380
H19   H     H_    0.131021 0.171582 0.060094 0.155281
H20   H     H_    0.878919 0.472866 0.284209 0.160220
H21   H     H_    0.120640 0.527710 0.717752 0.182662
H22   H     H_    0.929602 0.647392 0.857064 0.116248
H23   H     H_    0.845136 0.589745 0.084899 0.121093
N1    N     N_R   0.500790 0.500930 0.147930 -0.185888
N2    N     N_R   0.500790 0.500890 0.852020 -0.177729
O1    O     O_R   0.500000 0.319640 0.618810 -0.569767
O2    O     O_R   0.500010 0.319680 0.381230 -0.596625
O3    O     O_R   0.319640 0.499990 0.618790 -0.544247
O4    O     O_R   0.319650 0.500030 0.381210 -0.576158
O5    O     O_R   0.499990 0.680320 0.618770 -0.584079
O6    O     O_R   0.500000 0.680360 0.381190 -0.585731
O7    O     O_R   0.680350 0.499970 0.618790 -0.575736
O8    O     O_R   0.680360 0.500010 0.381210 -0.594636
Cl1   Cl    Cl    0.208627 0.300597 0.815710 -0.735406

loop_
_geom_bond_atom_site_label_1
_geom_bond_atom_site_label_2
_ccdc_geom_bond_type
C23   O5    A    
C33   H17   S    
Cu2   O4    S    
C1    O2    A    
C3    H20   S    
C16   C21   A    
C11   C13   A    
C9    C10   A    
C23   O6    A    
C1    C17   S    
C19   C20   A    
C20   C23   S    
C26   H10   S    
C9    H22   S    
C24   H8    S    
C32   C33   A    
Cu1   O1    S    
Cu1   O5    S    
C31   O8    A    
C33   C34   A    
C26   N1    A    
Cu2   O6    S    
C7    C8    A    
C16   C24   S    
C17   C18   A    
C8    C34   S    
C13   C14   A    
Cu1   O3    S    
C25   C28   A    
C11   H1    S    
C30   H16   S    
C26   C27   A    
C29   C30   S    
C27   N2    A    
C14   H3    S    
C2    Cl1   S    
C6    H21   S    
C21   C22   S    
C28   C29   S    
C12   O4    A    
Cu1   Cu2   S    
C19   H5    S    
C34   C35   A    
C6    C7    A    
C25   N1    A    
C18   H4    S    
C9    C15   A    
C5    C6    A    
C32   H11   S    
C30   H15   S    
C22   C24   S    
C7    C12   S    
C5    C15   S    
C10   H23   S    
C16   C17   A    
C10   C11   A    
C24   H9    S    
C3    C4    A    
C4    C31   S    
C28   N2    A    
C22   H7    S    
C20   C21   A    
C36   H19   S    
C27   H12   S    
C2    C32   A    
C3    C8    A    
C29   H13   S    
C2    C36   A    
C25   C30   S    
C14   C15   A    
C18   C19   A    
C13   H2    S    
Cu1   N2    S    
C35   H18   S    
Cu1   O7    S    
Cu2   O2    S    
C12   O3    A    
C1    O1    A    
C29   H14   S    
C31   O7    A    
C22   H6    S    
Cu2   O8    S    
C4    C5    A    
Cu2   N1    S    
C35   C36   A    
