data_mof_unit_25996.cif
_audit_creation_date              2012-12-10T18:49:03-0500
_audit_creation_method            fapswitch 2.2
_symmetry_space_group_name_H-M    P1
_symmetry_Int_Tables_number       1
_space_group_crystal_system       triclinic
_cell_length_a                    10.634735
_cell_length_b                    10.062738
_cell_length_c                    14.11249
_cell_angle_alpha                 91.488456
_cell_angle_beta                  93.23911
_cell_angle_gamma                 88.652498
_cell_volume                      1506.95245394

loop_
_atom_site_label
_atom_site_type_symbol
_atom_type_description
_atom_site_fract_x
_atom_site_fract_y
_atom_site_fract_z
_atom_type_partial_charge
C1    C     C_R   0.261060 0.501373 0.498933 0.810237
C2    C     C_1   0.501361 0.501973 0.957416 0.026386
C3    C     C_R   0.059892 0.453895 0.416740 -0.036319
C4    C     C_R   0.940353 0.545460 0.582689 -0.017660
C5    C     C_R   0.929178 0.447304 0.419733 -0.078763
C6    C     C_R   0.070629 0.552720 0.579964 -0.072073
C7    C     C_R   0.872122 0.495140 0.501785 -0.166438
C8    C     C_R   0.127836 0.504317 0.497999 -0.182733
C9    C     C_R   0.579111 0.071921 0.562252 0.162301
C10   C     C_R   0.428610 0.927383 0.432131 0.167940
C11   C     C_R   0.432266 0.070613 0.430455 0.139989
C12   C     C_R   0.738928 0.498573 0.501002 0.921067
C13   C     C_R   0.573367 0.929131 0.566029 0.174390
C14   C     C_2   0.127238 0.419621 0.328490 0.395298
C15   C     C_2   0.876567 0.580859 0.671656 0.358703
C16   C     C_2   0.849325 0.398791 0.336783 0.523944
C17   C     C_2   0.149603 0.601495 0.663866 0.418375
C18   C     C_3   0.686129 0.141896 0.617858 -0.364724
C19   C     C_3   0.809613 0.124689 0.567508 -0.787227
C20   C     C_3   0.335619 0.854579 0.363745 -0.352722
C21   C     C_3   0.377719 0.833246 0.262421 -0.826470
C22   C     C_3   0.374094 0.141833 0.344751 -0.311725
C23   C     C_R   0.499862 0.498634 0.329663 0.858506
C24   C     C_3   0.469714 0.152565 0.267581 -0.756742
C25   C     C_3   0.643165 0.858415 0.647711 -0.373989
C26   C     C_3   0.568218 0.867288 0.737106 -0.811492
C27   C     C_R   0.500544 0.501448 0.670361 0.934254
C28   C     C_1   0.500704 0.496409 0.228079 -0.215319
C29   C     C_1   0.500900 0.504133 0.772016 -0.160721
C30   C     C_1   0.501159 0.497106 0.142719 -0.004202
C31   C     C_1   0.501169 0.504027 0.857421 0.008152
C32   C     C_1   0.501371 0.499574 0.042766 0.030371
H1    H     H_    0.217662 0.462939 0.317799 0.026305
H2    H     H_    0.482052 0.829270 0.260921 0.272404
H3    H     H_    0.341170 0.737689 0.232271 0.244347
H4    H     H_    0.336538 0.911210 0.215338 0.253354
H5    H     H_    0.317000 0.757235 0.388298 0.262611
H6    H     H_    0.240916 0.903332 0.363522 0.173178
H7    H     H_    0.563014 0.184623 0.297825 0.286018
H8    H     H_    0.487779 0.056851 0.230741 0.237694
H9    H     H_    0.433049 0.223790 0.213470 0.247229
H10   H     H_    0.288399 0.094789 0.313098 0.198568
H11   H     H_    0.336838 0.239887 0.366060 0.243629
H12   H     H_    0.901460 0.669224 0.713242 0.136571
H13   H     H_    0.560969 0.971552 0.764098 0.242584
H14   H     H_    0.471394 0.830322 0.722176 0.283354
H15   H     H_    0.616205 0.806158 0.793333 0.255960
H16   H     H_    0.664188 0.754791 0.629798 0.267452
H17   H     H_    0.738566 0.896790 0.664300 0.183162
H18   H     H_    0.782270 0.466282 0.301163 0.009484
H19   H     H_    0.234723 0.546974 0.686399 0.050029
H20   H     H_    0.841858 0.019191 0.564706 0.238303
H21   H     H_    0.797473 0.159591 0.493521 0.293431
H22   H     H_    0.884113 0.183877 0.605957 0.262483
H23   H     H_    0.668066 0.247806 0.627854 0.283351
H24   H     H_    0.698781 0.107765 0.691767 0.190162
N1    N     N_R   0.500000 0.857200 0.500000 -0.134205
N2    N     N_R   0.500000 0.142800 0.500000 -0.131386
O1    O     O_R   0.316770 0.614620 0.499990 -0.631012
O2    O     O_2   0.796389 0.509375 0.700235 -0.608641
O3    O     O_2   0.852843 0.281739 0.311879 -0.524491
O4    O     O_2   0.123773 0.705623 0.705358 -0.590324
O5    O     O_R   0.683230 0.385380 0.500010 -0.604262
O6    O     O_R   0.683230 0.614620 0.500010 -0.635163
O7    O     O_R   0.316770 0.385380 0.499990 -0.619974
O8    O     O_R   0.500000 0.614690 0.373720 -0.594476
O9    O     O_R   0.500000 0.385310 0.626280 -0.615630
O10   O     O_R   0.500000 0.614690 0.626280 -0.598998
O11   O     O_R   0.500000 0.385310 0.373720 -0.605675
O12   O     O_2   0.085029 0.342008 0.267610 -0.522515
Zn1   Zn    Zn3+2 0.500000 0.653120 0.500000 0.930180
Zn2   Zn    Zn3+2 0.500000 0.346880 0.500000 0.934315

loop_
_geom_bond_atom_site_label_1
_geom_bond_atom_site_label_2
_ccdc_geom_bond_type
O11   Zn2   S    
C1    O7    A    
C24   H9    S    
C17   O4    D    
C27   C29   S    
O7    Zn2   S    
C20   H6    S    
C15   O2    D    
C23   O11   A    
C11   C22   S    
O8    Zn1   S    
C21   H2    S    
C18   H24   S    
C13   C25   S    
C19   H21   S    
C14   H1    S    
C28   C30   T    
C29   C31   T    
C21   H4    S    
C23   C28   S    
N1    Zn1   S    
C30   C32   S    
C20   H5    S    
C14   O12   D    
C25   H16   S    
N2    Zn2   S    
C22   H10   S    
C3    C14   S    
C26   H15   S    
C4    C15   S    
O10   Zn1   S    
C21   H3    S    
C18   H23   S    
C23   O8    A    
C2    C32   T    
O5    Zn2   S    
C24   H8    S    
C1    O1    A    
C16   H18   S    
C15   H12   S    
O9    Zn2   S    
C25   H17   S    
C4    C7    A    
C7    C12   S    
C12   O6    A    
C22   C24   S    
C3    C8    A    
C13   N1    A    
C10   C11   A    
C26   H14   S    
C11   N2    A    
C9    C18   S    
C10   N1    A    
C27   O9    A    
C20   C21   S    
C19   H22   S    
C17   H19   S    
C4    C6    A    
C9    N2    A    
C16   O3    D    
O6    Zn1   S    
O1    Zn1   S    
C5    C7    A    
C6    C17   S    
C9    C13   A    
C18   C19   S    
C5    C16   S    
C6    C8    A    
C27   O10   A    
C26   H13   S    
C25   C26   S    
C12   O5    A    
C19   H20   S    
C22   H11   S    
C1    C8    S    
C10   C20   S    
C2    C31   S    
C3    C5    A    
C24   H7    S    
