data_mof_unit_42274.cif
_audit_creation_date              2012-12-10T19:01:24-0500
_audit_creation_method            fapswitch 2.2
_symmetry_space_group_name_H-M    P1
_symmetry_Int_Tables_number       1
_space_group_crystal_system       triclinic
_cell_length_a                    9.542028
_cell_length_b                    10.818456
_cell_length_c                    15.44298
_cell_angle_alpha                 89.963377
_cell_angle_beta                  74.492691
_cell_angle_gamma                 89.968537
_cell_volume                      1536.14462275

loop_
_atom_site_label
_atom_site_type_symbol
_atom_type_description
_atom_site_fract_x
_atom_site_fract_y
_atom_site_fract_z
_atom_type_partial_charge
C1    C     C_R   0.000725 0.262279 0.498277 0.801596
C2    C     C_R   0.234916 0.587553 0.048949 0.072341
C3    C     C_R   0.329128 0.530055 0.094358 0.050879
C4    C     C_R   0.918314 0.499390 0.672277 0.801048
C5    C     C_R   0.089246 0.614154 0.095737 0.352847
C6    C     C_R   0.036980 0.581125 0.185860 -0.240165
C7    C     C_R   0.270128 0.492359 0.183794 -0.253823
C8    C     C_R   0.131642 0.063439 0.485527 0.138289
C9    C     C_R   0.004366 0.129184 0.488909 -0.098855
C10   C     C_R   0.881889 0.064474 0.478775 -0.211278
C11   C     C_R   0.881934 0.935609 0.478576 -0.209785
C12   C     C_R   0.676674 0.513178 0.909462 0.087028
C13   C     C_R   0.004418 0.870712 0.488595 -0.097096
C14   C     C_R   0.131660 0.936259 0.485361 0.124329
C15   C     C_3   0.231750 0.929269 0.544891 -0.458564
C16   C     C_R   0.000729 0.737680 0.498091 0.805392
C17   C     C_3   0.231732 0.069681 0.545099 -0.479977
C18   C     C_R   0.590255 0.595267 0.461602 0.245608
C19   C     C_R   0.554679 0.412834 0.545781 -0.077889
C20   C     C_R   0.405749 0.412867 0.545827 -0.085427
C21   C     C_R   0.442821 0.595457 0.461781 0.249813
C22   C     C_3   0.478212 0.636096 0.366103 -0.477263
C23   C     C_R   0.775476 0.474173 0.958111 0.188647
C24   C     C_3   0.637366 0.634750 0.365743 -0.498588
C25   C     C_R   0.081712 0.502834 0.327856 0.824335
C26   C     C_R   0.873320 0.496362 0.770925 -0.054961
C27   C     C_R   0.127276 0.520971 0.230238 -0.114130
C28   C     C_R   0.922105 0.452295 0.913581 -0.134136
C29   C     C_R   0.971130 0.464583 0.820571 -0.193737
C30   C     C_R   0.727935 0.520867 0.815423 -0.243569
C31   C     C_R   0.529373 0.539459 0.955972 0.075160
C32   C     C_R   0.479195 0.512917 0.049384 0.088733
C33   C     C_R   0.581779 0.474649 0.095463 -0.206932
C34   C     C_R   0.727117 0.457043 0.050621 -0.164743
C35   C     C_R   0.431830 0.594406 0.912646 -0.234439
C36   C     C_R   0.288625 0.619031 0.958445 -0.181105
Cl1   Cl    Cl    0.971165 0.697735 0.046791 -0.661502
Cu1   Cu    Cu3+1 0.140670 0.499980 0.500000 0.941305
Cu2   Cu    Cu3+1 0.859330 0.500020 0.500000 0.939810
H1    H     H_    0.802114 0.428800 0.088711 0.151516
H2    H     H_    0.451871 0.565350 0.320859 0.215378
H3    H     H_    0.333077 0.440217 0.219513 0.149859
H4    H     H_    0.436197 0.730368 0.359023 0.197329
H5    H     H_    0.700380 0.561892 0.321292 0.213513
H6    H     H_    0.687967 0.728040 0.357640 0.197984
H7    H     H_    0.927635 0.607233 0.222019 0.177100
H8    H     H_    0.220215 0.662755 0.921617 0.201715
H9    H     H_    0.998559 0.424399 0.950708 0.142872
H10   H     H_    0.084152 0.445420 0.787369 0.150417
H11   H     H_    0.655452 0.541585 0.774666 0.151686
H12   H     H_    0.783834 0.112642 0.475570 0.163903
H13   H     H_    0.554625 0.461700 0.167167 0.137103
H14   H     H_    0.464096 0.624760 0.843731 0.145432
H15   H     H_    0.783923 0.887574 0.475234 0.160764
H16   H     H_    0.179103 0.888215 0.611730 0.204911
H17   H     H_    0.339051 0.888831 0.509763 0.193161
H18   H     H_    0.179127 0.110347 0.612060 0.196334
H19   H     H_    0.339060 0.110083 0.510086 0.196486
H20   H     H_    0.595010 0.340932 0.581476 0.140753
H21   H     H_    0.334502 0.341147 0.581657 0.135892
N1    N     N_R   0.648210 0.500930 0.499430 -0.183131
N2    N     N_R   0.352300 0.500890 0.499430 -0.182540
O1    O     O_R   0.118810 0.319640 0.500000 -0.582374
O2    O     O_R   0.881230 0.319680 0.499990 -0.588279
O3    O     O_R   0.055580 0.499970 0.629840 -0.582830
O4    O     O_R   0.818000 0.500010 0.629830 -0.583925
O5    O     O_R   0.118770 0.680320 0.500010 -0.578167
O6    O     O_R   0.881190 0.680360 0.500000 -0.585243
O7    O     O_R   0.182000 0.499990 0.370170 -0.583153
O8    O     O_R   0.944420 0.500030 0.370160 -0.583664

loop_
_geom_bond_atom_site_label_1
_geom_bond_atom_site_label_2
_ccdc_geom_bond_type
C4    C26   S    
C33   H13   S    
C18   N1    A    
C23   C28   A    
C16   O6    A    
C5    Cl1   S    
C35   H14   S    
C18   C21   A    
C6    H7    S    
C9    C10   A    
C25   O7    A    
C6    C27   A    
Cu1   O3    S    
C17   H19   S    
C23   C34   A    
C12   C30   A    
C15   H17   S    
C33   C34   A    
C30   H11   S    
Cu1   O7    S    
C1    C9    S    
C16   O5    A    
C29   H10   S    
C21   C22   S    
C32   C33   A    
C8    C17   S    
C4    O4    A    
Cu2   O2    S    
C11   C13   A    
C12   C23   A    
C21   N2    A    
C3    C32   A    
C11   H15   S    
C35   C36   A    
C19   N1    A    
C18   C24   S    
C10   H12   S    
C1    O1    A    
C22   C24   S    
Cu1   Cu2   S    
C28   C29   A    
Cu2   O8    S    
C26   C30   A    
C3    C7    A    
C5    C6    A    
C12   C31   A    
C20   N2    A    
C4    O3    A    
C24   H5    S    
Cu2   O4    S    
C31   C35   A    
C36   H8    S    
C13   C16   S    
C2    C5    A    
C25   C27   S    
C10   C11   A    
C24   H6    S    
C22   H2    S    
C1    O2    A    
Cu2   N1    S    
C7    C27   A    
Cu1   O5    S    
C26   C29   A    
Cu1   O1    S    
Cu2   O6    S    
C7    H3    S    
C2    C36   A    
C15   C17   S    
C14   C15   S    
C34   H1    S    
C2    C3    A    
C25   O8    A    
C8    C14   A    
C19   H20   S    
C20   H21   S    
C13   C14   A    
C31   C32   A    
C28   H9    S    
C19   C20   A    
C17   H18   S    
C8    C9    A    
Cu1   N2    S    
C22   H4    S    
C15   H16   S    
