data_mof_unit_21655.cif
_audit_creation_date              2012-12-11T15:45:05-0500
_audit_creation_method            fapswitch 2.2
_symmetry_space_group_name_H-M    P1
_symmetry_Int_Tables_number       1
_space_group_crystal_system       triclinic
_cell_length_a                    6.930455
_cell_length_b                    16.827703
_cell_length_c                    17.097849
_cell_angle_alpha                 100.459032
_cell_angle_beta                  88.673301
_cell_angle_gamma                 91.252249
_cell_volume                      1960.04110387

loop_
_atom_site_label
_atom_site_type_symbol
_atom_type_description
_atom_site_fract_x
_atom_site_fract_y
_atom_site_fract_z
_atom_type_partial_charge
O1    O     O_R   0.494370 0.415690 0.413450 -0.541180
O2    O     O_R   0.819420 0.429360 0.578420 -0.526346
O3    O     O_R   0.994280 0.584310 0.586550 -0.550553
C1    C     C_R   0.647931 0.414787 0.605681 0.767281
O4    O     O_R   0.823790 0.406230 0.413570 -0.547103
O5    O     O_R   0.998670 0.561000 0.420530 -0.524072
C2    C     C_R   0.655003 0.383086 0.384893 0.708075
O6    O     O_R   0.489970 0.439000 0.579470 -0.555327
O7    O     O_3   0.662300 0.550810 0.502470 -0.351131
V1    V     V_3+5 0.935380 0.490570 0.499540 1.501747
O8    O     O_R   0.328650 0.570640 0.421580 -0.524612
C3    C     C_R   0.163074 0.585835 0.394629 0.829858
O9    O     O_R   0.324290 0.593770 0.586430 -0.517395
C4    C     C_R   0.155215 0.617675 0.614320 0.734863
V2    V     V_3+5 0.435930 0.509430 0.500460 1.524158
O10   O     O_3   0.159140 0.449190 0.497530 -0.383974
C5    C     C_R   0.300032 0.744295 0.696402 0.267927
C6    C     C_R   0.292296 0.807607 0.764127 0.278376
C7    C     C_R   0.123562 0.817573 0.813218 -0.101516
C8    C     C_R   0.968203 0.762901 0.795167 -0.242187
H1    H     H_    0.838294 0.768740 0.832044 0.151701
C9    C     C_R   0.979982 0.698421 0.731116 -0.205593
H2    H     H_    0.858640 0.656446 0.720498 0.154045
C10   C     C_R   0.145850 0.687507 0.681803 -0.100092
C11   C     C_R   0.166967 0.635282 0.330589 -0.178453
C12   C     C_R   0.098430 0.859904 0.166110 -0.057168
C13   C     C_R   0.938930 0.817799 0.280262 -0.200716
C14   C     C_R   0.952602 0.869824 0.225465 0.129895
C15   C     C_R   0.230290 0.796048 0.162005 0.114633
C16   C     C_R   0.208631 0.738545 0.215084 -0.022574
C17   C     C_R   0.066825 0.753651 0.277788 -0.029110
C18   C     C_R   0.051002 0.703384 0.336442 0.244814
C19   C     C_R   0.299427 0.616538 0.266825 0.310630
C20   C     C_R   0.317719 0.665971 0.208051 0.121180
H3    H     H_    0.822319 0.827687 0.323908 0.144516
C21   C     C_R   0.628606 0.365306 0.669356 -0.160597
C22   C     C_R   0.635861 0.138707 0.833893 -0.265387
C23   C     C_R   0.772600 0.163231 0.707898 -0.125708
C24   C     C_R   0.745636 0.112468 0.763349 0.336889
C25   C     C_R   0.553018 0.216903 0.846725 0.359733
C26   C     C_R   0.574251 0.266841 0.787553 -0.023249
C27   C     C_R   0.683796 0.238814 0.716983 -0.150089
C28   C     C_R   0.705853 0.287423 0.657157 0.300079
C29   C     C_R   0.522964 0.394342 0.740048 -0.001597
C30   C     C_R   0.492633 0.345083 0.798487 0.455816
H4    H     H_    0.864530 0.141631 0.656820 0.160554
C31   C     C_R   0.811305 0.275189 0.282902 -0.146441
H5    H     H_    0.951650 0.293495 0.307176 0.119127
C32   C     C_R   0.800045 0.211387 0.217835 -0.134302
H6    H     H_    0.932319 0.182418 0.194176 0.120553
C33   C     C_R   0.620952 0.185277 0.183984 -0.044683
C34   C     C_R   0.453433 0.224791 0.217134 -0.147639
H7    H     H_    0.313095 0.206493 0.192849 0.118816
C35   C     C_R   0.464690 0.288593 0.282206 -0.124481
H8    H     H_    0.332421 0.317570 0.305860 0.123047
C36   C     C_R   0.643782 0.314690 0.316070 -0.045342
O11   O     O_R   0.774880 0.061150 0.920630 -0.532946
O12   O     O_R   0.440980 0.093710 0.086500 -0.551808
O13   O     O_R   0.266190 0.938890 0.079390 -0.527973
C37   C     C_R   0.609752 0.116868 0.115180 0.680894
O14   O     O_R   0.445420 0.070740 0.921670 -0.524651
O15   O     O_R   0.270660 0.915760 0.913380 -0.507093
C38   C     C_R   0.616922 0.086441 0.895318 0.705032
O16   O     O_R   0.770400 0.084270 0.086640 -0.539595
O17   O     O_3   0.602590 0.949210 0.997500 -0.357541
V3    V     V_3+5 0.329470 0.009420 0.000470 1.510102
O18   O     O_R   0.940650 0.906250 0.913470 -0.555271
C39   C     C_R   0.110305 0.884129 0.883878 0.754235
O19   O     O_R   0.936210 0.929220 0.078300 -0.531295
C40   C     C_R   0.101910 0.913284 0.104909 0.761912
V4    V     V_3+5 0.828930 0.990510 0.999490 1.482323
O20   O     O_3   0.105680 0.050790 0.002500 -0.373966
O21   O     O_3   0.452631 0.738482 0.642301 -0.640651
H9    H     H_    0.506807 0.793270 0.641462 0.299981
N1    N     N_3   0.388916 0.795058 0.106496 -0.668729
H10   H     H_    0.375987 0.747062 0.058849 0.228284
H11   H     H_    0.519792 0.796636 0.135819 0.236437
O22   O     O_3   0.798803 0.260068 0.585291 -0.643996
H12   H     H_    0.759464 0.202944 0.566899 0.281983
N2    N     N_3   0.449470 0.475023 0.754430 -0.685887
H13   H     H_    0.342194 0.478982 0.713466 0.243337
H14   H     H_    0.561928 0.515717 0.747311 0.226231
O23   O     O_3   0.384663 0.372265 0.866962 -0.592267
H15   H     H_    0.325041 0.424637 0.864806 0.330867
O24   O     O_3   0.829303 0.037343 0.745329 -0.634997
H16   H     H_    0.764033 0.999886 0.776212 0.299353
O25   O     O_3   0.454169 0.246408 0.916894 -0.591402
H17   H     H_    0.500738 0.220685 0.960371 0.281968
O26   O     O_3   0.446430 0.860622 0.782761 -0.646682
H18   H     H_    0.567608 0.832172 0.764888 0.285872
O27   O     O_3   0.928376 0.720813 0.401874 -0.633587
H19   H     H_    0.935142 0.779826 0.421839 0.288894
O28   O     O_3   0.405764 0.546993 0.262383 -0.639173
H20   H     H_    0.514600 0.546693 0.223880 0.331252
N3    N     N_3   0.430662 0.634736 0.138365 -0.680049
H21   H     H_    0.555906 0.669343 0.134557 0.238145
H22   H     H_    0.345849 0.627807 0.087803 0.248659
N4    N     N_3   0.820219 0.935178 0.232118 -0.663753
H23   H     H_    0.679869 0.910911 0.228228 0.232581
H24   H     H_    0.834295 0.971091 0.288468 0.225277

loop_
_geom_bond_atom_site_label_1
_geom_bond_atom_site_label_2
_ccdc_geom_bond_type
O25   H17   S    
C1    C21   S    
O28   H20   S    
O21   H9    S    
N3    H21   S    
C1    O6    A    
C31   C32   A    
O24   H16   S    
C29   C30   A    
C28   O22   S    
O23   H15   S    
C25   O25   S    
C23   C27   A    
C22   C25   A    
O13   V3    S    
O5    C3    A    
C16   C17   A    
C18   O27   S    
O12   C37   A    
V2    O10   S    
O14   C38   A    
C6    C7    A    
C26   C27   A    
O16   V4    S    
C4    C10   S    
O19   V4    S    
O8    V2    S    
O14   V3    S    
O12   V3    S    
V3    O20   S    
C7    C8    A    
C32   C33   A    
O1    V2    S    
O7    V1    S    
C11   C18   A    
O9    C4    A    
C5    O21   S    
C30   O23   S    
C2    C36   S    
C22   C38   S    
C34   C35   A    
O11   C38   A    
C35   C36   A    
C5    C10   A    
C16   C20   A    
C13   C17   A    
C33   C34   A    
C29   N2    S    
C20   N3    S    
N2    H14   S    
O27   H19   S    
O4    C2    A    
O15   V3    S    
O22   H12   S    
C13   H3    S    
O17   V4    S    
O18   C39   A    
O2    C1    A    
N1    H10   S    
C15   C16   A    
C31   H5    S    
C5    C6    A    
C7    C39   S    
O11   V4    S    
N1    H11   S    
O3    C4    A    
C25   C26   A    
C8    C9    A    
N4    H23   S    
O6    V2    S    
N4    H24   S    
O9    V2    S    
C12   C40   S    
C32   H6    S    
C9    C10   A    
C21   C29   A    
C27   C28   A    
C24   O24   S    
O2    V1    S    
C34   H7    S    
C14   N4    S    
C35   H8    S    
O1    C2    A    
C6    O26   S    
C17   C18   A    
N2    H13   S    
C19   O28   S    
O5    V1    S    
O8    C3    A    
N3    H22   S    
C15   N1    S    
C12   C14   A    
O15   C39   A    
C3    C11   S    
C37   O16   A    
O7    V2    S    
O4    V1    S    
C22   C24   A    
O3    V1    S    
V1    O10   S    
C23   C24   A    
C19   C20   A    
O18   V4    S    
O19   C40   A    
C23   H4    S    
O13   C40   A    
V4    O20   S    
C8    H1    S    
C12   C15   A    
O17   V3    S    
C13   C14   A    
C26   C30   A    
C9    H2    S    
C21   C28   A    
C33   C37   S    
O26   H18   S    
C11   C19   A    
C31   C36   A    
