data_mof_unit_68168.cif
_audit_creation_date              2012-12-11T16:30:24-0500
_audit_creation_method            fapswitch 2.2
_symmetry_space_group_name_H-M    P1
_symmetry_Int_Tables_number       1
_space_group_crystal_system       triclinic
_cell_length_a                    6.968092
_cell_length_b                    14.252834
_cell_length_c                    16.142234
_cell_angle_alpha                 89.999917
_cell_angle_beta                  90.112299
_cell_angle_gamma                 89.999983
_cell_volume                      1603.16383588

loop_
_atom_site_label
_atom_site_type_symbol
_atom_type_description
_atom_site_fract_x
_atom_site_fract_y
_atom_site_fract_z
_atom_type_partial_charge
O1    O     O_R   0.611670 0.415650 0.164070 -0.536590
O2    O     O_R   0.388330 0.915650 0.835930 -0.536587
O3    O     O_R   0.940950 0.405490 0.337780 -0.525552
O4    O     O_R   0.059050 0.905490 0.662220 -0.525550
O5    O     O_R   0.111350 0.584350 0.338470 -0.531265
O6    O     O_R   0.888650 0.084350 0.661530 -0.531267
C1    C     C_R   0.771865 0.380979 0.365137 0.701200
C2    C     C_R   0.228133 0.880983 0.634859 0.701189
O7    O     O_R   0.941380 0.404630 0.164680 -0.546957
O8    O     O_R   0.058620 0.904630 0.835320 -0.546961
O9    O     O_R   0.111780 0.583470 0.164130 -0.536997
O10   O     O_R   0.888220 0.083470 0.835870 -0.537014
C3    C     C_R   0.772248 0.381297 0.137300 0.696716
C4    C     C_R   0.227749 0.881309 0.862709 0.696725
O11   O     O_R   0.611240 0.416530 0.338400 -0.548556
O12   O     O_R   0.388760 0.916530 0.661600 -0.548555
O13   O     O_3   0.778020 0.558680 0.251290 -0.366589
O14   O     O_3   0.221980 0.058680 0.748710 -0.366588
V1    V     V_3+5 0.052840 0.489110 0.251260 1.410482
V2    V     V_3+5 0.947160 0.989110 0.748740 1.410510
O15   O     O_R   0.441500 0.594510 0.164760 -0.541944
O16   O     O_R   0.558500 0.094510 0.835240 -0.541929
C5    C     C_R   0.272388 0.618289 0.137511 0.703876
C6    C     C_R   0.727612 0.118283 0.862494 0.703864
O17   O     O_R   0.441080 0.595370 0.337860 -0.544377
O18   O     O_R   0.558920 0.095370 0.662140 -0.544376
C7    C     C_R   0.272653 0.615574 0.368544 0.682458
C8    C     C_R   0.727348 0.115576 0.631457 0.682466
V3    V     V_3+5 0.552850 0.510890 0.251270 1.392902
V4    V     V_3+5 0.447150 0.010890 0.748730 1.392961
O19   O     O_3   0.277800 0.441320 0.251250 -0.369688
O20   O     O_3   0.722200 0.941320 0.748750 -0.369684
C9    C     C_3   0.099487 0.659083 0.502024 -0.304008
C10   C     C_3   0.900511 0.159080 0.497975 -0.303996
H1    H     H_    0.958197 0.656791 0.469976 0.150716
H2    H     H_    0.041803 0.156790 0.530020 0.150709
C11   C     C_3   0.089623 0.729311 0.575597 -0.350070
C12   C     C_3   0.910372 0.229305 0.424399 -0.350096
H3    H     H_    0.119851 0.690977 0.634229 0.129325
H4    H     H_    0.880136 0.190967 0.365769 0.129337
H5    H     H_    0.089643 0.783566 0.366434 0.142846
H6    H     H_    0.910385 0.283573 0.633554 0.142874
C13   C     C_3   0.219952 0.785347 0.405825 -0.398273
C14   C     C_3   0.780059 0.285349 0.594171 -0.398249
C15   C     C_3   0.452866 0.689375 0.489819 -0.336245
C16   C     C_3   0.547130 0.189376 0.510183 -0.336240
C17   C     C_3   0.261692 0.685674 0.439907 0.051325
C18   C     C_3   0.738309 0.185675 0.560093 0.051299
H7    H     H_    0.572854 0.710273 0.448412 0.146258
H8    H     H_    0.427148 0.210282 0.551592 0.146259
H9    H     H_    0.487478 0.618431 0.514518 0.144470
H10   H     H_    0.512508 0.118431 0.485491 0.144439
C19   C     C_3   0.238812 0.809340 0.564606 0.044231
C20   C     C_3   0.761184 0.309335 0.435389 0.044242
C21   C     C_3   0.209982 0.858268 0.478732 0.387308
C22   C     C_3   0.790007 0.358266 0.521262 0.387307
C23   C     C_3   0.439251 0.760216 0.562655 -0.411106
C24   C     C_3   0.560745 0.260210 0.437341 -0.411117
H11   H     H_    0.465400 0.722889 0.622205 0.166329
H12   H     H_    0.534601 0.222876 0.377793 0.166311
H13   H     H_    0.555447 0.813067 0.556168 0.142135
H14   H     H_    0.444543 0.313060 0.443823 0.142126
H15   H     H_    0.338696 0.805655 0.363557 0.146349
H16   H     H_    0.661326 0.305657 0.636446 0.146373
H17   H     H_    0.142195 0.561125 0.760926 0.113309
H18   H     H_    0.858080 0.061110 0.239060 0.113292
C25   C     C_R   0.300776 0.944813 0.028898 -0.336217
C26   C     C_R   0.699215 0.444801 0.971114 -0.336473
C27   C     C_R   0.340555 0.979719 0.108899 0.443189
C28   C     C_R   0.659531 0.479713 0.891107 0.443276
C29   C     C_R   0.351414 0.915844 0.175035 0.487650
C30   C     C_R   0.648655 0.415838 0.824972 0.487823
C31   C     C_R   0.325894 0.819562 0.161126 -0.270111
C32   C     C_R   0.674100 0.319554 0.838885 -0.270074
C33   C     C_R   0.287670 0.783717 0.081186 -0.000745
C34   C     C_R   0.712304 0.283706 0.918824 -0.000839
C35   C     C_R   0.275851 0.847610 0.013851 -0.005097
C36   C     C_R   0.724114 0.347596 0.986161 -0.005258
C37   C     C_R   0.261766 0.685901 0.067427 -0.140376
C38   C     C_R   0.738247 0.185892 0.932578 -0.140355
C39   C     C_R   0.225894 0.652303 0.985939 0.006478
C40   C     C_R   0.774200 0.152295 0.014060 0.006558
C41   C     C_R   0.215791 0.716496 0.918687 0.065118
C42   C     C_R   0.784259 0.216484 0.081317 0.065122
C43   C     C_R   0.238908 0.814009 0.932709 -0.141190
C44   C     C_R   0.761079 0.313995 0.067301 -0.141185
C45   C     C_R   0.203481 0.554938 0.969856 -0.255463
C46   C     C_R   0.796772 0.054937 0.030131 -0.255416
C47   C     C_R   0.171959 0.520801 0.888453 0.535787
C48   C     C_R   0.828335 0.020802 0.111528 0.535770
C49   C     C_R   0.164432 0.585506 0.823728 -0.098969
C50   C     C_R   0.835787 0.085494 0.176263 -0.098983
C51   C     C_R   0.185781 0.681267 0.838022 -0.208718
C52   C     C_R   0.814315 0.181252 0.161979 -0.208704
H19   H     H_    0.296153 0.993362 0.977754 0.138236
H20   H     H_    0.703833 0.493349 0.022258 0.138307
H21   H     H_    0.338983 0.773084 0.213792 0.123572
H22   H     H_    0.661025 0.273078 0.786216 0.123586
H23   H     H_    0.179152 0.727371 0.784867 0.098234
H24   H     H_    0.820904 0.227352 0.215138 0.098220
H25   H     H_    0.339421 0.903171 0.470718 0.054429
H26   H     H_    0.660555 0.403161 0.529276 0.054438
O21   O     O_3   0.391263 0.072744 0.125083 -0.547297
C53   C     C_3   0.305329 0.137994 0.070757 -0.265067
H27   H     H_    0.151587 0.123170 0.060934 0.135871
H28   H     H_    0.381394 0.140234 0.010589 0.149855
H29   H     H_    0.316363 0.208878 0.098746 0.169322
O22   O     O_3   0.609019 0.572756 0.874905 -0.547316
C54   C     C_3   0.694875 0.637978 0.929269 -0.265111
H30   H     H_    0.848539 0.623084 0.939199 0.135887
H31   H     H_    0.618617 0.640257 0.989380 0.149906
H32   H     H_    0.684067 0.708861 0.901266 0.169314
O23   O     O_3   0.406373 0.945651 0.253120 -0.554147
C55   C     C_3   0.252102 0.993853 0.290292 -0.237598
H33   H     H_    0.120307 0.949856 0.291783 0.147113
H34   H     H_    0.222214 0.061619 0.258956 0.169993
H35   H     H_    0.291949 0.010885 0.355059 0.164504
O24   O     O_3   0.593843 0.445656 0.746873 -0.554131
C56   C     C_3   0.748220 0.493816 0.709743 -0.237802
H36   H     H_    0.880053 0.449839 0.708391 0.147095
H37   H     H_    0.777942 0.561638 0.741014 0.170091
H38   H     H_    0.708597 0.510738 0.644930 0.164667
H39   H     H_    0.209344 0.506129 0.020778 0.109440
H40   H     H_    0.791058 0.006128 0.979207 0.109496
O25   O     O_3   0.138798 0.427081 0.867341 -0.565148
C57   C     C_3   0.195039 0.362174 0.928719 -0.256723
H41   H     H_    0.099675 0.365325 0.983305 0.144491
H42   H     H_    0.345136 0.373110 0.948225 0.140836
H43   H     H_    0.184348 0.290385 0.902561 0.170594
O26   O     O_3   0.861746 0.927107 0.132595 -0.565218
C58   C     C_3   0.804941 0.862173 0.071350 -0.256551
H44   H     H_    0.900074 0.865144 0.016698 0.144497
H45   H     H_    0.654840 0.873240 0.051951 0.140743
H46   H     H_    0.815416 0.790405 0.097574 0.170540
H47   H     H_    0.126704 0.587762 0.526850 0.176975
H48   H     H_    0.873290 0.087760 0.473152 0.176986
H49   H     H_    0.942048 0.757443 0.582372 0.155263
H50   H     H_    0.057949 0.257435 0.417619 0.155248
O27   O     O_3   0.054596 0.923651 0.478426 -0.571852
C59   C     C_3   0.876600 0.888574 0.450023 -0.271422
H51   H     H_    0.854871 0.812985 0.461167 0.133985
H52   H     H_    0.860013 0.903639 0.382961 0.160747
H53   H     H_    0.760071 0.926249 0.482815 0.140389
O28   O     O_3   0.945373 0.423660 0.521570 -0.571863
C60   C     C_3   0.123401 0.388584 0.549938 -0.271456
H54   H     H_    0.145106 0.312986 0.538824 0.133976
H55   H     H_    0.140082 0.403680 0.616990 0.160755
H56   H     H_    0.239884 0.426238 0.517099 0.140403

loop_
_geom_bond_atom_site_label_1
_geom_bond_atom_site_label_2
_ccdc_geom_bond_type
C24   H14   S    
C12   H4    S    
C57   H41   S    
O13   V3    S    
C25   C35   A    
C59   H53   S    
C46   H40   S    
C58   H46   S    
V1    O19   S    
C53   H28   S    
C60   H54   S    
C13   H15   S    
C32   H22   S    
C47   O25   S    
C14   H16   S    
C31   H21   S    
C15   C23   S    
C26   H20   S    
C32   C34   A    
C34   C36   A    
O3    C1    A    
C54   H31   S    
V2    O20   S    
C23   H11   S    
C15   H9    S    
C24   H12   S    
C41   C51   A    
C16   H10   S    
C21   O27   S    
O22   C54   S    
C29   O23   S    
O17   V3    S    
C15   C17   S    
C27   C29   A    
O7    C3    A    
O24   C56   S    
C60   H55   S    
O5    C7    A    
O7    V1    S    
O6    C8    A    
O8    V2    S    
C3    C44   S    
O3    V1    S    
O14   V4    S    
C10   H48   S    
C9    H47   S    
C47   C49   A    
C13   C17   S    
C51   H23   S    
C10   H2    S    
O4    C2    A    
C11   C19   S    
C36   C44   A    
C1    O11   A    
C35   C43   A    
C2    O12   A    
C11   H49   S    
C16   C24   S    
C25   H19   S    
C31   C33   A    
H6    C14   S    
O1    V3    S    
C53   H27   S    
C39   C41   A    
C6    C38   S    
C16   H8    S    
O11   V3    S    
C16   C18   S    
C19   C21   S    
C26   C36   A    
C20   C22   S    
V4    O20   S    
C59   H51   S    
C30   C32   A    
O8    C4    A    
C54   H32   S    
C37   C39   A    
C19   C23   S    
O13   V1    S    
C22   O28   S    
H18   C50   S    
C57   H43   S    
O15   V3    S    
C9    C11   S    
C25   C27   A    
O4    V2    S    
C49   C51   A    
C14   C22   S    
C48   C50   A    
C12   C20   S    
C52   H24   S    
C56   H36   S    
O9    V1    S    
O10   V2    S    
C50   C52   A    
C15   H7    S    
C12   H50   S    
C42   C52   A    
C33   C35   A    
C39   C45   A    
C56   H37   S    
O5    V1    S    
C38   C40   A    
C41   C43   A    
C46   C48   A    
O18   V4    S    
C40   C42   A    
C45   C47   A    
O25   C57   S    
C9    C17   S    
O16   C6    A    
O1    C3    A    
C58   H44   S    
C60   H56   S    
C29   C31   A    
O23   C55   S    
C20   C24   S    
C56   H38   S    
C13   C21   S    
H17   C49   S    
O10   C6    A    
C8    C18   S    
C57   H42   S    
O16   V4    S    
C10   C12   S    
C27   O21   S    
H5    C13   S    
C34   C38   A    
C4    C43   S    
C42   C44   A    
O28   C60   S    
C58   H45   S    
C2    C19   S    
C55   H34   S    
O27   C59   S    
C23   H13   S    
C59   H52   S    
O17   C7    A    
O6    V2    S    
C21   H25   S    
O18   C8    A    
C7    C17   S    
O2    V4    S    
O15   C5    A    
O26   C58   S    
C22   H26   S    
C11   H3    S    
C28   O22   S    
C54   H30   S    
C45   H39   S    
C33   C37   A    
C40   C46   A    
O9    C5    A    
C9    H1    S    
O14   V2    S    
C55   H33   S    
O2    C4    A    
C55   H35   S    
C48   O26   S    
C10   C18   S    
V3    O19   S    
C30   O24   S    
O21   C53   S    
C26   C28   A    
C28   C30   A    
C1    C20   S    
C5    C37   S    
O12   V4    S    
C53   H29   S    
C14   C18   S    
