data_mof_unit_40683.cif
_audit_creation_date              2012-12-10T17:00:38-0500
_audit_creation_method            fapswitch 2.2
_symmetry_space_group_name_H-M    P1
_symmetry_Int_Tables_number       1
_space_group_crystal_system       triclinic
_cell_length_a                    22.298758
_cell_length_b                    22.311831
_cell_length_c                    22.290517
_cell_angle_alpha                 90.056957
_cell_angle_beta                  89.930688
_cell_angle_gamma                 90.092933
_cell_volume                      11090.0862749

loop_
_atom_site_label
_atom_site_type_symbol
_atom_type_description
_atom_site_fract_x
_atom_site_fract_y
_atom_site_fract_z
_atom_type_partial_charge
C1    C     C_R   0.500059 0.118398 0.000053 0.732633
C2    C     C_R   0.999934 0.118093 0.500008 0.716912
C3    C     C_R   0.499955 0.881623 0.000051 0.731266
C4    C     C_R   0.000035 0.881972 0.499988 0.717980
C5    C     C_R   0.881586 0.999649 0.500044 0.733205
C6    C     C_R   0.881955 0.500000 0.000481 0.716406
C7    C     C_R   0.118436 0.999921 0.500000 0.733364
C8    C     C_R   0.118047 0.500096 0.999554 0.716836
C9    C     C_R   0.999934 0.499970 0.881652 0.732798
C10   C     C_R   0.500015 0.999940 0.881984 0.718640
C11   C     C_R   0.999857 0.499967 0.118343 0.732305
C12   C     C_R   0.499962 0.999905 0.118020 0.718446
C13   C     C_R   0.000032 0.618987 0.500000 0.717224
C14   C     C_R   0.499905 0.618399 0.000040 0.708955
C15   C     C_R   0.999956 0.381076 0.499975 0.715083
C16   C     C_R   0.499816 0.381617 0.999939 0.712447
C17   C     C_R   0.381046 0.499970 0.000059 0.715312
C18   C     C_R   0.381684 0.999948 0.500034 0.716369
C19   C     C_R   0.618954 0.499908 0.999938 0.715324
C20   C     C_R   0.618337 0.000000 0.500118 0.716546
C21   C     C_R   0.499968 0.999963 0.381031 0.718080
C22   C     C_R   0.999996 0.499667 0.381611 0.710681
C23   C     C_R   0.499940 0.000033 0.618973 0.716651
C24   C     C_R   0.999966 0.499966 0.618387 0.710770
C25   C     C_R   0.458758 0.898336 0.814967 -0.283312
C26   C     C_R   0.189044 0.913633 0.434119 -0.244307
C27   C     C_R   0.541288 0.898415 0.184798 -0.281623
C28   C     C_R   0.810661 0.914370 0.567203 -0.244483
C29   C     C_R   0.456399 0.100461 0.184923 -0.286150
C30   C     C_R   0.189207 0.086513 0.565470 -0.242524
C31   C     C_R   0.542970 0.100919 0.815362 -0.282817
C32   C     C_R   0.811346 0.083986 0.432356 -0.241786
C33   C     C_R   0.098337 0.185433 0.450807 -0.283437
C34   C     C_R   0.082880 0.569206 0.188683 -0.234054
C35   C     C_R   0.100187 0.815372 0.544721 -0.283803
C36   C     C_R   0.083856 0.431648 0.811132 -0.241173
C37   C     C_R   0.899791 0.814959 0.455573 -0.284186
C38   C     C_R   0.916935 0.429996 0.188569 -0.242036
C39   C     C_R   0.901286 0.185221 0.548832 -0.282702
C40   C     C_R   0.916588 0.568951 0.811452 -0.234114
C41   C     C_R   0.814457 0.546858 0.099940 -0.282344
C42   C     C_R   0.429830 0.811377 0.082887 -0.234478
C43   C     C_R   0.184571 0.457568 0.100710 -0.281271
C44   C     C_R   0.567267 0.189317 0.085144 -0.243207
C45   C     C_R   0.185661 0.547500 0.900409 -0.284943
C46   C     C_R   0.570016 0.811312 0.917403 -0.232631
C47   C     C_R   0.815330 0.457321 0.899272 -0.282772
C48   C     C_R   0.431441 0.188299 0.916060 -0.242407
C49   C     C_R   0.934035 0.413490 0.311146 -0.282038
C50   C     C_R   0.692212 0.442349 0.903564 -0.238705
C51   C     C_R   0.066445 0.414801 0.688655 -0.279954
C52   C     C_R   0.307595 0.442308 0.096184 -0.240095
C53   C     C_R   0.933655 0.585364 0.688880 -0.266777
C54   C     C_R   0.691268 0.560430 0.094332 -0.254622
C55   C     C_R   0.065465 0.585669 0.311198 -0.267832
C56   C     C_R   0.308956 0.560547 0.905732 -0.251485
C57   C     C_R   0.586121 0.688839 0.934332 -0.268319
C58   C     C_R   0.557890 0.096221 0.692188 -0.247030
C59   C     C_R   0.583008 0.311986 0.069133 -0.270025
C60   C     C_R   0.556958 0.903344 0.307809 -0.247518
C61   C     C_R   0.415094 0.310874 0.932392 -0.273759
C62   C     C_R   0.442839 0.903339 0.692000 -0.242753
C63   C     C_R   0.413984 0.688693 0.066397 -0.268060
C64   C     C_R   0.441539 0.095609 0.308080 -0.238213
C65   C     C_R   0.311858 0.070871 0.581645 -0.271546
C66   C     C_R   0.906194 0.308515 0.561377 -0.251897
C67   C     C_R   0.687920 0.930350 0.583085 -0.269945
C68   C     C_R   0.095501 0.692263 0.558879 -0.238909
C69   C     C_R   0.688895 0.066969 0.415417 -0.277650
C70   C     C_R   0.093445 0.308674 0.438266 -0.251297
C71   C     C_R   0.311882 0.928918 0.418399 -0.268188
C72   C     C_R   0.904578 0.691873 0.441164 -0.239927
C73   C     C_R   0.435428 0.848471 0.785423 0.401691
C74   C     C_R   0.220210 0.877500 0.394812 0.323176
C75   C     C_R   0.564625 0.848619 0.214228 0.400589
C76   C     C_R   0.779392 0.878727 0.606881 0.322531
C77   C     C_R   0.430905 0.149316 0.214253 0.394349
C78   C     C_R   0.220498 0.123061 0.604352 0.316248
C79   C     C_R   0.568574 0.149838 0.786191 0.392565
C80   C     C_R   0.780890 0.117794 0.390756 0.317802
C81   C     C_R   0.146700 0.215236 0.424578 0.391570
C82   C     C_R   0.115891 0.611446 0.219151 0.325605
C83   C     C_R   0.149068 0.786193 0.570184 0.393069
C84   C     C_R   0.117575 0.390073 0.780447 0.317148
C85   C     C_R   0.850888 0.785569 0.430159 0.392750
C86   C     C_R   0.884119 0.387436 0.218869 0.320127
C87   C     C_R   0.852922 0.214939 0.575069 0.392431
C88   C     C_R   0.883267 0.610856 0.781000 0.325307
C89   C     C_R   0.784551 0.573149 0.148221 0.393415
C90   C     C_R   0.387539 0.780975 0.116013 0.327539
C91   C     C_R   0.213827 0.434015 0.150524 0.401861
C92   C     C_R   0.606934 0.220557 0.120815 0.322000
C93   C     C_R   0.215645 0.573545 0.852053 0.394019
C94   C     C_R   0.612525 0.781001 0.884555 0.326570
C95   C     C_R   0.786006 0.433963 0.849314 0.401722
C96   C     C_R   0.389008 0.218394 0.882981 0.326790
C97   C     C_R   0.894249 0.377765 0.280202 0.326538
C98   C     C_R   0.723206 0.427262 0.850996 0.282390
C99   C     C_R   0.107145 0.380086 0.719207 0.327098
C100  C     C_R   0.276584 0.427140 0.148716 0.282820
C101  C     C_R   0.893368 0.620518 0.719656 0.330867
C102  C     C_R   0.721740 0.578880 0.145972 0.259729
C103  C     C_R   0.105485 0.621178 0.280423 0.330722
C104  C     C_R   0.278502 0.578986 0.854144 0.259143
C105  C     C_R   0.621921 0.719670 0.894502 0.331717
C106  C     C_R   0.575040 0.148021 0.723356 0.281261
C107  C     C_R   0.615780 0.282178 0.111896 0.333441
C108  C     C_R   0.571689 0.850649 0.276985 0.283378
C109  C     C_R   0.379537 0.279819 0.892539 0.325945
C110  C     C_R   0.428219 0.850545 0.722687 0.282929
C111  C     C_R   0.378295 0.719523 0.106319 0.332784
C112  C     C_R   0.424426 0.147408 0.277084 0.280441
C113  C     C_R   0.282132 0.114466 0.613363 0.332934
C114  C     C_R   0.854811 0.277792 0.580287 0.259133
C115  C     C_R   0.717744 0.887593 0.615800 0.334185
C116  C     C_R   0.147264 0.723388 0.576256 0.280993
C117  C     C_R   0.719625 0.107683 0.380725 0.325479
C118  C     C_R   0.144826 0.278070 0.419355 0.259665
C119  C     C_R   0.281983 0.885786 0.386155 0.334953
C120  C     C_R   0.852737 0.722772 0.423976 0.281034
C121  C     C_R   0.473293 0.951526 0.720165 0.025345
C122  C     C_R   0.282028 0.962486 0.461589 0.013530
C123  C     C_R   0.526483 0.951422 0.279745 0.015628
C124  C     C_R   0.717882 0.963260 0.539461 0.012173
C125  C     C_R   0.472791 0.048066 0.279869 0.039699
C126  C     C_R   0.282015 0.037125 0.538627 0.004728
C127  C     C_R   0.526695 0.048504 0.720258 0.022870
C128  C     C_R   0.718273 0.035544 0.460328 0.008944
C129  C     C_R   0.046821 0.280105 0.470638 0.036242
C130  C     C_R   0.034845 0.540218 0.281720 0.016948
C131  C     C_R   0.048022 0.720320 0.527536 0.036376
C132  C     C_R   0.035257 0.459747 0.718223 0.004772
C133  C     C_R   0.952064 0.720123 0.472520 0.032327
C134  C     C_R   0.964886 0.458888 0.281705 0.005950
C135  C     C_R   0.952840 0.280022 0.529053 0.038471
C136  C     C_R   0.964635 0.540238 0.718328 0.017406
C137  C     C_R   0.719871 0.528291 0.047589 0.025331
C138  C     C_R   0.459235 0.718230 0.035271 0.015316
C139  C     C_R   0.279657 0.473046 0.048173 0.030892
C140  C     C_R   0.539371 0.282036 0.036222 0.012859
C141  C     C_R   0.280231 0.528590 0.952532 0.035853
C142  C     C_R   0.540649 0.718277 0.965143 0.014839
C143  C     C_R   0.720259 0.472888 0.951762 0.036428
C144  C     C_R   0.460149 0.281604 0.963843 0.018447
C145  C     C_R   0.960882 0.462787 0.218125 0.040296
C146  C     C_R   0.783835 0.476654 0.950747 -0.012353
C147  C     C_R   0.039290 0.463623 0.781775 0.040773
C148  C     C_R   0.216106 0.476916 0.049269 -0.011378
C149  C     C_R   0.960631 0.536389 0.781892 0.040064
C150  C     C_R   0.783439 0.524747 0.049253 -0.011683
C151  C     C_R   0.038891 0.536438 0.218172 0.039460
C152  C     C_R   0.216633 0.525247 0.950977 -0.013222
C153  C     C_R   0.536882 0.781797 0.961177 0.038466
C154  C     C_R   0.522882 0.049750 0.783842 -0.013665
C155  C     C_R   0.535737 0.218488 0.040070 0.036352
C156  C     C_R   0.522495 0.950088 0.216188 -0.012123
C157  C     C_R   0.464065 0.218061 0.960077 0.034762
C158  C     C_R   0.477402 0.950138 0.783707 -0.013629
C159  C     C_R   0.462925 0.781807 0.039107 0.038627
C160  C     C_R   0.476583 0.049358 0.216294 -0.016846
C161  C     C_R   0.218461 0.040796 0.534871 0.039450
C162  C     C_R   0.951533 0.216434 0.525886 -0.009634
C163  C     C_R   0.781464 0.959337 0.535681 0.038475
C164  C     C_R   0.049252 0.783872 0.523975 -0.015388
C165  C     C_R   0.781801 0.039362 0.464210 0.038718
C166  C     C_R   0.048110 0.216533 0.473799 -0.012171
C167  C     C_R   0.218436 0.958854 0.465297 0.038155
C168  C     C_R   0.950793 0.783668 0.476155 -0.014677
C169  C     C_R   0.499828 0.000110 0.687043 -0.142974
C170  C     C_R   0.314508 0.999803 0.500127 -0.084461
C171  C     C_R   0.499840 0.999863 0.312969 -0.143527
C172  C     C_R   0.685541 0.999844 0.500186 -0.081626
C173  C     C_R   0.999865 0.313103 0.499891 -0.143243
C174  C     C_R   0.999939 0.499527 0.314335 -0.081600
C175  C     C_R   0.000060 0.687059 0.500002 -0.143706
C176  C     C_R   0.999889 0.499930 0.685664 -0.083084
C177  C     C_R   0.686964 0.500099 0.999847 -0.143887
C178  C     C_R   0.499903 0.685654 0.000144 -0.083275
C179  C     C_R   0.313041 0.500291 0.000167 -0.144247
C180  C     C_R   0.499939 0.314380 0.999777 -0.077327
C181  C     C_R   0.999870 0.499736 0.185552 -0.009329
C182  C     C_R   0.815354 0.500115 0.000377 -0.077416
C183  C     C_R   0.999842 0.499890 0.814442 -0.010484
C184  C     C_R   0.184650 0.500471 0.999745 -0.078495
C185  C     C_R   0.499872 0.814394 0.000083 -0.015936
C186  C     C_R   0.500010 0.999984 0.815438 -0.068229
C187  C     C_R   0.500183 0.185654 0.999894 -0.017624
C188  C     C_R   0.499820 0.999841 0.184573 -0.070659
C189  C     C_R   0.185754 0.999779 0.500114 -0.013781
C190  C     C_R   0.999871 0.184725 0.499945 -0.083686
C191  C     C_R   0.814297 0.999470 0.500087 -0.012332
C192  C     C_R   0.000041 0.815430 0.500009 -0.078073
Cu1   Cu    Cu3+1 0.561820 0.000000 0.000000 1.119430
Cu2   Cu    Cu3+1 1.000000 0.000000 0.561820 1.117356
Cu3   Cu    Cu3+1 0.438180 0.000000 0.000000 1.120263
Cu4   Cu    Cu3+1 1.000000 0.000000 0.438180 1.117828
Cu5   Cu    Cu3+1 0.000000 0.438180 0.000000 1.119099
Cu6   Cu    Cu3+1 1.000000 0.561820 0.000000 1.112996
Cu7   Cu    Cu3+1 0.061820 0.500000 0.500000 1.131476
Cu8   Cu    Cu3+1 0.500000 0.500000 0.061820 1.134794
Cu9   Cu    Cu3+1 0.938180 0.500000 0.500000 1.130551
Cu10  Cu    Cu3+1 0.500000 0.500000 0.938180 1.134472
Cu11  Cu    Cu3+1 0.500000 0.938180 0.500000 1.123611
Cu12  Cu    Cu3+1 0.500000 0.061820 0.500000 1.115923
H1    H     H_    0.463761 0.895470 0.863055 0.189903
H2    H     H_    0.141961 0.905081 0.441304 0.174579
H3    H     H_    0.536368 0.895571 0.136695 0.190153
H4    H     H_    0.857608 0.905435 0.559764 0.175097
H5    H     H_    0.460980 0.103223 0.136801 0.192927
H6    H     H_    0.142216 0.095184 0.558037 0.176682
H7    H     H_    0.538431 0.103589 0.863501 0.192233
H8    H     H_    0.857903 0.093991 0.440924 0.175821
H9    H     H_    0.101195 0.137310 0.454394 0.199179
H10   H     H_    0.093256 0.560683 0.142191 0.173574
H11   H     H_    0.102932 0.863461 0.540363 0.193279
H12   H     H_    0.093974 0.440184 0.857681 0.175943
H13   H     H_    0.897005 0.863040 0.460041 0.193084
H14   H     H_    0.906579 0.438592 0.142108 0.178064
H15   H     H_    0.898471 0.137070 0.545285 0.198396
H16   H     H_    0.906470 0.560578 0.858019 0.173466
H17   H     H_    0.862617 0.543146 0.102838 0.196358
H18   H     H_    0.437949 0.857968 0.092956 0.177397
H19   H     H_    0.136501 0.462529 0.103540 0.191104
H20   H     H_    0.559867 0.142407 0.094182 0.176097
H21   H     H_    0.137474 0.543993 0.897595 0.197270
H22   H     H_    0.561709 0.857771 0.907095 0.176065
H23   H     H_    0.863434 0.462138 0.896535 0.191458
H24   H     H_    0.439630 0.141685 0.906187 0.178570
H25   H     H_    0.941985 0.404484 0.358015 0.184389
H26   H     H_    0.646031 0.428966 0.905629 0.189928
H27   H     H_    0.058016 0.405345 0.641954 0.184215
H28   H     H_    0.353698 0.428812 0.093977 0.189412
H29   H     H_    0.941883 0.594613 0.642101 0.181380
H30   H     H_    0.645020 0.572994 0.091484 0.191686
H31   H     H_    0.057177 0.594833 0.357993 0.181657
H32   H     H_    0.355306 0.572902 0.908441 0.190308
H33   H     H_    0.595150 0.642032 0.942311 0.181703
H34   H     H_    0.571350 0.093775 0.646057 0.188106
H35   H     H_    0.593049 0.358530 0.060688 0.184024
H36   H     H_    0.570868 0.905720 0.353805 0.192995
H37   H     H_    0.405834 0.357664 0.940245 0.183438
H38   H     H_    0.428848 0.905731 0.646029 0.192002
H39   H     H_    0.405010 0.641801 0.058589 0.181776
H40   H     H_    0.428110 0.093030 0.354215 0.184200
H41   H     H_    0.358227 0.062253 0.592247 0.186131
H42   H     H_    0.908673 0.354980 0.573231 0.190047
H43   H     H_    0.641363 0.938792 0.593147 0.183938
H44   H     H_    0.092998 0.646096 0.571953 0.182657
H45   H     H_    0.642231 0.058612 0.405814 0.185409
H46   H     H_    0.090950 0.355111 0.426410 0.189661
H47   H     H_    0.358376 0.937354 0.407994 0.184195
H48   H     H_    0.907130 0.645731 0.427938 0.183113
O1    O     O_R   0.552210 0.090180 0.999970 -0.558122
O2    O     O_R   0.000030 0.090180 0.552210 -0.556521
O3    O     O_R   0.447790 0.090180 0.000030 -0.558528
O4    O     O_R   0.999970 0.090180 0.447790 -0.557229
O5    O     O_R   0.552210 0.909820 0.000030 -0.560450
O6    O     O_R   0.000030 0.909820 0.447790 -0.555020
O7    O     O_R   0.447790 0.909820 0.999970 -0.560671
O8    O     O_R   0.999970 0.909820 0.552210 -0.555393
O9    O     O_R   0.909820 0.000030 0.552210 -0.560938
O10   O     O_R   0.909820 0.447790 0.000030 -0.553573
O11   O     O_R   0.909820 0.999970 0.447790 -0.558356
O12   O     O_R   0.909820 0.552210 0.999970 -0.558080
O13   O     O_R   0.090180 0.999970 0.552210 -0.557669
O14   O     O_R   0.090180 0.552210 0.000030 -0.558318
O15   O     O_R   0.090180 0.000030 0.447790 -0.559974
O16   O     O_R   0.090180 0.447790 0.999970 -0.553030
O17   O     O_R   0.999970 0.447790 0.909820 -0.558999
O18   O     O_R   0.552210 0.999970 0.909820 -0.555485
O19   O     O_R   0.000030 0.552210 0.909820 -0.562249
O20   O     O_R   0.447790 0.000030 0.909820 -0.553452
O21   O     O_R   0.000030 0.447790 0.090180 -0.559466
O22   O     O_R   0.447790 0.999970 0.090180 -0.554867
O23   O     O_R   0.999970 0.552210 0.090180 -0.562095
O24   O     O_R   0.552210 0.000030 0.090180 -0.555048
O25   O     O_R   0.052210 0.590180 0.499970 -0.561468
O26   O     O_R   0.500030 0.590180 0.052210 -0.556889
O27   O     O_R   0.947790 0.590180 0.500030 -0.562298
O28   O     O_R   0.499970 0.590180 0.947790 -0.557002
O29   O     O_R   0.052210 0.409820 0.500030 -0.559838
O30   O     O_R   0.500030 0.409820 0.947790 -0.566322
O31   O     O_R   0.947790 0.409820 0.499970 -0.560479
O32   O     O_R   0.499970 0.409820 0.052210 -0.567015
O33   O     O_R   0.409820 0.500030 0.052210 -0.561860
O34   O     O_R   0.409820 0.947790 0.500030 -0.564848
O35   O     O_R   0.409820 0.499970 0.947790 -0.561703
O36   O     O_R   0.409820 0.052210 0.499970 -0.570550
O37   O     O_R   0.590180 0.499970 0.052210 -0.562358
O38   O     O_R   0.590180 0.052210 0.500030 -0.568657
O39   O     O_R   0.590180 0.500030 0.947790 -0.561221
O40   O     O_R   0.590180 0.947790 0.499970 -0.564736
O41   O     O_R   0.499970 0.947790 0.409820 -0.564612
O42   O     O_R   0.052210 0.499970 0.409820 -0.555641
O43   O     O_R   0.500030 0.052210 0.409820 -0.561291
O44   O     O_R   0.947790 0.500030 0.409820 -0.570446
O45   O     O_R   0.500030 0.947790 0.590180 -0.562544
O46   O     O_R   0.947790 0.499970 0.590180 -0.556101
O47   O     O_R   0.499970 0.052210 0.590180 -0.565726
O48   O     O_R   0.052210 0.500030 0.590180 -0.570414
S1    S     S_3+6 0.595176 0.209764 0.831178 0.061906
O49   O     O_2   0.657371 0.226839 0.811871 -0.166463
O50   O     O_2   0.553999 0.262623 0.824885 -0.262262
O51   O     O_3   0.597745 0.189367 0.903684 -0.553240
H49   H     H_    0.612265 0.225404 0.925260 0.374433
S2    S     S_3+6 0.182209 0.182830 0.634724 0.141453
O52   O     O_2   0.194452 0.186782 0.700884 -0.088250
O53   O     O_2   0.206197 0.237025 0.602748 -0.183299
O54   O     O_3   0.107809 0.176343 0.623581 -0.496174
H50   H     H_    0.100106 0.197024 0.585162 0.341127
S3    S     S_3+6 0.404576 0.209342 0.169477 0.061726
O55   O     O_2   0.342185 0.225958 0.188400 -0.166024
O56   O     O_2   0.445572 0.262393 0.176509 -0.262214
O57   O     O_3   0.402666 0.189354 0.096790 -0.554538
H51   H     H_    0.388339 0.225468 0.075362 0.373595
S4    S     S_3+6 0.818934 0.178048 0.360577 0.143724
O58   O     O_2   0.807843 0.182114 0.294237 -0.088457
O59   O     O_2   0.793933 0.231906 0.392302 -0.183219
O60   O     O_3   0.893216 0.172613 0.373043 -0.493800
H52   H     H_    0.900123 0.193567 0.411555 0.341585
S5    S     S_3+6 0.585003 0.786129 0.169696 0.045668
O61   O     O_2   0.643114 0.760138 0.191106 -0.186447
O62   O     O_2   0.536309 0.739656 0.173558 -0.257837
O63   O     O_3   0.593787 0.806865 0.097776 -0.555447
H53   H     H_    0.607387 0.770147 0.076802 0.368521
S6    S     S_3+6 0.181515 0.818179 0.364022 0.142048
O64   O     O_2   0.194884 0.813469 0.298106 -0.087417
O65   O     O_2   0.203983 0.763975 0.396884 -0.185281
O66   O     O_3   0.107033 0.825902 0.373845 -0.494978
H54   H     H_    0.097842 0.804060 0.411306 0.343371
S7    S     S_3+6 0.415230 0.785839 0.829798 0.046053
O67   O     O_2   0.357103 0.759621 0.808429 -0.186381
O68   O     O_2   0.463977 0.739592 0.825673 -0.256745
O69   O     O_3   0.406582 0.806440 0.901806 -0.555767
H55   H     H_    0.393223 0.769595 0.922715 0.368216
S8    S     S_3+6 0.817667 0.819030 0.637489 0.142607
O70   O     O_2   0.805002 0.814604 0.703557 -0.087484
O71   O     O_2   0.794294 0.764794 0.605092 -0.183882
O72   O     O_3   0.892137 0.825991 0.626814 -0.495276
H56   H     H_    0.900596 0.804168 0.589128 0.342732
S9    S     S_3+6 0.793231 0.171127 0.603884 0.070807
O73   O     O_2   0.789742 0.179845 0.670630 -0.177836
O74   O     O_2   0.735324 0.190062 0.575333 -0.229899
O75   O     O_3   0.804376 0.097978 0.590265 -0.567594
H57   H     H_    0.768833 0.077566 0.607491 0.374488
S10   S     S_3+6 0.824460 0.355909 0.180637 0.138892
O76   O     O_2   0.821758 0.289360 0.190630 -0.090639
O77   O     O_2   0.769924 0.385675 0.206439 -0.186956
O78   O     O_3   0.829047 0.369610 0.106441 -0.496695
H58   H     H_    0.805322 0.406481 0.099890 0.340834
S11   S     S_3+6 0.790771 0.830199 0.403765 0.062469
O79   O     O_2   0.774062 0.811148 0.341406 -0.165489
O80   O     O_2   0.737734 0.823215 0.444829 -0.261253
O81   O     O_3   0.810752 0.902838 0.401713 -0.554370
H59   H     H_    0.774472 0.924241 0.387761 0.374226
S12   S     S_3+6 0.823163 0.641339 0.819175 0.145412
O82   O     O_2   0.818477 0.707461 0.807439 -0.089421
O83   O     O_2   0.769228 0.609018 0.795040 -0.179123
O84   O     O_3   0.829413 0.629778 0.893584 -0.494827
H60   H     H_    0.807050 0.592282 0.901518 0.343049
S13   S     S_3+6 0.209149 0.831079 0.596660 0.062242
O85   O     O_2   0.225927 0.812133 0.658980 -0.165331
O86   O     O_2   0.262166 0.824297 0.555551 -0.263715
O87   O     O_3   0.189096 0.903636 0.598844 -0.552900
H61   H     H_    0.225542 0.925270 0.612224 0.374836
S14   S     S_3+6 0.176203 0.641973 0.181207 0.145712
O88   O     O_2   0.181054 0.708134 0.192879 -0.089136
O89   O     O_2   0.229976 0.609771 0.205558 -0.179146
O90   O     O_3   0.170180 0.630165 0.106786 -0.494897
H62   H     H_    0.192712 0.592809 0.098923 0.343042
S15   S     S_3+6 0.206415 0.171523 0.395886 0.069839
O91   O     O_2   0.210070 0.180137 0.329152 -0.176488
O92   O     O_2   0.264248 0.190678 0.424602 -0.231508
O93   O     O_3   0.195196 0.098357 0.409446 -0.567579
H63   H     H_    0.231090 0.078067 0.392913 0.374176
S16   S     S_3+6 0.177926 0.359624 0.818218 0.143218
O94   O     O_2   0.181406 0.293220 0.807530 -0.089073
O95   O     O_2   0.232076 0.390537 0.792684 -0.182664
O96   O     O_3   0.173020 0.372700 0.892500 -0.494674
H64   H     H_    0.194717 0.410848 0.899089 0.341652
S17   S     S_3+6 0.830697 0.413523 0.786898 0.045570
O97   O     O_2   0.809418 0.355257 0.760933 -0.186190
O98   O     O_2   0.826874 0.462001 0.740322 -0.258972
O99   O     O_3   0.902570 0.405115 0.807773 -0.554991
H65   H     H_    0.923698 0.391885 0.770963 0.369274
S18   S     S_3+6 0.644259 0.819308 0.825015 0.140433
O100  O     O_2   0.710716 0.808682 0.821859 -0.091637
O101  O     O_2   0.613889 0.794243 0.770435 -0.182434
O102  O     O_3   0.631438 0.893542 0.830254 -0.498345
H66   H     H_    0.595617 0.901017 0.805196 0.342455
S19   S     S_3+6 0.172135 0.602473 0.792410 0.069894
O103  O     O_2   0.180795 0.669188 0.789470 -0.179297
O104  O     O_2   0.191501 0.574283 0.734352 -0.227790
O105  O     O_3   0.098905 0.588693 0.803205 -0.569690
H67   H     H_    0.078634 0.606642 0.768034 0.373110
S20   S     S_3+6 0.356768 0.179565 0.824073 0.135247
O106  O     O_2   0.290218 0.189857 0.822015 -0.092255
O107  O     O_2   0.386246 0.204661 0.769012 -0.190809
O108  O     O_3   0.370013 0.105413 0.829111 -0.500204
H68   H     H_    0.404648 0.097816 0.802380 0.343313
S21   S     S_3+6 0.169094 0.413602 0.212925 0.045654
O109  O     O_2   0.190183 0.355355 0.238821 -0.186770
O110  O     O_2   0.173080 0.462121 0.259554 -0.257912
O111  O     O_3   0.097193 0.405191 0.192041 -0.555084
H69   H     H_    0.076082 0.391679 0.228757 0.369149
S22   S     S_3+6 0.355553 0.819451 0.175364 0.138440
O112  O     O_2   0.289006 0.809007 0.177907 -0.092196
O113  O     O_2   0.385237 0.794319 0.230193 -0.184395
O114  O     O_3   0.368825 0.893659 0.170453 -0.500058
H70   H     H_    0.404003 0.901160 0.196446 0.342808
S23   S     S_3+6 0.828128 0.602051 0.207954 0.069988
O115  O     O_2   0.819783 0.668779 0.211021 -0.179893
O116  O     O_2   0.808585 0.573885 0.265936 -0.227359
O117  O     O_3   0.901298 0.588174 0.197207 -0.569984
H71   H     H_    0.921643 0.606431 0.232247 0.373052
S24   S     S_3+6 0.637765 0.182249 0.180529 0.141667
O118  O     O_2   0.703824 0.194909 0.184781 -0.087588
O119  O     O_2   0.605590 0.205563 0.234940 -0.184758
O120  O     O_3   0.627108 0.107811 0.173666 -0.496207
H72   H     H_    0.589830 0.099223 0.196149 0.342802
S25   S     S_3+6 0.134704 0.681714 0.318418 0.146231
O121  O     O_2   0.201718 0.682720 0.311130 -0.074095
O122  O     O_2   0.106806 0.735817 0.289842 -0.203053
O123  O     O_3   0.117114 0.679305 0.391894 -0.490880
H73   H     H_    0.076280 0.696482 0.394631 0.329150
S26   S     S_3+6 0.678313 0.602564 0.208455 0.182446
O124  O     O_2   0.682379 0.555616 0.256538 -0.113070
O125  O     O_2   0.701170 0.660771 0.233272 -0.106887
O126  O     O_3   0.605745 0.610662 0.189638 -0.439133
H74   H     H_    0.605235 0.644023 0.160406 0.364942
S27   S     S_3+6 0.863614 0.680758 0.681586 0.146547
O127  O     O_2   0.796678 0.681792 0.689513 -0.073582
O128  O     O_2   0.891831 0.735125 0.709591 -0.203413
O129  O     O_3   0.880342 0.677977 0.607917 -0.489319
H75   H     H_    0.920920 0.695768 0.604529 0.329707
S28   S     S_3+6 0.321966 0.602109 0.791472 0.181982
O130  O     O_2   0.317788 0.554648 0.743799 -0.114294
O131  O     O_2   0.299234 0.660019 0.766142 -0.105876
O132  O     O_3   0.394552 0.610479 0.810217 -0.439529
H76   H     H_    0.395087 0.643893 0.839456 0.364652
S29   S     S_3+6 0.136605 0.319664 0.681115 0.146019
O133  O     O_2   0.203510 0.318161 0.689033 -0.075559
O134  O     O_2   0.107910 0.265515 0.709043 -0.201168
O135  O     O_3   0.120016 0.322611 0.607455 -0.488606
H77   H     H_    0.079480 0.304752 0.603977 0.331428
S30   S     S_3+6 0.680609 0.404461 0.787773 0.180324
O136  O     O_2   0.700062 0.439123 0.733361 -0.093517
O137  O     O_2   0.690026 0.338917 0.776051 -0.138950
O138  O     O_3   0.607057 0.417054 0.799180 -0.451908
H78   H     H_    0.592320 0.381584 0.821484 0.373460
S31   S     S_3+6 0.864892 0.317013 0.317996 0.144463
O139  O     O_2   0.798079 0.314993 0.309439 -0.074642
O140  O     O_2   0.894025 0.263106 0.290148 -0.201559
O141  O     O_3   0.880737 0.319898 0.391815 -0.490645
H79   H     H_    0.921398 0.302526 0.395563 0.331307
S32   S     S_3+6 0.319128 0.403948 0.211730 0.180014
O142  O     O_2   0.299883 0.438332 0.266422 -0.092998
O143  O     O_2   0.309404 0.338352 0.222948 -0.139892
O144  O     O_3   0.392730 0.416495 0.200351 -0.451379
H80   H     H_    0.407270 0.381151 0.177722 0.372798
S33   S     S_3+6 0.317809 0.681454 0.136151 0.144509
O145  O     O_2   0.315776 0.690515 0.202939 -0.070846
O146  O     O_2   0.263714 0.708641 0.106915 -0.207232
O147  O     O_3   0.320961 0.607593 0.120801 -0.489851
H81   H     H_    0.303038 0.603315 0.080397 0.329302
S34   S     S_3+6 0.404956 0.787708 0.679743 0.180726
O148  O     O_2   0.439123 0.732979 0.698807 -0.092699
O149  O     O_2   0.339245 0.776531 0.689188 -0.139944
O150  O     O_3   0.417775 0.799321 0.606221 -0.450831
H82   H     H_    0.382293 0.821550 0.591554 0.373398
S35   S     S_3+6 0.318994 0.317708 0.862670 0.145679
O151  O     O_2   0.316655 0.308194 0.795961 -0.072481
O152  O     O_2   0.264747 0.290945 0.892330 -0.202460
O153  O     O_3   0.322601 0.391697 0.877421 -0.488568
H83   H     H_    0.304681 0.396423 0.917821 0.331587
S36   S     S_3+6 0.397143 0.208823 0.319550 0.178378
O154  O     O_2   0.426748 0.265911 0.299500 -0.101153
O155  O     O_2   0.330715 0.214419 0.310686 -0.138796
O156  O     O_3   0.411636 0.199286 0.393030 -0.445899
H84   H     H_    0.379966 0.171886 0.407865 0.365102
S37   S     S_3+6 0.674054 0.321589 0.144569 0.143885
O157  O     O_2   0.675719 0.311139 0.211147 -0.074357
O158  O     O_2   0.729268 0.296851 0.115226 -0.208331
O159  O     O_3   0.668848 0.395740 0.131301 -0.484308
H85   H     H_    0.691371 0.402545 0.093594 0.334818
S38   S     S_3+6 0.602535 0.209482 0.681096 0.178529
O160  O     O_2   0.573686 0.266678 0.701778 -0.101691
O161  O     O_2   0.669094 0.214557 0.689435 -0.139527
O162  O     O_3   0.587319 0.200371 0.607684 -0.444894
H86   H     H_    0.618911 0.173268 0.592278 0.365896
S39   S     S_3+6 0.682437 0.681705 0.864810 0.144794
O163  O     O_2   0.684229 0.690265 0.797963 -0.071632
O164  O     O_2   0.736586 0.709363 0.893736 -0.206144
O165  O     O_3   0.679426 0.607952 0.880607 -0.490528
H87   H     H_    0.697172 0.604119 0.921122 0.329452
S40   S     S_3+6 0.594873 0.787845 0.319781 0.180212
O166  O     O_2   0.560710 0.733037 0.300511 -0.092785
O167  O     O_2   0.660590 0.776866 0.310388 -0.140513
O168  O     O_3   0.581969 0.799357 0.393321 -0.450396
H88   H     H_    0.617449 0.821663 0.408098 0.372989
S41   S     S_3+6 0.321594 0.852355 0.328313 0.144561
O169  O     O_2   0.310337 0.785950 0.326240 -0.072545
O170  O     O_2   0.297929 0.881934 0.272844 -0.211954
O171  O     O_3   0.395913 0.864748 0.334451 -0.481123
H89   H     H_    0.403726 0.901752 0.311198 0.334479
S42   S     S_3+6 0.207673 0.321321 0.396347 0.182606
O172  O     O_2   0.255128 0.317109 0.443934 -0.114294
O173  O     O_2   0.233157 0.298463 0.338401 -0.105133
O174  O     O_3   0.189152 0.393888 0.388024 -0.438931
H90   H     H_    0.159508 0.394333 0.355015 0.364311
S43   S     S_3+6 0.681619 0.137675 0.320375 0.145184
O175  O     O_2   0.689725 0.204549 0.319072 -0.075570
O176  O     O_2   0.709373 0.109343 0.265924 -0.201344
O177  O     O_3   0.607904 0.121230 0.323313 -0.489854
H91   H     H_    0.604224 0.080887 0.305105 0.330944
S44   S     S_3+6 0.791071 0.680221 0.397301 0.179094
O178  O     O_2   0.734194 0.700371 0.427251 -0.100823
O179  O     O_2   0.784945 0.688792 0.330860 -0.138464
O180  O     O_3   0.800667 0.606878 0.412080 -0.444443
H92   H     H_    0.828311 0.592043 0.380633 0.364569
S45   S     S_3+6 0.678340 0.854942 0.674143 0.143875
O181  O     O_2   0.688690 0.788418 0.675881 -0.073355
O182  O     O_2   0.703148 0.884249 0.729368 -0.209972
O183  O     O_3   0.604160 0.868234 0.668955 -0.483862
H93   H     H_    0.597488 0.906129 0.691133 0.333217
S46   S     S_3+6 0.792000 0.320904 0.603362 0.182015
O184  O     O_2   0.744471 0.316434 0.555850 -0.115365
O185  O     O_2   0.766604 0.298096 0.661351 -0.105324
O186  O     O_3   0.810535 0.393549 0.611642 -0.439079
H94   H     H_    0.840136 0.394177 0.644690 0.364549
S47   S     S_3+6 0.321663 0.147868 0.671242 0.144620
O187  O     O_2   0.310546 0.214247 0.673660 -0.073060
O188  O     O_2   0.297933 0.118025 0.726644 -0.210952
O189  O     O_3   0.395963 0.135602 0.664841 -0.481467
H95   H     H_    0.403795 0.098708 0.688205 0.335404
S48   S     S_3+6 0.208870 0.681113 0.603107 0.178893
O190  O     O_2   0.265840 0.701461 0.573385 -0.100943
O191  O     O_2   0.214738 0.689781 0.669580 -0.139111
O192  O     O_3   0.199383 0.607714 0.588235 -0.444429
H96   H     H_    0.171710 0.592789 0.619628 0.364482

loop_
_geom_bond_atom_site_label_1
_geom_bond_atom_site_label_2
_ccdc_geom_bond_type
S19   O105  S    
Cu2   Cu4   S    
O144  H80   S    
S23   O116  D    
C85   S11   S    
C38   H14   S    
C71   C122  A    
Cu12  O38   S    
C33   C166  A    
C11   C181  S    
S48   O192  S    
C39   C87   A    
C84   S16   S    
Cu9   O31   S    
S36   O155  D    
C112  S36   S    
S1    O49   D    
C130  C174  A    
C55   C130  A    
C53   C136  A    
C135  C173  A    
S20   O107  D    
S8    O72   S    
C24   O48   A    
C64   C112  A    
C18   O36   A    
C91   S21   S    
Cu12  O43   S    
C120  S44   S    
C11   O21   A    
S30   O138  S    
S21   O110  D    
C42   C159  A    
O147  H81   S    
C122  C170  A    
Cu7   O42   S    
C96   S20   S    
Cu8   O37   S    
S6    O64   D    
C60   H36   S    
C91   C100  A    
C134  C174  A    
C44   C92   A    
S16   O96   S    
C69   H45   S    
C14   O26   A    
S9    O74   D    
C47   C146  A    
C4    O8    A    
C40   H16   S    
C5    O9    A    
S39   O164  D    
C129  C173  A    
C26   H2    S    
C27   C75   A    
C2    O2    A    
C71   H47   S    
C8    C184  S    
C136  C149  A    
C37   C168  A    
C123  C156  A    
C18   C170  S    
C61   H37   S    
C26   C167  A    
S13   O87   S    
C15   C173  S    
C33   H9    S    
S44   O178  D    
S29   O135  S    
O57   H51   S    
O150  H82   S    
S12   O84   S    
Cu11  O40   S    
Cu1   O1    S    
C16   O32   A    
Cu12  O47   S    
S18   O101  D    
Cu5   O10   S    
C32   C80   A    
C61   C144  A    
C124  C172  A    
C113  S47   S    
Cu3   O22   S    
S2    O52   D    
C45   H21   S    
C68   C116  A    
C56   C141  A    
C20   C172  S    
S17   O97   D    
C28   H4    S    
S22   O113  D    
S18   O102  S    
Cu5   O17   S    
C24   C176  S    
C162  C190  A    
O171  H89   S    
Cu10  O30   S    
C66   H42   S    
S1    O51   S    
C27   C156  A    
C13   C175  S    
C46   C153  A    
C80   C117  A    
Cu12  O36   S    
S30   O137  D    
C122  C167  A    
C48   C96   A    
C65   C113  A    
Cu3   O7    S    
C2    C190  S    
S8    O70   D    
C47   C95   A    
C18   O34   A    
C68   C131  A    
C96   C109  A    
C168  C192  A    
C71   C119  A    
C20   O38   A    
S24   O118  D    
C40   C88   A    
Cu5   O16   S    
C80   S4    S    
C155  C187  A    
C72   C133  A    
C131  C164  A    
C3    O7    A    
C140  C180  A    
C63   C111  A    
S38   O160  D    
C125  C171  A    
C139  C179  A    
O105  H67   S    
C49   C97   A    
Cu8   Cu10  S    
C64   C125  A    
O84   H60   S    
C5    O11   A    
O189  H95   S    
C6    O12   A    
C166  C190  A    
O114  H70   S    
C57   H33   S    
C41   C89   A    
C136  C176  A    
O78   H58   S    
Cu8   O32   S    
C149  C183  A    
C105  S39   S    
C95   S17   S    
O120  H72   S    
C45   C93   A    
C76   C115  A    
S21   O109  D    
O153  H83   S    
S11   O81   S    
C73   C110  A    
S27   O128  D    
O126  H74   S    
C68   H44   S    
C154  C186  A    
C88   S12   S    
C57   C142  A    
C6    C182  S    
S4    O60   S    
C59   C140  A    
C39   H15   S    
S47   O188  D    
S48   O191  D    
S35   O152  D    
C48   H24   S    
O108  H68   S    
C145  C181  A    
C52   C139  A    
C17   O33   A    
O87   H61   S    
S38   O162  S    
C86   C97   A    
O93   H63   S    
C67   H43   S    
C144  C180  A    
C69   C128  A    
S32   O142  D    
C109  S35   S    
C23   C169  S    
Cu11  O45   S    
S17   O99   S    
O141  H79   S    
C19   C177  S    
S28   O132  S    
C90   S22   S    
C124  C163  A    
S5    O63   S    
S43   O177  S    
S41   O169  D    
C90   C111  A    
S44   O180  S    
C3    C185  S    
C127  C154  A    
S12   O83   D    
O159  H85   S    
S16   O95   D    
S37   O157  D    
C29   C160  A    
C1    C187  S    
C167  C189  A    
C139  C148  A    
C50   C98   A    
C51   H27   S    
C20   O40   A    
S24   O120  S    
C21   O41   A    
O111  H69   S    
C5    C191  S    
Cu11  O41   S    
C133  C168  A    
O69   H55   S    
O63   H53   S    
Cu6   O23   S    
C3    O5    A    
C52   C100  A    
C59   C107  A    
Cu8   O33   S    
C115  S45   S    
C79   C106  A    
O135  H77   S    
C42   C90   A    
C60   C123  A    
C43   H19   S    
C126  C170  A    
C133  C175  A    
S10   O77   D    
S27   O127  D    
C46   C94   A    
S15   O93   S    
C72   C120  A    
S40   O167  D    
O186  H94   S    
C6    O10   A    
C39   C162  A    
C7    O15   A    
S45   O182  D    
S14   O90   S    
C14   C178  S    
C82   S14   S    
O123  H73   S    
C77   S3    S    
S5    O61   D    
S25   O123  S    
Cu8   O26   S    
C121  C158  A    
S3    O56   D    
C19   O37   A    
C128  C165  A    
S46   O185  D    
C137  C150  A    
C54   H30   S    
S43   O175  D    
C130  C151  A    
C31   C154  A    
S10   O78   S    
S17   O98   D    
S33   O147  S    
S19   O104  D    
C9    O17   A    
C132  C147  A    
C7    C189  S    
C108  S40   S    
C29   H5    S    
C127  C169  A    
S28   O130  D    
C65   C126  A    
C159  C185  A    
O177  H91   S    
C36   H12   S    
C142  C178  A    
C70   C118  A    
S32   O144  S    
C75   S5    S    
C10   C186  S    
C50   H26   S    
C25   C73   A    
C143  C177  A    
Cu5   Cu6   S    
S7    O69   S    
C123  C171  A    
S31   O139  D    
C17   O35   A    
C83   S13   S    
C116  S48   S    
C47   H23   S    
O75   H57   S    
O81   H59   S    
C86   S10   S    
S41   O171  S    
C106  S38   S    
O192  H96   S    
C160  C188  A    
C56   H32   S    
S6    O65   D    
C34   C82   A    
C144  C157  A    
C42   H18   S    
S39   O163  D    
C35   H11   S    
C16   C180  S    
C141  C152  A    
C143  C146  A    
C94   C105  A    
Cu3   O3    S    
C4    C192  S    
C57   C105  A    
O156  H84   S    
C21   O43   A    
C37   H13   S    
Cu11  Cu12  S    
C22   O44   A    
S21   O111  S    
S5    O62   D    
O129  H75   S    
O96   H64   S    
C150  C182  A    
C50   C143  A    
Cu1   O24   S    
C135  C162  A    
S13   O86   D    
S25   O121  D    
O174  H90   S    
S29   O134  D    
C54   C137  A    
S26   O124  D    
S42   O173  D    
S15   O91   D    
C107  S37   S    
S37   O159  S    
S4    O59   D    
C132  C176  A    
C7    O13   A    
S14   O88   D    
C43   C148  A    
S11   O79   D    
C53   C101  A    
S2    O53   D    
C44   H20   S    
C126  C161  A    
C70   H46   S    
C60   C108  A    
C8    O16   A    
C92   S24   S    
S42   O174  S    
C156  C188  A    
C9    O19   A    
C75   C108  A    
C10   O20   A    
C32   C165  A    
O99   H65   S    
S23   O117  S    
C104  S28   S    
C25   H1    S    
C158  C186  A    
S36   O154  D    
S28   O131  D    
C151  C181  A    
Cu1   O5    S    
S1    O50   D    
C125  C160  A    
S2    O54   S    
C146  C182  A    
C157  C187  A    
O180  H92   S    
S20   O106  D    
C56   C104  A    
C8    O14   A    
C34   H10   S    
C12   O22   A    
C35   C83   A    
C41   C150  A    
C21   C171  S    
C81   C118  A    
Cu2   O2    S    
S24   O119  D    
C102  S26   S    
S35   O151  D    
C9    C183  S    
C81   S15   S    
Cu5   O21   S    
C36   C147  A    
O72   H56   S    
C98   S30   S    
C128  C172  A    
C74   S6    S    
Cu4   O6    S    
C94   S18   S    
C129  C166  A    
S44   O179  D    
C38   C86   A    
S34   O149  D    
O117  H71   S    
S39   O165  S    
C89   S23   S    
C22   O42   A    
C53   H29   S    
C23   O47   A    
C134  C145  A    
C65   H41   S    
C66   C114  A    
C141  C179  A    
C84   C99   A    
C54   C102  A    
Cu4   O11   S    
C55   H31   S    
C51   C132  A    
S11   O80   D    
Cu6   O14   S    
C64   H40   S    
S8    O71   D    
C48   C157  A    
Cu4   O4    S    
C35   C164  A    
C45   C152  A    
S18   O100  D    
S42   O172  D    
S7    O67   D    
Cu9   O27   S    
Cu6   O12   S    
C73   S7    S    
Cu10  O28   S    
Cu7   O25   S    
C114  S46   S    
C131  C175  A    
C165  C191  A    
C40   C149  A    
Cu2   O8    S    
S40   O168  S    
C49   H25   S    
C140  C155  A    
C66   C135  A    
S32   O143  D    
Cu10  O39   S    
C10   O18   A    
S23   O115  D    
Cu7   Cu9   S    
S22   O112  D    
S4    O58   D    
C30   C161  A    
S36   O156  S    
C41   H17   S    
C1    O3    A    
S31   O140  D    
C12   C188  S    
C121  C169  A    
C49   C134  A    
S43   O176  D    
S30   O136  D    
C89   C102  A    
C77   C112  A    
Cu2   O9    S    
O66   H54   S    
C15   O31   A    
S20   O108  S    
O132  H76   S    
C61   C109  A    
C67   C124  A    
C12   O24   A    
C88   C101  A    
S29   O133  D    
C95   C98   A    
C13   O25   A    
S19   O103  D    
C110  S34   S    
O54   H50   S    
C74   C119  A    
S26   O125  D    
C100  S32   S    
C37   C85   A    
C103  S25   S    
C32   H8    S    
C101  S27   S    
O168  H88   S    
Cu7   O29   S    
C55   C103  A    
C99   S29   S    
S47   O187  D    
C67   C115  A    
S12   O82   D    
C87   C114  A    
C137  C177  A    
C26   C74   A    
C138  C159  A    
C76   S8    S    
S15   O92   D    
S22   O114  S    
C82   C103  A    
C152  C184  A    
O162  H86   S    
C79   S1    S    
C23   O45   A    
C97   S31   S    
C93   S19   S    
O60   H52   S    
C119  S41   S    
C58   C127  A    
S25   O122  D    
Cu1   O18   S    
C117  S43   S    
S46   O186  S    
Cu2   O13   S    
S6    O66   S    
Cu3   O20   S    
C93   C104  A    
C22   C174  S    
C62   H38   S    
S27   O129  S    
S33   O146  D    
C51   C99   A    
S34   O150  S    
S47   O189  S    
S48   O190  D    
C161  C189  A    
S35   O153  S    
C52   H28   S    
C147  C183  A    
C70   C129  A    
Cu1   Cu3   S    
C78   S2    S    
C43   C91   A    
C58   C106  A    
C85   C120  A    
C59   H35   S    
C38   C145  A    
S33   O145  D    
C1    O1    A    
C24   O46   A    
C92   C107  A    
C62   C110  A    
C148  C184  A    
C63   H39   S    
C46   H22   S    
C29   C77   A    
C72   H48   S    
S7    O68   D    
C11   O23   A    
Cu6   O19   S    
Cu10  O35   S    
Cu11  O34   S    
O51   H49   S    
O138  H78   S    
S41   O170  D    
C118  S42   S    
C63   C138  A    
C15   O29   A    
C87   S9    S    
C138  C178  A    
C25   C158  A    
S16   O94   D    
C13   O27   A    
O90   H62   S    
S45   O181  D    
S9    O75   S    
C14   O28   A    
O165  H87   S    
C4    O6    A    
S46   O184  D    
C44   C155  A    
C83   C116  A    
C19   O39   A    
C2    O4    A    
C30   H6    S    
C163  C191  A    
C34   C151  A    
C31   C79   A    
S13   O85   D    
C111  S33   S    
S34   O148  D    
S31   O141  S    
C164  C192  A    
Cu9   O46   S    
C17   C179  S    
S10   O76   D    
O102  H66   S    
C153  C185  A    
S38   O161  D    
C36   C84   A    
Cu9   O44   S    
C69   C117  A    
S40   O166  D    
S37   O158  D    
C27   H3    S    
C142  C153  A    
C16   O30   A    
S45   O183  S    
S14   O89   D    
C30   C78   A    
C31   H7    S    
O183  H93   S    
C28   C163  A    
S3    O57   S    
S9    O73   D    
Cu7   O48   S    
Cu4   O15   S    
C58   H34   S    
C33   C81   A    
C78   C113  A    
C62   C121  A    
S3    O55   D    
S26   O126  S    
C28   C76   A    
