data_mof_unit_30753.cif
_audit_creation_date              2012-12-10T19:52:14-0500
_audit_creation_method            fapswitch 2.2
_symmetry_space_group_name_H-M    P1
_symmetry_Int_Tables_number       1
_space_group_crystal_system       triclinic
_cell_length_a                    15.015255
_cell_length_b                    14.112673
_cell_length_c                    10.682813
_cell_angle_alpha                 90.061085
_cell_angle_beta                  90.135636
_cell_angle_gamma                 89.899394
_cell_volume                      2263.73447969

loop_
_atom_site_label
_atom_site_type_symbol
_atom_type_description
_atom_site_fract_x
_atom_site_fract_y
_atom_site_fract_z
_atom_type_partial_charge
C1    C     C_R   0.327166 0.499953 0.501008 0.959024
C2    C     C_3   0.587479 0.439085 0.926213 0.670282
C3    C     C_R   0.093298 0.589377 0.520074 0.281978
C4    C     C_R   0.089516 0.423760 0.450815 0.347604
C5    C     C_R   0.184168 0.581355 0.540821 0.414033
C6    C     C_R   0.182778 0.421485 0.452372 0.318915
C7    C     C_R   0.230204 0.500345 0.498865 -0.416449
C8    C     C_R   0.045532 0.508844 0.480076 -0.240303
C9    C     C_R   0.900467 0.478954 0.379113 -0.071732
C10   C     C_R   0.905845 0.534731 0.594931 -0.144062
C11   C     C_R   0.808835 0.472736 0.386619 -0.189190
C12   C     C_R   0.813986 0.532856 0.600097 -0.213600
C13   C     C_R   0.766321 0.500544 0.496514 -0.019038
C14   C     C_R   0.949045 0.508859 0.483872 0.202414
C15   C     C_R   0.456571 0.104695 0.403495 0.366962
C16   C     C_R   0.427026 0.896634 0.543468 0.370641
C17   C     C_R   0.502482 0.500027 0.257583 0.977782
C18   C     C_R   0.455253 0.204874 0.408819 -0.108899
C19   C     C_R   0.427567 0.796724 0.541167 -0.120748
C20   C     C_R   0.547092 0.204572 0.588761 -0.124977
C21   C     C_R   0.572553 0.794888 0.456058 -0.140280
C22   C     C_R   0.547783 0.103856 0.591815 0.351127
C23   C     C_R   0.574174 0.895227 0.451394 0.388544
C24   C     C_R   0.501794 0.053601 0.497532 0.030414
C25   C     C_R   0.501057 0.947067 0.497651 0.022010
C26   C     C_R   0.671745 0.499994 0.500651 0.876370
C27   C     C_R   0.501533 0.500036 0.742438 0.942829
C28   C     C_3   0.507836 0.603836 0.072496 -0.522179
C29   C     C_3   0.418397 0.453432 0.072700 -0.650167
C30   C     C_3   0.512355 0.603845 0.929400 0.170536
C31   C     C_3   0.415548 0.458132 0.929023 0.194701
C32   C     C_3   0.590824 0.445582 0.073507 0.746978
C33   C     C_3   0.505400 0.499843 0.121420 -0.072702
C34   C     C_3   0.505444 0.499389 0.878707 -0.111187
H1    H     H_    0.564717 0.643609 0.113873 0.237156
H2    H     H_    0.411991 0.379513 0.106513 0.188259
H3    H     H_    0.771025 0.447894 0.306849 0.176392
H4    H     H_    0.780304 0.555435 0.684579 0.177179
H5    H     H_    0.418901 0.245255 0.339808 0.147030
H6    H     H_    0.369692 0.758591 0.572568 0.218406
H7    H     H_    0.584601 0.245248 0.656356 0.171811
H8    H     H_    0.629515 0.754728 0.424265 0.162696
H9    H     H_    0.446451 0.642191 0.102311 0.179353
H10   H     H_    0.359643 0.492156 0.110779 0.172805
H11   H     H_    0.453339 0.644280 0.895833 0.147891
H12   H     H_    0.361630 0.508696 0.903380 0.126964
H13   H     H_    0.933617 0.459304 0.292899 0.159232
H14   H     H_    0.943280 0.556656 0.676791 0.164061
N1    N     N_R   0.499980 0.252470 0.500000 -0.117159
N2    N     N_R   0.499980 0.747530 0.500000 -0.130497
O1    O     O_R   0.369070 0.579480 0.500010 -0.600491
O2    O     O_R   0.369070 0.420520 0.500010 -0.568044
O3    O     O_R   0.499990 0.579480 0.314790 -0.637602
O4    O     O_R   0.499990 0.420520 0.314790 -0.617107
O5    O     O_R   0.630940 0.579480 0.499990 -0.613663
O6    O     O_R   0.630940 0.420520 0.499990 -0.611447
O7    O     O_R   0.500020 0.579480 0.685200 -0.602658
O8    O     O_R   0.500020 0.420520 0.685200 -0.557339
Zn1   Zn    Zn3+2 0.500010 0.606140 0.500000 0.980135
Zn2   Zn    Zn3+2 0.500010 0.393860 0.500000 1.009551
O9    O     O_3   0.409887 0.055524 0.312166 -0.583802
C35   C     C_3   0.441598 0.080242 0.192075 0.085958
H15   H     H_    0.515816 0.079605 0.188354 0.137849
H16   H     H_    0.416761 0.151423 0.164225 0.130658
C36   C     C_3   0.407073 0.008776 0.097115 -0.823624
H17   H     H_    0.333183 0.006275 0.100135 0.269409
H18   H     H_    0.428032 0.029760 0.001536 0.199626
H19   H     H_    0.434167 0.937264 0.118285 0.249915
O10   O     O_3   0.351813 0.944260 0.583349 -0.564239
C37   C     C_3   0.358733 0.959239 0.713662 0.079665
H20   H     H_    0.417111 0.004421 0.736507 0.149285
H21   H     H_    0.365040 0.890965 0.764959 0.138074
C38   C     C_3   0.275450 0.009859 0.759313 -0.758409
H22   H     H_    0.215639 0.966329 0.738663 0.267231
H23   H     H_    0.279808 0.021624 0.861898 0.198231
H24   H     H_    0.268835 0.079522 0.711858 0.270951
O11   O     O_3   0.596449 0.051923 0.679242 -0.585051
C39   C     C_3   0.593482 0.092794 0.800017 0.097574
H25   H     H_    0.645114 0.148774 0.808220 0.166576
H26   H     H_    0.526651 0.123074 0.822183 0.134701
C40   C     C_3   0.613974 0.016687 0.896583 -0.820959
H27   H     H_    0.681616 0.987172 0.880608 0.275100
H28   H     H_    0.611143 0.047741 0.991996 0.204141
H29   H     H_    0.564394 0.958580 0.889645 0.252370
O12   O     O_3   0.648297 0.943632 0.408787 -0.574868
C41   C     C_3   0.663423 0.921730 0.281495 0.075115
H30   H     H_    0.695793 0.851125 0.272682 0.150403
H31   H     H_    0.600486 0.922480 0.225691 0.132988
C42   C     C_3   0.725674 0.995457 0.226235 -0.769439
H32   H     H_    0.789234 0.996942 0.279581 0.273798
H33   H     H_    0.740247 0.977659 0.127115 0.206748
H34   H     H_    0.694079 0.066627 0.230335 0.249945
O13   O     O_3   0.587781 0.652451 0.883902 -0.707502
H35   H     H_    0.640084 0.637099 0.936886 0.396470
O14   O     O_3   0.391550 0.370690 0.874236 -0.715798
H36   H     H_    0.422576 0.318444 0.918316 0.373476
O15   O     O_3   0.666078 0.498090 0.111290 -0.787057
H37   H     H_    0.719531 0.458372 0.095244 0.368689
O16   O     O_3   0.598086 0.354477 0.128264 -0.782440
H38   H     H_    0.544887 0.316595 0.106153 0.320794
O17   O     O_3   0.667175 0.475256 0.874826 -0.799725
H39   H     H_    0.670535 0.454618 0.786124 0.331547
O18   O     O_3   0.578083 0.343794 0.887921 -0.836081
H40   H     H_    0.635906 0.311465 0.903158 0.344663
O19   O     O_3   0.053409 0.675652 0.545285 -0.716884
H41   H     H_    0.996671 0.680041 0.498226 0.342395
O20   O     O_3   0.039532 0.344157 0.422361 -0.749660
H42   H     H_    0.078507 0.287684 0.417399 0.380631
O21   O     O_3   0.227632 0.653466 0.603759 -0.550463
C43   C     C_3   0.222578 0.633740 0.733302 0.158112
H43   H     H_    0.257362 0.566069 0.755510 0.106731
H44   H     H_    0.151993 0.628949 0.764842 0.161794
C44   C     C_3   0.266899 0.712804 0.807043 -0.862076
H45   H     H_    0.233139 0.781227 0.787212 0.279513
H46   H     H_    0.262396 0.697715 0.908833 0.202475
H47   H     H_    0.338110 0.717978 0.781058 0.234549
O22   O     O_3   0.226512 0.340432 0.413055 -0.575007
C45   C     C_3   0.240867 0.345518 0.282407 0.087272
H48   H     H_    0.309383 0.371538 0.266422 0.151337
H49   H     H_    0.193674 0.393340 0.231545 0.127467
C46   C     C_3   0.231924 0.247032 0.225586 -0.807015
H50   H     H_    0.161231 0.224214 0.228016 0.257917
H51   H     H_    0.254741 0.248040 0.126773 0.212428
H52   H     H_    0.272494 0.195113 0.278866 0.284986

loop_
_geom_bond_atom_site_label_1
_geom_bond_atom_site_label_2
_ccdc_geom_bond_type
C15   C18   A    
O13   H35   S    
O5    Zn1   S    
C38   H22   S    
C30   H11   S    
O14   H36   S    
C19   N2    A    
C4    C8    A    
C26   O5    A    
O15   H37   S    
O3    Zn1   S    
O4    Zn2   S    
O11   C39   S    
C3    O19   S    
C29   H2    S    
C35   H15   S    
N1    Zn2   S    
N2    Zn1   S    
C30   O13   S    
C39   H26   S    
O7    Zn1   S    
O8    Zn2   S    
C29   C33   S    
C32   O15   S    
C2    C32   S    
C11   H3    S    
C45   H48   S    
C46   H52   S    
C35   H16   S    
O2    Zn2   S    
C43   H43   S    
C28   H1    S    
C36   H18   S    
C31   H12   S    
O20   H42   S    
C37   H20   S    
C42   H33   S    
C6    O22   S    
C44   H47   S    
C2    C34   S    
C1    C7    S    
C38   H23   S    
O9    C35   S    
C17   C33   S    
C21   N2    A    
C40   H28   S    
C20   H7    S    
C45   H49   S    
C27   C34   S    
C4    O20   S    
C30   C34   S    
O17   H39   S    
C24   C25   S    
C4    C6    A    
C3    C8    A    
C27   O7    A    
C5    C7    A    
C9    C14   A    
C39   H25   S    
C2    O17   S    
O12   C41   S    
C41   C42   S    
C40   H27   S    
O6    Zn2   S    
C45   C46   S    
C18   H5    S    
C20   N1    A    
C1    O1    A    
O16   H38   S    
C36   H19   S    
C37   C38   S    
C15   O9    S    
C31   C34   S    
C42   H34   S    
C9    C11   A    
C43   C44   S    
C46   H50   S    
C10   C12   A    
C15   C24   A    
C20   C22   A    
C28   C33   S    
C9    H13   S    
C21   C23   A    
C29   H10   S    
C10   H14   S    
C38   H24   S    
C22   C24   A    
C13   C26   S    
O1    Zn1   S    
C17   O3    A    
C40   H29   S    
C44   H45   S    
C16   C25   A    
C8    C14   S    
C35   C36   S    
C41   H30   S    
C16   O10   S    
C22   O11   S    
C3    C5    A    
C27   O8    A    
C26   O6    A    
C6    C7    A    
O19   H41   S    
C28   H9    S    
C32   O16   S    
C32   C33   S    
C28   C30   S    
C29   C31   S    
O22   C45   S    
C11   C13   A    
C39   C40   S    
C5    O21   S    
C2    O18   S    
C16   C19   A    
C31   O14   S    
C41   H31   S    
C23   C25   A    
C12   H4    S    
O10   C37   S    
C1    O2    A    
C43   H44   S    
C46   H51   S    
C19   H6    S    
C21   H8    S    
C12   C13   A    
C36   H17   S    
C23   O12   S    
O18   H40   S    
C37   H21   S    
C42   H32   S    
O21   C43   S    
C17   O4    A    
C18   N1    A    
C10   C14   A    
C44   H46   S    
