data_mof_unit_47260.cif
_audit_creation_date              2012-12-10T20:36:39-0500
_audit_creation_method            fapswitch 2.2
_symmetry_space_group_name_H-M    P1
_symmetry_Int_Tables_number       1
_space_group_crystal_system       triclinic
_cell_length_a                    10.491901
_cell_length_b                    10.666698
_cell_length_c                    9.898121
_cell_angle_alpha                 90.2349
_cell_angle_beta                  89.616876
_cell_angle_gamma                 90.448991
_cell_volume                      1107.66986388

loop_
_atom_site_label
_atom_site_type_symbol
_atom_type_description
_atom_site_fract_x
_atom_site_fract_y
_atom_site_fract_z
_atom_type_partial_charge
C1    C     C_R   0.503123 0.260157 0.499890 0.893130
C2    C     C_R   0.506954 0.936783 0.622633 0.176952
C3    C     C_3   0.402824 0.929272 0.726260 -0.471729
C4    C     C_R   0.257486 0.501036 0.500525 0.913359
C5    C     C_3   0.402854 0.071377 0.726147 -0.492941
C6    C     C_R   0.430566 0.412669 0.071120 0.199560
C7    C     C_R   0.577910 0.577651 0.072899 -0.167868
C8    C     C_R   0.578601 0.578063 0.929715 0.193675
C9    C     C_R   0.430452 0.412757 0.928846 0.173040
C10   C     C_3   0.289573 0.394384 0.924625 -0.521082
C11   C     C_3   0.289811 0.393555 0.078052 -0.458897
C12   C     C_3   0.960826 0.487383 0.370028 -0.245994
C13   C     C_R   0.503347 0.739899 0.500186 0.880339
C14   C     C_R   0.742545 0.499479 0.499380 0.888744
C15   C     C_3   0.038867 0.514479 0.628366 -0.173210
C16   C     C_3   0.956732 0.403885 0.575907 -0.271442
C17   C     C_3   0.877491 0.499332 0.497779 -0.032647
C18   C     C_3   0.956841 0.609572 0.550810 -0.122054
C19   C     C_3   0.043107 0.597260 0.424225 -0.246411
C20   C     C_3   0.002595 0.199719 0.356021 0.087392
C21   C     C_3   0.064722 0.079512 0.306426 -0.809871
C22   C     C_3   0.041410 0.394119 0.449430 0.514962
C23   C     C_3   0.122490 0.502096 0.501670 -0.044019
C24   C     C_R   0.506885 0.064485 0.622421 0.135709
C25   C     C_R   0.520809 0.128749 0.501118 -0.105488
C26   C     C_R   0.557295 0.064826 0.383223 -0.235441
C27   C     C_R   0.557595 0.935126 0.383486 -0.224859
C28   C     C_R   0.521230 0.871603 0.501598 -0.104023
H1    H     H_    0.916951 0.325250 0.636496 0.142334
H2    H     H_    0.073367 0.527402 0.733123 0.156954
H3    H     H_    0.917185 0.698247 0.591644 0.163161
H4    H     H_    0.083202 0.676028 0.364046 0.154883
H5    H     H_    0.925082 0.475583 0.265381 0.152635
H6    H     H_    0.577862 0.113963 0.289913 0.171574
H7    H     H_    0.578387 0.885500 0.290284 0.175392
H8    H     H_    0.313519 0.886965 0.685962 0.195914
H9    H     H_    0.947071 0.239908 0.271321 0.140678
H10   H     H_    0.936826 0.175403 0.440885 0.137051
H11   H     H_    0.120392 0.036642 0.389156 0.254090
H12   H     H_    0.436272 0.888926 0.823014 0.225493
H13   H     H_    0.990240 0.011852 0.273036 0.207938
H14   H     H_    0.129542 0.100041 0.219989 0.251761
H15   H     H_    0.313518 0.112012 0.685908 0.209427
H16   H     H_    0.436521 0.113160 0.822746 0.208323
H17   H     H_    0.638820 0.641876 0.128078 0.168372
H18   H     H_    0.239952 0.476756 0.882234 0.214994
H19   H     H_    0.262318 0.302539 0.879448 0.203383
H20   H     H_    0.239209 0.474772 0.123611 0.222868
H21   H     H_    0.263624 0.300904 0.121592 0.217835
I1    I     I_    0.705741 0.707919 0.838944 -0.430573
N1    N     N_R   0.499140 0.499140 0.142800 -0.122314
N2    N     N_R   0.499140 0.499180 0.857150 -0.122828
O1    O     O_R   0.500020 0.316790 0.614690 -0.618453
O2    O     O_R   0.500000 0.316760 0.385350 -0.616603
O3    O     O_R   0.313960 0.499990 0.614650 -0.634603
O4    O     O_R   0.313940 0.499950 0.385310 -0.606442
O5    O     O_R   0.500000 0.683240 0.614650 -0.591994
O6    O     O_R   0.499980 0.683210 0.385310 -0.630139
O7    O     O_R   0.686060 0.500050 0.614690 -0.588303
O8    O     O_R   0.686040 0.500010 0.385350 -0.636658
O9    O     O_3   0.098391 0.284148 0.398499 -0.623022
Zn1   Zn    Zn3+2 0.500010 0.500020 0.653130 0.969234
Zn2   Zn    Zn3+2 0.499990 0.499980 0.346870 0.948753

loop_
_geom_bond_atom_site_label_1
_geom_bond_atom_site_label_2
_ccdc_geom_bond_type
C12   C17   S    
C10   H18   S    
C15   C18   S    
C19   C23   S    
C1    O2    A    
C13   C28   S    
C11   H21   S    
C12   C22   S    
C6    N1    A    
C20   H10   S    
C9    C10   S    
C8    N2    A    
C21   H11   S    
N1    Zn2   S    
C27   H7    S    
C6    C9    A    
C15   C23   S    
C2    C3    S    
C5    H15   S    
O4    Zn2   S    
C7    N1    A    
C7    C8    A    
N2    Zn1   S    
C4    O4    A    
C22   O9    S    
C1    C25   S    
C20   H9    S    
C9    N2    A    
C14   C17   S    
C26   C27   A    
C21   H14   S    
C5    C24   S    
C3    H8    S    
C12   H5    S    
O8    Zn2   S    
C21   H13   S    
C19   H4    S    
C7    H17   S    
C12   C19   S    
C24   C25   A    
C5    H16   S    
C3    H12   S    
C17   C18   S    
C10   C11   S    
C6    C11   S    
C4    O3    A    
C2    C24   A    
C10   H19   S    
C13   O5    A    
O2    Zn2   S    
C15   C16   S    
O3    Zn1   S    
C8    I1    S    
C27   C28   A    
C14   O8    A    
C20   C21   S    
C16   H1    S    
C15   H2    S    
O1    Zn1   S    
C18   C19   S    
C11   H20   S    
C20   O9    S    
C13   O6    A    
C4    C23   S    
C1    O1    A    
C22   C23   S    
O7    Zn1   S    
C2    C28   A    
C18   H3    S    
O5    Zn1   S    
C25   C26   A    
C26   H6    S    
C14   O7    A    
O6    Zn2   S    
C16   C22   S    
C16   C17   S    
C3    C5    S    
