data_mof_unit_28471.cif
_audit_creation_date              2012-12-10T18:19:51-0500
_audit_creation_method            fapswitch 2.2
_symmetry_space_group_name_H-M    P1
_symmetry_Int_Tables_number       1
_space_group_crystal_system       triclinic
_cell_length_a                    14.874139
_cell_length_b                    14.274334
_cell_length_c                    14.043325
_cell_angle_alpha                 89.999941
_cell_angle_beta                  85.840183
_cell_angle_gamma                 90.000279
_cell_volume                      2973.80179957

loop_
_atom_site_label
_atom_site_type_symbol
_atom_type_description
_atom_site_fract_x
_atom_site_fract_y
_atom_site_fract_z
_atom_type_partial_charge
C1    C     C_R   0.327260 0.500146 0.503077 0.864149
C2    C     C_R   0.967518 0.509829 0.323167 0.099921
C3    C     C_R   0.552820 0.799285 0.432563 0.076125
C4    C     C_R   0.447467 0.201160 0.568647 0.048970
C5    C     C_R   0.447179 0.799284 0.567437 0.076132
C6    C     C_R   0.552532 0.201161 0.431353 0.048973
C7    C     C_R   0.437996 0.898772 0.559779 -0.088894
C8    C     C_R   0.556951 0.100131 0.431602 -0.084081
C9    C     C_R   0.562002 0.898773 0.440219 -0.088892
C10   C     C_R   0.443044 0.100130 0.568395 -0.084083
C11   C     C_R   0.499999 0.949509 0.499999 0.004608
C12   C     C_R   0.672740 0.500146 0.496923 0.864152
C13   C     C_R   0.499998 0.050401 0.499999 0.023076
C14   C     C_R   0.371158 0.949087 0.613517 0.144398
C15   C     C_R   0.618120 0.045240 0.369654 0.120499
C16   C     C_R   0.628837 0.949089 0.386479 0.144396
C17   C     C_R   0.381872 0.045238 0.630340 0.120497
C18   C     C_R   0.499245 0.500103 0.329625 0.895773
C19   C     C_R   0.500755 0.500103 0.670375 0.895771
C20   C     C_1   0.496995 0.500619 0.228312 -0.181572
C21   C     C_1   0.503005 0.500619 0.771688 -0.181559
C22   C     C_1   0.496674 0.501172 0.142857 -0.029988
C23   C     C_R   0.953228 0.506799 0.499202 0.018898
C24   C     C_1   0.503327 0.501172 0.857143 -0.029985
C25   C     C_1   0.498757 0.501584 0.042797 -0.035643
C26   C     C_1   0.501245 0.501584 0.957203 -0.035648
C27   C     C_R   0.819737 0.508072 0.410920 -0.257060
C28   C     C_R   0.180263 0.508074 0.589079 -0.257066
C29   C     C_R   0.768048 0.501242 0.496797 -0.048335
C30   C     C_R   0.231952 0.501240 0.503203 -0.048336
C31   C     C_R   0.805944 0.499854 0.583589 -0.226599
C32   C     C_R   0.194056 0.499850 0.416411 -0.226591
C33   C     C_R   0.899044 0.504584 0.586706 0.051647
C34   C     C_R   0.046772 0.506798 0.500798 0.018898
C35   C     C_R   0.100956 0.504581 0.413294 0.051647
C36   C     C_R   0.881376 0.506093 0.766482 0.139260
C37   C     C_R   0.842138 0.589524 0.802506 -0.114012
C38   C     C_R   0.786777 0.588564 0.887429 -0.113017
C39   C     C_R   0.770315 0.504490 0.936724 -0.086448
C40   C     C_R   0.809082 0.421195 0.901089 -0.109057
C41   C     C_R   0.864301 0.421790 0.816062 -0.117897
C42   C     C_R   0.118624 0.506088 0.233518 0.139256
C43   C     C_R   0.157843 0.589521 0.197481 -0.113991
C44   C     C_R   0.213205 0.588562 0.112559 -0.113004
C45   C     C_R   0.913364 0.508443 0.410168 0.078797
C46   C     C_R   0.229687 0.504484 0.063278 -0.086455
C47   C     C_R   0.190939 0.421186 0.098926 -0.109073
C48   C     C_R   0.135719 0.421782 0.183952 -0.117912
C49   C     C_R   0.578305 0.755378 0.338865 0.165874
C50   C     C_R   0.654927 0.698422 0.323321 -0.064326
C51   C     C_R   0.679290 0.663489 0.232069 -0.149651
C52   C     C_R   0.627964 0.685228 0.155679 -0.087223
C53   C     C_R   0.551166 0.741012 0.170588 -0.116061
C54   C     C_R   0.526396 0.775978 0.261687 -0.139841
C55   C     C_R   0.393922 0.255023 0.641908 0.184189
C56   C     C_R   0.086636 0.508445 0.589832 0.078805
C57   C     C_R   0.429493 0.274050 0.730071 -0.083197
C58   C     C_R   0.375913 0.317374 0.803340 -0.136244
C59   C     C_R   0.286845 0.341491 0.789378 -0.106800
C60   C     C_R   0.250669 0.321257 0.702537 -0.125926
C61   C     C_R   0.303927 0.278352 0.628796 -0.085977
C62   C     C_R   0.421698 0.755379 0.661137 0.165869
C63   C     C_R   0.345078 0.698419 0.676686 -0.064321
C64   C     C_R   0.320720 0.663486 0.767938 -0.149654
C65   C     C_R   0.372048 0.685230 0.844326 -0.087227
C66   C     C_R   0.448843 0.741018 0.829412 -0.116063
C67   C     C_R   0.938418 0.506606 0.675198 -0.059497
C68   C     C_R   0.473610 0.775983 0.738312 -0.139850
C69   C     C_R   0.606091 0.255025 0.358100 0.184188
C70   C     C_R   0.570530 0.274069 0.269936 -0.083172
C71   C     C_R   0.624124 0.317391 0.196675 -0.136264
C72   C     C_R   0.713195 0.341485 0.210647 -0.106803
C73   C     C_R   0.749361 0.321234 0.297489 -0.125900
C74   C     C_R   0.696089 0.278333 0.371222 -0.086000
C75   C     C_R   0.061582 0.506601 0.324803 -0.059499
C76   C     C_R   0.032482 0.509833 0.676833 0.099923
H1    H     H_    0.785536 0.511217 0.345736 0.150651
H2    H     H_    0.145742 0.654925 0.235350 0.150094
H3    H     H_    0.243434 0.652957 0.085014 0.136116
H4    H     H_    0.272520 0.503842 0.997564 0.127906
H5    H     H_    0.203862 0.356138 0.060749 0.142066
H6    H     H_    0.106363 0.356833 0.211261 0.145388
H7    H     H_    0.698350 0.685043 0.380150 0.164582
H8    H     H_    0.738672 0.620669 0.220192 0.166928
H9    H     H_    0.647407 0.658409 0.085084 0.127046
H10   H     H_    0.511026 0.757425 0.111506 0.131115
H11   H     H_    0.467220 0.820087 0.272024 0.131885
H12   H     H_    0.214464 0.511223 0.654263 0.150644
H13   H     H_    0.497915 0.253888 0.742301 0.130168
H14   H     H_    0.402887 0.330550 0.871567 0.144343
H15   H     H_    0.245399 0.373787 0.846743 0.159052
H16   H     H_    0.180779 0.337022 0.692983 0.164842
H17   H     H_    0.274584 0.261137 0.562624 0.140378
H18   H     H_    0.301654 0.685036 0.619858 0.164583
H19   H     H_    0.261341 0.620663 0.779819 0.166925
H20   H     H_    0.352608 0.658411 0.914922 0.127045
H21   H     H_    0.488985 0.757434 0.888492 0.131115
H22   H     H_    0.532783 0.820094 0.727972 0.131883
H23   H     H_    0.761525 0.495998 0.648176 0.137387
H24   H     H_    0.502105 0.253922 0.257698 0.130175
H25   H     H_    0.597157 0.330580 0.128446 0.144344
H26   H     H_    0.754651 0.373778 0.153286 0.159071
H27   H     H_    0.819253 0.336986 0.307051 0.164836
H28   H     H_    0.725423 0.261106 0.437396 0.140369
H29   H     H_    0.238475 0.495992 0.351825 0.137387
H30   H     H_    0.854224 0.654925 0.764626 0.150091
H31   H     H_    0.756533 0.652957 0.914964 0.136109
H32   H     H_    0.727485 0.503848 0.002440 0.127908
H33   H     H_    0.796176 0.356149 0.939277 0.142068
H34   H     H_    0.893671 0.356842 0.788763 0.145391
I1    I     I_    0.089088 0.516896 0.813137 -0.439694
I2    I     I_    0.910914 0.516887 0.186862 -0.439711
I3    I     I_    0.237854 0.891592 0.635709 -0.306494
I4    I     I_    0.687600 0.084057 0.235828 -0.332610
I5    I     I_    0.762143 0.891604 0.364280 -0.306504
I6    I     I_    0.312369 0.084061 0.764152 -0.332599
N1    N     N_R   0.500000 0.750030 0.500000 -0.133440
N2    N     N_R   0.500000 0.249970 0.500000 -0.135647
O1    O     O_R   0.367850 0.580280 0.500020 -0.620616
O2    O     O_R   0.632150 0.419720 0.499980 -0.613769
O3    O     O_R   0.632150 0.580280 0.499980 -0.620620
O4    O     O_R   0.367850 0.419720 0.500020 -0.613777
O5    O     O_R   0.500000 0.580290 0.373720 -0.593657
O6    O     O_R   0.500000 0.419710 0.626280 -0.603577
O7    O     O_R   0.500000 0.580290 0.626280 -0.593661
O8    O     O_R   0.500000 0.419710 0.373720 -0.603584
Zn1   Zn    Zn3+2 0.500000 0.607200 0.500000 0.944150
Zn2   Zn    Zn3+2 0.500000 0.392800 0.500000 0.935922

loop_
_geom_bond_atom_site_label_1
_geom_bond_atom_site_label_2
_ccdc_geom_bond_type
C6    C69   S    
C66   C68   A    
C34   C56   A    
C8    C13   A    
C56   C76   A    
C12   C29   S    
C27   C29   A    
C73   C74   A    
C3    C49   S    
C36   C67   S    
C53   C54   A    
C43   H2    S    
C7    C11   A    
C63   H18   S    
C35   C75   A    
C42   C75   S    
C37   C38   A    
C57   H13   S    
C23   C45   A    
C66   H21   S    
C36   C37   A    
C19   C21   S    
C9    C16   A    
C24   C26   S    
O3    Zn1   S    
C54   H11   S    
C61   H17   S    
C10   C17   A    
C15   C16   A    
C34   C35   A    
C1    O1    A    
C38   H31   S    
C1    O4    A    
C3    N1    A    
C12   O2    A    
C7    C14   A    
C12   O3    A    
C70   H24   S    
C23   C33   A    
C22   C25   S    
C28   H12   S    
C31   C33   A    
C53   H10   S    
C31   H23   S    
C18   O5    A    
O6    Zn2   S    
C27   C45   A    
C71   H25   S    
C59   C60   A    
C14   C17   A    
C4    N2    A    
C36   C41   A    
N2    Zn2   S    
C44   C46   A    
C50   H7    S    
C60   H16   S    
C2    C45   A    
C28   C56   A    
C39   H32   S    
C19   O6    A    
C51   C52   A    
C32   C35   A    
C39   C40   A    
C5    C7    A    
C42   C48   A    
C25   C26   T    
C19   O7    A    
C5    N1    A    
C60   C61   A    
C43   C44   A    
C62   C63   A    
C3    C9    A    
N1    Zn1   S    
O5    Zn1   S    
C47   C48   A    
C23   C34   A    
C2    I2    S    
C50   C51   A    
C15   I4    S    
C69   C74   A    
C59   H15   S    
C9    C11   A    
C70   C71   A    
C58   H14   S    
C40   C41   A    
C20   C22   T    
C65   C66   A    
C8    C15   A    
C41   H34   S    
C55   C57   A    
C4    C55   S    
C42   C43   A    
C4    C10   A    
C16   I5    S    
C52   C53   A    
C65   H20   S    
C74   H28   S    
C46   C47   A    
C52   H9    S    
O8    Zn2   S    
C44   H3    S    
C64   H19   S    
C72   C73   A    
C27   H1    S    
C10   C13   A    
C6    C8    A    
O2    Zn2   S    
C40   H33   S    
C14   I3    S    
C62   C68   A    
C32   H29   S    
C64   C65   A    
C28   C30   A    
C58   C59   A    
C37   H30   S    
C29   C31   A    
C33   C67   A    
C18   O8    A    
C30   C32   A    
C11   C13   A    
C57   C58   A    
C38   C39   A    
C72   H26   S    
C76   I1    S    
C55   C61   A    
C1    C30   S    
C48   H6    S    
C5    C62   S    
C18   C20   S    
C47   H5    S    
O4    Zn2   S    
C69   C70   A    
C68   H22   S    
C63   C64   A    
C73   H27   S    
C71   C72   A    
C49   C50   A    
C21   C24   T    
O7    Zn1   S    
C67   C76   A    
C46   H4    S    
C51   H8    S    
C6    N2    A    
C2    C75   A    
C49   C54   A    
C17   I6    S    
O1    Zn1   S    
