data_mof_unit_59145.cif
_audit_creation_date              2013-03-05T15:45:40-0500
_audit_creation_method            fapswitch 2.2
_symmetry_space_group_name_H-M    P1
_symmetry_Int_Tables_number       1
_space_group_crystal_system       triclinic
_cell_length_a                    15.033975
_cell_length_b                    11.014877
_cell_length_c                    9.940756
_cell_angle_alpha                 111.429277
_cell_angle_beta                  98.037583
_cell_angle_gamma                 92.757554
_cell_volume                      1508.49755861

loop_
_atom_site_label
_atom_site_type_symbol
_atom_site_description
_atom_site_fract_x
_atom_site_fract_y
_atom_site_fract_z
_atom_type_partial_charge
O1    O     O_R   0.508410 0.332340 0.577400 -0.577716
O2    O     O_R   0.491590 0.667660 0.422600 -0.571524
O3    O     O_R   0.481780 0.295500 0.332650 -0.524573
O4    O     O_R   0.518220 0.704500 0.667350 -0.513854
C1    C     C_R   0.493821 0.253674 0.439696 0.713879
C2    C     C_R   0.508963 0.746321 0.560108 0.721218
O5    O     O_R   0.383570 0.518390 0.622380 -0.540632
O6    O     O_R   0.616430 0.481610 0.377620 -0.541664
O7    O     O_R   0.356940 0.481550 0.377630 -0.545172
O8    O     O_R   0.643060 0.518450 0.622370 -0.568215
C3    C     C_R   0.329441 0.498140 0.500695 0.806459
C4    C     C_R   0.670555 0.501951 0.499329 0.798829
Cu1   Cu    Cu3+1 0.515770 0.521810 0.644910 1.110876
Cu2   Cu    Cu3+1 0.484230 0.478190 0.355090 1.124901
C5    C     C_R   0.825572 0.615762 0.589301 0.064231
C6    C     C_R   0.174396 0.384235 0.411523 0.068002
C7    C     C_R   0.766913 0.503777 0.496699 -0.022584
C8    C     C_R   0.233080 0.496445 0.503402 -0.024915
C9    C     C_R   0.800041 0.390409 0.405746 0.069910
C10   C     C_R   0.199955 0.610039 0.593960 0.045766
C11   C     C_R   0.892263 0.396097 0.391484 0.109063
C12   C     C_R   0.107745 0.604440 0.608409 0.111412
C13   C     C_R   0.952844 0.501181 0.497815 -0.028109
C14   C     C_R   0.047146 0.499278 0.502265 -0.022737
C15   C     C_R   0.919364 0.608776 0.599353 0.070721
C16   C     C_R   0.080626 0.391431 0.401113 0.070950
C17   C     C_R   0.926886 0.300297 0.277254 0.144427
C18   C     C_R   0.073175 0.700209 0.722768 0.139382
C19   C     C_R   0.019831 0.294851 0.288649 -0.185731
C20   C     C_R   0.980194 0.705258 0.711883 -0.185689
H1    H     H_    0.044174 0.217823 0.202635 0.163148
H2    H     H_    0.955858 0.781967 0.798250 0.162541
H3    H     H_    0.512934 0.861724 0.373273 0.245602
H4    H     H_    0.556183 0.140506 0.615402 0.229288
C21   C     C_2   0.488939 0.112163 0.404353 0.157268
C22   C     C_2   0.521644 0.887701 0.595681 0.147842
C23   C     C_2   0.523874 0.070013 0.509298 -0.190396
C24   C     C_2   0.520966 0.931120 0.485716 -0.167223
N1    N     N_2   0.460520 0.445420 0.137370 -0.101510
N2    N     N_2   0.539480 0.554580 0.862630 -0.119693
C25   C     C_2   0.516148 0.498173 0.077188 0.392922
C26   C     C_2   0.498418 0.478269 0.916429 0.374749
C27   C     C_3   0.788927 0.741614 0.677586 -0.724261
H5    H     H_    0.716453 0.744301 0.639341 0.231673
H6    H     H_    0.798073 0.754377 0.794922 0.253924
H7    H     H_    0.825141 0.826907 0.666545 0.224264
C28   C     C_3   0.210870 0.257625 0.324996 -0.705984
H8    H     H_    0.283675 0.255766 0.361806 0.233745
H9    H     H_    0.175339 0.173586 0.339436 0.225144
H10   H     H_    0.200337 0.242017 0.206884 0.258200
C29   C     C_3   0.739655 0.261029 0.346363 -0.766100
H11   H     H_    0.779097 0.175453 0.322211 0.247108
H12   H     H_    0.700475 0.253782 0.430459 0.199336
H13   H     H_    0.691373 0.253173 0.247512 0.273306
C30   C     C_3   0.260368 0.739369 0.653025 -0.732576
H14   H     H_    0.220919 0.824933 0.676843 0.247936
H15   H     H_    0.308592 0.747459 0.752026 0.273776
H16   H     H_    0.299645 0.746321 0.568913 0.213261
C31   C     C_3   0.869900 0.214218 0.132271 -0.772385
H17   H     H_    0.857475 0.112520 0.127723 0.236163
H18   H     H_    0.805365 0.254009 0.111391 0.275872
H19   H     H_    0.905658 0.210584 0.040491 0.231995
C32   C     C_3   0.130318 0.786600 0.867468 -0.763889
H20   H     H_    0.194812 0.746736 0.888400 0.274068
H21   H     H_    0.142815 0.888114 0.871490 0.237515
H22   H     H_    0.094679 0.790766 0.959534 0.233685
N3    N     N_R   0.534832 0.975912 0.746578 0.172614
O9    O     O_R   0.480732 0.960672 0.831846 -0.230385
O10   O     O_R   0.609966 0.052660 0.804774 -0.327199
N4    N     N_R   0.443354 0.022923 0.262382 0.147706
O11   O     O_R   0.455916 0.042510 0.144756 -0.222642
O12   O     O_R   0.379479 0.934411 0.252281 -0.327000
N5    N     N_R   0.447496 0.356902 0.819121 0.116776
O13   O     O_R   0.469892 0.248270 0.831028 -0.309885
O14   O     O_R   0.366819 0.357433 0.752520 -0.302736
N6    N     N_R   0.605188 0.553954 0.155336 0.120594
O15   O     O_R   0.674807 0.500166 0.104235 -0.354588
O16   O     O_R   0.617550 0.670908 0.257120 -0.334937
N7    N     N_R   0.570303 0.682894 0.956999 0.254797
O17   O     O_R   0.641314 0.741075 0.935892 -0.284903
O18   O     O_R   0.517906 0.753871 0.041086 -0.284088
N8    N     N_R   0.370024 0.417933 0.071658 0.254841
O19   O     O_R   0.324218 0.312696 0.066366 -0.280081
O20   O     O_R   0.326734 0.508785 0.045659 -0.326107

loop_
_geom_bond_atom_site_label_1
_geom_bond_atom_site_label_2
_geom_bond_distance
_ccdc_geom_bond_type
C30   H14   1.107276 S    
C32   H21   1.110047 S    
C3    C8    1.452050 S    
C17   C19   1.392038 A    
H4    C23   1.083217 S    
C25   C26   1.513995 S    
O7    Cu2   1.958160 S    
C22   N3    1.437634 S    
N1    C25   1.319899 D    
O5    C3    1.298196 A    
O1    C1    1.305296 A    
C9    C11   1.413998 A    
N6    O16   1.299920 A    
C5    C15   1.407435 A    
N5    O13   1.300101 A    
O4    Cu1   1.939863 S    
Cu1   N2    2.035335 S    
Cu2   N1    2.035335 S    
C21   N4    1.441765 S    
C26   N5    1.434738 S    
C4    C7    1.451825 S    
C13   C14   1.413647 A    
N4    O11   1.300626 A    
N2    C26   1.320799 D    
C11   C17   1.420018 A    
C32   H22   1.111566 S    
C31   H17   1.110074 S    
C12   C18   1.420192 A    
Cu1   Cu2   2.709355 S    
N5    O14   1.299392 A    
O2    C2    1.303998 A    
C10   C30   1.521248 S    
C6    C28   1.521315 S    
C28   H10   1.109548 S    
C11   C13   1.421939 A    
C6    C16   1.407223 A    
C31   H18   1.107968 S    
N3    O9    1.300691 A    
N6    O15   1.301138 A    
C28   H9    1.110761 S    
N7    O18   1.302433 A    
C29   H11   1.107250 S    
C29   H12   1.110904 S    
C27   H5    1.108182 S    
C23   C24   1.458103 S    
C27   H6    1.110249 S    
C28   H8    1.108138 S    
O6    C4    1.298155 A    
N2    N7    1.392466 S    
O7    C3    1.298567 A    
O3    Cu2   1.939864 S    
O8    C4    1.298508 A    
O4    C2    1.300607 A    
C10   C12   1.414264 A    
N8    O20   1.302473 A    
C30   H15   1.110077 S    
C12   C14   1.421846 A    
O1    Cu1   1.936941 S    
C15   C20   1.403147 A    
C5    C7    1.408978 A    
C31   H19   1.111556 S    
O6    Cu2   1.965669 S    
C21   C23   1.343095 D    
N1    N8    1.391648 S    
C14   C16   1.414862 A    
C32   H20   1.107955 S    
O3    C1    1.299900 A    
O8    Cu1   1.958159 S    
H3    C24   1.085049 S    
C29   H13   1.110106 S    
C22   C24   1.342806 D    
C5    C27   1.521552 S    
C19   H1    1.082679 S    
C17   C31   1.512672 S    
C25   N6    1.433252 S    
C20   H2    1.082780 S    
C1    C21   1.462902 S    
C18   C20   1.392279 A    
C7    C9    1.409136 A    
C2    C22   1.461754 S    
C8    C10   1.409335 A    
C13   C15   1.414952 A    
O2    Cu2   1.936941 S    
C27   H7    1.110830 S    
N7    O17   1.299811 A    
C18   C32   1.512686 S    
C9    C29   1.521355 S    
O5    Cu1   1.965669 S    
C16   C19   1.403073 A    
C6    C8    1.408927 A    
N8    O19   1.299683 A    
C30   H16   1.110930 S    
N4    O12   1.301599 A    
N3    O10   1.301251 A    
