data_mof_unit_5402.cif
_audit_creation_date              2012-10-26T19:51:36-0400
_audit_creation_method            fapswitch 2.2
_symmetry_space_group_name_H-M    P1
_symmetry_Int_Tables_number       1
_space_group_crystal_system       triclinic
_cell_length_a                    19.457676
_cell_length_b                    18.158508
_cell_length_c                    9.061554
_cell_angle_alpha                 89.952699
_cell_angle_beta                  89.856257
_cell_angle_gamma                 90.00403
_cell_volume                      3201.6385176

loop_
_atom_site_label
_atom_site_type_symbol
_atom_type_description
_atom_site_fract_x
_atom_site_fract_y
_atom_site_fract_z
_atom_type_partial_charge
C1    C     C_R   0.367540 0.500004 0.500013 0.544854
C2    C     C_R   0.472477 0.201321 0.381752 -0.134094
C3    C     C_R   0.499852 0.838190 0.500805 0.056480
C4    C     C_R   0.499983 0.161251 0.500710 0.037281
C5    C     C_R   0.556568 0.960532 0.558115 0.231549
C6    C     C_R   0.440677 0.037900 0.459195 0.224961
C7    C     C_R   0.443200 0.960410 0.447036 0.216685
C8    C     C_R   0.559213 0.037936 0.543816 0.229077
C9    C     C_R   0.499956 0.078141 0.501192 -0.071838
C10   C     C_R   0.499890 0.920746 0.502243 -0.069237
C11   C     C_R   0.500010 0.500017 0.220451 0.559845
C12   C     C_R   0.632461 0.500006 0.499968 0.544779
C13   C     C_R   0.499985 0.499980 0.779549 0.559780
C14   C     C_1   0.500000 0.500018 0.065525 -0.064026
C15   C     C_1   0.499992 0.499967 0.934475 -0.064126
C16   C     C_R   0.744366 0.433273 0.499815 -0.131231
C17   C     C_R   0.255690 0.566830 0.500923 -0.131649
C18   C     C_R   0.255628 0.433278 0.499111 -0.131141
C19   C     C_R   0.744321 0.566831 0.499816 -0.131382
C20   C     C_R   0.815933 0.433331 0.499639 -0.122047
C21   C     C_R   0.184123 0.566839 0.500912 -0.121428
C22   C     C_R   0.184062 0.433337 0.499013 -0.121992
C23   C     C_R   0.449268 0.720915 0.572497 0.036309
C24   C     C_R   0.815889 0.566838 0.499848 -0.121184
C25   C     C_R   0.852226 0.500101 0.499720 0.031818
C26   C     C_R   0.147767 0.500105 0.499916 0.032013
C27   C     C_R   0.707960 0.500034 0.499874 0.013220
C28   C     C_R   0.292041 0.500034 0.500022 0.013366
C29   C     C_R   0.964083 0.548506 0.591879 -0.115798
C30   C     C_R   0.035885 0.451779 0.407598 -0.115924
C31   C     C_R   0.035648 0.548497 0.591954 -0.115881
C32   C     C_R   0.964320 0.451769 0.407571 -0.115990
C33   C     C_R   0.072096 0.500133 0.499813 0.030100
C34   C     C_R   0.527707 0.278834 0.616019 0.030810
C35   C     C_R   0.927883 0.500132 0.499710 0.029980
C36   C     C_3   0.596542 0.902818 0.765919 0.021843
C37   C     C_3   0.609524 0.966060 0.874688 -0.248292
C38   C     C_3   0.597791 0.941439 0.033919 -0.506618
C39   C     C_3   0.344567 0.093741 0.552916 0.020124
C40   C     C_3   0.300802 0.029636 0.611175 -0.250997
C41   C     C_3   0.257574 0.053054 0.743758 -0.501784
C42   C     C_3   0.400708 0.918055 0.231172 0.028763
C43   C     C_3   0.339159 0.881487 0.157006 -0.249235
C44   C     C_3   0.349728 0.875699 0.990287 -0.497877
C45   C     C_R   0.550619 0.721286 0.427713 0.036863
C46   C     C_3   0.655186 0.094267 0.450091 0.018706
C47   C     C_3   0.701597 0.031480 0.396346 -0.250048
C48   C     C_3   0.744991 0.055324 0.264205 -0.501607
C49   C     C_R   0.472287 0.278687 0.384299 0.030391
C50   C     C_R   0.447983 0.798244 0.573341 -0.126704
C51   C     C_R   0.527485 0.201488 0.619297 -0.134718
C52   C     C_R   0.551745 0.798663 0.427640 -0.127215
Cu1   Cu    Cu3+1 0.500000 0.573360 0.500000 0.937443
Cu2   Cu    Cu3+1 0.500000 0.426640 0.500000 0.932338
H1    H     H_    0.717638 0.380951 0.500240 0.126243
H2    H     H_    0.062944 0.414743 0.334027 0.103131
H3    H     H_    0.062518 0.585529 0.665573 0.102820
H4    H     H_    0.937435 0.414716 0.334018 0.102949
H5    H     H_    0.409569 0.690747 0.630375 0.119399
H6    H     H_    0.549988 0.308683 0.707276 0.125841
H7    H     H_    0.590412 0.691389 0.369674 0.119053
H8    H     H_    0.450004 0.308425 0.292799 0.125667
H9    H     H_    0.407342 0.826714 0.631980 0.109439
H10   H     H_    0.548320 0.173419 0.714654 0.129143
H11   H     H_    0.592389 0.827477 0.369600 0.108896
H12   H     H_    0.282461 0.619128 0.501307 0.121981
H13   H     H_    0.451598 0.173107 0.286709 0.131740
H14   H     H_    0.631010 0.856265 0.794905 0.149711
H15   H     H_    0.542998 0.881816 0.778950 0.113462
H16   H     H_    0.663223 0.986035 0.862204 0.189794
H17   H     H_    0.574040 0.012430 0.850632 0.170851
H18   H     H_    0.544523 0.920651 0.048126 0.131964
H19   H     H_    0.605300 0.988868 0.109408 0.141681
H20   H     H_    0.634711 0.897329 0.064220 0.146193
H21   H     H_    0.309862 0.140176 0.524449 0.147097
H22   H     H_    0.379265 0.114510 0.641463 0.117032
H23   H     H_    0.282349 0.380956 0.498773 0.126440
H24   H     H_    0.266297 0.009682 0.522186 0.191235
H25   H     H_    0.334630 0.983502 0.645731 0.172983
H26   H     H_    0.291300 0.072093 0.834831 0.147118
H27   H     H_    0.226883 0.005453 0.783709 0.148198
H28   H     H_    0.221881 0.098130 0.712371 0.147080
H29   H     H_    0.447167 0.883783 0.209618 0.120781
H30   H     H_    0.408083 0.973691 0.181146 0.149233
H31   H     H_    0.331780 0.825383 0.203634 0.170404
H32   H     H_    0.292095 0.914365 0.179483 0.174161
H33   H     H_    0.355767 0.931370 0.940929 0.142775
H34   H     H_    0.717558 0.619130 0.499426 0.122565
H35   H     H_    0.304386 0.848704 0.939506 0.146068
H36   H     H_    0.396136 0.842301 0.965064 0.141072
H37   H     H_    0.687957 0.142435 0.477453 0.147048
H38   H     H_    0.620425 0.112563 0.359386 0.115408
H39   H     H_    0.736122 0.013947 0.487376 0.191345
H40   H     H_    0.669644 0.983616 0.363181 0.176570
H41   H     H_    0.711397 0.072538 0.171423 0.146172
H42   H     H_    0.777361 0.008515 0.226909 0.149017
H43   H     H_    0.779106 0.101847 0.295091 0.146328
H44   H     H_    0.842936 0.381182 0.501291 0.102873
H45   H     H_    0.157176 0.619024 0.499847 0.103401
H46   H     H_    0.157064 0.381177 0.500042 0.102818
H47   H     H_    0.842862 0.619010 0.498146 0.104148
H48   H     H_    0.937008 0.585551 0.665409 0.103509
N1    N     N_R   0.500000 0.683620 0.500000 -0.220074
N2    N     N_R   0.500000 0.316380 0.500000 -0.220660
O1    O     O_R   0.400190 0.561980 0.499980 -0.511780
O2    O     O_3   0.380196 0.073558 0.422484 -0.560152
O3    O     O_3   0.388405 0.923442 0.384547 -0.555208
O4    O     O_3   0.619599 0.073789 0.580414 -0.562568
O5    O     O_R   0.599810 0.438020 0.500020 -0.501972
O6    O     O_R   0.599810 0.561980 0.500020 -0.511869
O7    O     O_R   0.400190 0.438020 0.499980 -0.501805
O8    O     O_R   0.500000 0.561940 0.288400 -0.491714
O9    O     O_R   0.500000 0.438060 0.711600 -0.505390
O10   O     O_R   0.500000 0.561940 0.711600 -0.492607
O11   O     O_R   0.500000 0.438060 0.288400 -0.505389
O12   O     O_3   0.612277 0.924179 0.619108 -0.556961

loop_
_geom_bond_atom_site_label_1
_geom_bond_atom_site_label_2
_ccdc_geom_bond_type
Cu1   O6    S    
C39   O2    S    
C21   C26   A    
C48   H41   S    
C7    C10   A    
C32   H4    S    
C49   N2    A    
C12   O6    A    
Cu1   Cu2   S    
C36   H15   S    
C23   H5    S    
C48   H43   S    
C34   C51   A    
Cu2   N2    S    
C36   C37   S    
C21   H45   S    
C11   C14   S    
C46   H38   S    
C20   C25   A    
Cu2   O9    S    
C24   H47   S    
C12   O5    A    
C45   N1    A    
C23   N1    A    
C8    C9    A    
C46   O4    S    
C29   H48   S    
C1    C28   S    
C31   C33   A    
C39   H21   S    
C44   H33   S    
C11   O11   A    
C42   O3    S    
C13   O10   A    
C16   C27   A    
C37   H16   S    
C34   H6    S    
C50   H9    S    
C43   H32   S    
C6    C9    A    
C8    O4    S    
C19   C27   A    
C3    C50   A    
C47   H39   S    
C38   H18   S    
C22   H46   S    
C51   H10   S    
C4    C51   A    
C43   H31   S    
C32   C35   A    
C42   H30   S    
C24   C25   A    
C19   H34   S    
C39   C40   S    
C23   C50   A    
C46   H37   S    
C12   C27   S    
C45   C52   A    
C30   H2    S    
C17   C21   A    
Cu2   O5    S    
C2    C4    A    
C43   C44   S    
C37   C38   S    
C2    C49   A    
C26   C33   S    
C47   C48   S    
C16   C20   A    
C41   H27   S    
Cu2   O11   S    
C6    O2    S    
C40   H25   S    
C18   C28   A    
C39   H22   S    
C25   C35   S    
Cu1   O8    S    
C40   C41   S    
C2    H13   S    
C37   H17   S    
C5    O12   S    
C40   H24   S    
C42   C43   S    
C36   O12   S    
C44   H36   S    
Cu1   O10   S    
C38   H20   S    
C46   C47   S    
C49   H8    S    
C48   H42   S    
C30   C33   A    
C11   O8    A    
C18   C22   A    
C17   C28   A    
C42   H29   S    
C5    C8    A    
C3    C52   A    
C36   H14   S    
C6    C7    A    
C29   C35   A    
C31   H3    S    
C13   C15   S    
C19   C24   A    
C16   H1    S    
C5    C10   A    
C29   C31   A    
C3    C10   S    
C1    O7    A    
C30   C32   A    
Cu1   N1    S    
C18   H23   S    
C41   H28   S    
C45   H7    S    
C47   H40   S    
Cu2   O7    S    
C7    O3    S    
C17   H12   S    
C34   N2    A    
C52   H11   S    
Cu1   O1    S    
C20   H44   S    
C22   C26   A    
C14   C15   T    
C41   H26   S    
C4    C9    S    
C13   O9    A    
C44   H35   S    
C1    O1    A    
C38   H19   S    
