data_mof_unit_43511.cif
_audit_creation_date              2012-12-10T18:59:54-0500
_audit_creation_method            fapswitch 2.2
_symmetry_space_group_name_H-M    P1
_symmetry_Int_Tables_number       1
_space_group_crystal_system       triclinic
_cell_length_a                    10.814889
_cell_length_b                    10.650677
_cell_length_c                    9.999859
_cell_angle_alpha                 92.639726
_cell_angle_beta                  91.297914
_cell_angle_gamma                 91.548952
_cell_volume                      1149.87059044

loop_
_atom_site_label
_atom_site_type_symbol
_atom_type_description
_atom_site_fract_x
_atom_site_fract_y
_atom_site_fract_z
_atom_type_partial_charge
C1    C     C_R   0.499239 0.260409 0.497780 0.853369
C2    C     C_R   0.502060 0.739615 0.502466 0.861976
C3    C     C_R   0.872446 0.494718 0.503327 -0.089817
C4    C     C_R   0.127561 0.497824 0.495613 -0.093887
C5    C     C_R   0.941378 0.458679 0.616023 0.057890
C6    C     C_R   0.058796 0.536339 0.384183 0.080644
C7    C     C_R   0.423451 0.066331 0.585877 -0.197926
C8    C     C_R   0.582194 0.933887 0.417659 -0.182174
C9    C     C_R   0.427044 0.937795 0.591094 -0.208500
C10   C     C_R   0.578553 0.062602 0.412393 -0.219575
C11   C     C_R   0.505691 0.872505 0.506249 0.007898
C12   C     C_R   0.498316 0.127601 0.495658 -0.010291
C13   C     C_R   0.529899 0.605468 0.080158 -0.156004
C14   C     C_R   0.473182 0.393573 0.919613 -0.144775
C15   C     C_R   0.525505 0.608625 0.938323 0.228354
C16   C     C_R   0.473277 0.391613 0.061436 0.210226
C17   C     C_R   0.260385 0.500427 0.498428 0.871302
C18   C     C_R   0.739641 0.498038 0.501524 0.864893
C19   C     C_R   0.205568 0.779181 0.170809 0.229154
C20   C     C_R   0.783195 0.293547 0.895344 0.258652
C21   C     C_R   0.159076 0.718596 0.281229 -0.243281
C22   C     C_R   0.835576 0.316126 0.771217 -0.190351
C23   C     C_R   0.114592 0.593869 0.267556 0.022854
C24   C     C_R   0.886801 0.434976 0.746752 0.027457
C25   C     C_R   0.117686 0.528348 0.142382 0.381672
C26   C     C_R   0.886178 0.531939 0.847127 0.403133
C27   C     C_R   0.169645 0.586640 0.033714 -0.163604
C28   C     C_R   0.829497 0.510893 0.968571 -0.172932
C29   C     C_R   0.211371 0.712012 0.046931 -0.131996
C30   C     C_R   0.778684 0.392361 0.992913 -0.133546
C31   C     C_R   0.931753 0.531672 0.388354 -0.180064
C32   C     C_R   0.068352 0.457194 0.609172 -0.187107
H1    H     H_    0.247501 0.756793 0.960413 0.161427
H2    H     H_    0.739246 0.376886 0.089527 0.155125
H3    H     H_    0.154667 0.769111 0.377560 0.141737
H4    H     H_    0.837412 0.241220 0.694217 0.139903
H5    H     H_    0.174488 0.535964 0.937697 0.186616
H6    H     H_    0.827689 0.585439 0.045774 0.157168
H7    H     H_    0.879444 0.563387 0.302999 0.164009
H8    H     H_    0.121002 0.428079 0.695509 0.169673
H9    H     H_    0.361985 0.117959 0.651030 0.143321
H10   H     H_    0.643342 0.882066 0.352257 0.138639
H11   H     H_    0.366351 0.889364 0.657628 0.139853
H12   H     H_    0.638575 0.111205 0.345211 0.139907
H13   H     H_    0.556796 0.688367 0.140994 0.143643
H14   H     H_    0.451771 0.308973 0.858660 0.151328
N1    N     N_R   0.499970 0.499970 0.857200 -0.104258
N2    N     N_R   0.500030 0.500030 0.142800 -0.104898
O1    O     O_R   0.499990 0.316750 0.614620 -0.630621
O2    O     O_R   0.500010 0.683250 0.385380 -0.626248
O3    O     O_R   0.499990 0.316780 0.385290 -0.622664
O4    O     O_R   0.500010 0.683220 0.614710 -0.623853
O5    O     O_R   0.316760 0.500000 0.614660 -0.619999
O6    O     O_R   0.683240 0.500000 0.385340 -0.627608
O7    O     O_R   0.316760 0.500020 0.385330 -0.615382
O8    O     O_R   0.683240 0.499980 0.614670 -0.620566
Zn1   Zn    Zn3+2 0.500000 0.499980 0.653120 0.941997
Zn2   Zn    Zn3+2 0.500000 0.500020 0.346880 0.938867
C33   C     C_3   0.538768 0.738642 0.885823 -0.428823
C34   C     C_3   0.665056 0.765244 0.828124 -0.722656
H15   H     H_    0.691039 0.690597 0.755070 0.307393
H16   H     H_    0.664858 0.856356 0.778410 0.243031
H17   H     H_    0.735056 0.771779 0.911039 0.252674
H18   H     H_    0.458806 0.758817 0.820918 0.224549
H19   H     H_    0.531856 0.810684 0.968167 0.171080
C35   C     C_3   0.449658 0.263390 0.114671 -0.439206
C36   C     C_3   0.322348 0.251572 0.176330 -0.665806
H20   H     H_    0.323392 0.188894 0.261663 0.230302
H21   H     H_    0.290857 0.343756 0.213259 0.302062
H22   H     H_    0.254458 0.212132 0.099564 0.259798
H23   H     H_    0.451884 0.188823 0.033151 0.163641
H24   H     H_    0.527833 0.237838 0.179259 0.215877
C37   C     C_3   0.247334 0.915295 0.185693 -0.391683
C38   C     C_3   0.381386 0.932180 0.145439 -0.909290
H25   H     H_    0.423498 0.018634 0.193148 0.272617
H26   H     H_    0.436846 0.853517 0.179401 0.273127
H27   H     H_    0.385357 0.939329 0.035335 0.241578
H28   H     H_    0.187211 0.972282 0.122000 0.216589
H29   H     H_    0.238933 0.951650 0.291078 0.210472
C39   C     C_3   0.734898 0.163900 0.924414 -0.469745
C40   C     C_3   0.840896 0.073299 0.938389 -0.771343
H30   H     H_    0.886416 0.056977 0.840922 0.262709
H31   H     H_    0.910410 0.111578 0.014171 0.287996
H32   H     H_    0.804380 0.982065 0.972028 0.245899
H33   H     H_    0.683587 0.166169 0.019318 0.192299
H34   H     H_    0.669529 0.128649 0.842920 0.210427
Cl1   Cl    Cl    0.054990 0.374544 0.119045 -0.731730
Cl2   Cl    Cl    0.956914 0.680031 0.822440 -0.724598

loop_
_geom_bond_atom_site_label_1
_geom_bond_atom_site_label_2
_ccdc_geom_bond_type
C27   C29   A    
C37   C38   S    
C15   N1    A    
C30   H2    S    
C16   N2    A    
C40   H30   S    
C14   H14   S    
C20   C30   A    
C33   H18   S    
C38   H26   S    
C34   H17   S    
C19   C21   A    
C8    H10   S    
C29   H1    S    
C25   Cl1   S    
O1    Zn1   S    
O8    Zn1   S    
C3    C18   S    
C34   H16   S    
C39   H34   S    
C2    O2    A    
C35   H24   S    
C38   H27   S    
C37   H28   S    
C17   O7    A    
C18   O8    A    
C5    C32   A    
C7    H9    S    
C35   C36   S    
C33   C34   S    
C1    C12   S    
C2    C11   S    
C10   C12   A    
C40   H31   S    
C21   C23   A    
C7    C12   A    
C9    H11   S    
C38   H25   S    
C20   C39   S    
C10   H12   S    
C36   H20   S    
O2    Zn2   S    
C19   C37   S    
C4    C6    A    
O5    Zn1   S    
C34   H15   S    
C36   H21   S    
C39   H33   S    
N1    Zn1   S    
C9    C11   A    
C35   H23   S    
C28   H6    S    
C37   H29   S    
O3    Zn2   S    
C3    C31   A    
C1    O3    A    
C4    C32   A    
C2    O4    A    
C4    C17   S    
C26   Cl2   S    
C20   C22   A    
C13   C15   A    
C14   C16   A    
C16   C35   S    
C19   C29   A    
C17   O5    A    
C40   H32   S    
O6    Zn2   S    
C7    C9    A    
C15   C33   S    
C24   C26   A    
C39   C40   S    
C3    C5    A    
C13   N2    A    
N2    Zn2   S    
C14   N1    A    
C21   H3    S    
C25   C27   A    
C22   H4    S    
C26   C28   A    
C36   H22   S    
C28   C30   A    
C33   H19   S    
C13   H13   S    
C5    C24   S    
C27   H5    S    
C8    C11   A    
C6    C23   S    
C31   H7    S    
C6    C31   A    
C22   C24   A    
C32   H8    S    
O4    Zn1   S    
C18   O6    A    
C23   C25   A    
C8    C10   A    
O7    Zn2   S    
C1    O1    A    
