data_mof_unit_12114.cif
_audit_creation_date              2012-12-10T19:01:18-0500
_audit_creation_method            fapswitch 2.2
_symmetry_space_group_name_H-M    P1
_symmetry_Int_Tables_number       1
_space_group_crystal_system       triclinic
_cell_length_a                    9.555777
_cell_length_b                    10.83478
_cell_length_c                    15.492557
_cell_angle_alpha                 89.886696
_cell_angle_beta                  74.446908
_cell_angle_gamma                 90.430899
_cell_volume                      1545.22563219

loop_
_atom_site_label
_atom_site_type_symbol
_atom_type_description
_atom_site_fract_x
_atom_site_fract_y
_atom_site_fract_z
_atom_type_partial_charge
C1    C     C_R   0.998563 0.262427 0.502077 0.801042
C2    C     C_R   0.671582 0.477939 0.906045 0.093318
C3    C     C_R   0.770142 0.435791 0.953427 0.167364
C4    C     C_R   0.521253 0.489609 0.951295 0.068967
C5    C     C_R   0.473959 0.468767 0.045546 0.066883
C6    C     C_R   0.576506 0.427319 0.090157 -0.226472
C7    C     C_R   0.721150 0.410380 0.044620 -0.241291
C8    C     C_R   0.416208 0.518353 0.905076 -0.223383
C9    C     C_R   0.270959 0.532255 0.950035 -0.242666
C10   C     C_R   0.224357 0.518881 0.042587 0.168406
C11   C     C_R   0.325146 0.488216 0.091637 0.093076
C12   C     C_R   0.918317 0.498205 0.672024 0.797238
C13   C     C_R   0.077317 0.536557 0.086722 -0.214575
C14   C     C_R   0.028798 0.526221 0.179475 -0.196462
C15   C     C_R   0.273699 0.481593 0.185500 -0.259619
C16   C     C_R   0.115930 0.065092 0.517747 0.127381
C17   C     C_R   0.993147 0.129480 0.511668 -0.099474
C18   C     C_R   0.863511 0.063452 0.518208 -0.215062
C19   C     C_R   0.864409 0.934712 0.517659 -0.216148
C20   C     C_R   0.994949 0.871048 0.510539 -0.100357
C21   C     C_R   0.117027 0.938019 0.517161 0.133407
C22   C     C_3   0.270345 0.935059 0.460378 -0.488411
C23   C     C_R   0.999578 0.737781 0.501527 0.803057
C24   C     C_3   0.269012 0.074963 0.461493 -0.453387
C25   C     C_R   0.607185 0.527409 0.423717 0.254826
C26   C     C_R   0.542132 0.460362 0.572596 -0.086697
C27   C     C_R   0.393502 0.460797 0.572701 -0.087596
C28   C     C_R   0.460018 0.526261 0.423459 0.257776
C29   C     C_3   0.477646 0.642673 0.370343 -0.506890
C30   C     C_3   0.635705 0.645148 0.371825 -0.499796
C31   C     C_R   0.081803 0.499865 0.327877 0.797919
C32   C     C_R   0.872801 0.485605 0.769855 -0.045728
C33   C     C_R   0.127361 0.501281 0.229485 -0.048962
C34   C     C_R   0.917120 0.418221 0.908803 -0.218353
C35   C     C_R   0.968150 0.442484 0.817410 -0.199698
C36   C     C_R   0.727383 0.506667 0.814696 -0.253338
Cu1   Cu    Cu3+1 0.140670 0.499980 0.500000 0.938655
Cu2   Cu    Cu3+1 0.859330 0.500020 0.500000 0.939102
H1    H     H_    0.795433 0.377236 0.081338 0.148706
H2    H     H_    0.000012 0.560180 0.049556 0.144489
H3    H     H_    0.763580 0.110533 0.519021 0.166051
H4    H     H_    0.764821 0.885879 0.518294 0.162651
H5    H     H_    0.345099 0.895769 0.497050 0.197312
H6    H     H_    0.279563 0.896191 0.392712 0.198132
H7    H     H_    0.342303 0.115716 0.498933 0.198177
H8    H     H_    0.277879 0.116888 0.394622 0.199675
H9    H     H_    0.570527 0.429195 0.631934 0.142936
H10   H     H_    0.312141 0.430615 0.632038 0.135665
H11   H     H_    0.346016 0.464339 0.226532 0.144711
H12   H     H_    0.413553 0.718741 0.408498 0.214292
H13   H     H_    0.711520 0.633298 0.304378 0.188927
H14   H     H_    0.662807 0.723026 0.411284 0.211895
H15   H     H_    0.915162 0.540723 0.211973 0.145292
H16   H     H_    0.194631 0.554865 0.911868 0.149811
H17   H     H_    0.992075 0.383314 0.944336 0.142142
H18   H     H_    0.080937 0.424704 0.783706 0.144370
H19   H     H_    0.660229 0.546099 0.776278 0.144818
H20   H     H_    0.548423 0.403276 0.160163 0.140012
H21   H     H_    0.441346 0.527892 0.833380 0.137255
N1    N     N_R   0.648210 0.500930 0.499430 -0.183887
N2    N     N_R   0.352300 0.500890 0.499430 -0.182822
O1    O     O_R   0.118810 0.319640 0.500000 -0.579203
O2    O     O_R   0.881230 0.319680 0.499990 -0.582686
O3    O     O_R   0.055580 0.499970 0.629840 -0.589785
O4    O     O_R   0.818000 0.500010 0.629830 -0.592041
O5    O     O_R   0.118770 0.680320 0.500010 -0.574468
O6    O     O_R   0.881190 0.680360 0.500000 -0.583556
O7    O     O_R   0.182000 0.499990 0.370170 -0.586808
O8    O     O_R   0.944420 0.500030 0.370160 -0.581481
H22   H     H_    0.463132 0.628059 0.302281 0.195362

loop_
_geom_bond_atom_site_label_1
_geom_bond_atom_site_label_2
_ccdc_geom_bond_type
C27   H10   S    
C8    C9    A    
C2    C4    A    
C30   H13   S    
C19   H4    S    
C16   C21   A    
C25   N1    A    
C9    C10   A    
C6    H20   S    
Cu1   N2    S    
C22   H5    S    
C20   C23   S    
C4    C8    A    
C24   H8    S    
Cu1   O5    S    
Cu1   O3    S    
C14   C33   A    
C31   C33   S    
Cu1   O1    S    
Cu2   O8    S    
C34   H17   S    
C16   C24   S    
C13   C14   A    
C12   C32   S    
C25   C28   A    
C5    C6    A    
C26   C27   A    
C29   C30   S    
C26   N1    A    
C26   H9    S    
Cu2   N1    S    
C24   H7    S    
C1    O2    A    
C23   O5    A    
C30   H14   S    
C28   C29   S    
Cu1   Cu2   S    
C5    C11   A    
C6    C7    A    
C3    C7    A    
C29   H12   S    
C15   H11   S    
C8    H21   S    
C31   O7    A    
C12   O3    A    
Cu2   O2    S    
C29   H22   S    
C16   C17   A    
C10   C11   A    
C1    C17   S    
C28   N2    A    
C2    C36   A    
Cu2   O6    S    
Cu1   O7    S    
C32   C36   A    
C31   O8    A    
C14   H15   S    
C20   C21   A    
C36   H19   S    
C1    O1    A    
C17   C18   A    
C34   C35   A    
C12   O4    A    
C18   H3    S    
C23   O6    A    
C25   C30   S    
C7    H1    S    
C18   C19   A    
C13   H2    S    
C2    C3    A    
C9    H16   S    
C27   N2    A    
C3    C34   A    
C35   H18   S    
C21   C22   S    
Cu2   O4    S    
C11   C15   A    
C15   C33   A    
C22   H6    S    
C32   C35   A    
C19   C20   A    
C22   C24   S    
C4    C5    A    
C10   C13   A    
