data_mof_unit_11285.cif
_audit_creation_date              2012-12-10T20:27:12-0500
_audit_creation_method            fapswitch 2.2
_symmetry_space_group_name_H-M    P1
_symmetry_Int_Tables_number       1
_space_group_crystal_system       triclinic
_cell_length_a                    10.783072
_cell_length_b                    10.747675
_cell_length_c                    9.862547
_cell_angle_alpha                 90.046393
_cell_angle_beta                  103.916811
_cell_angle_gamma                 90.0981
_cell_volume                      1109.4455303

loop_
_atom_site_label
_atom_site_type_symbol
_atom_type_description
_atom_site_fract_x
_atom_site_fract_y
_atom_site_fract_z
_atom_type_partial_charge
C1    C     C_R   0.499239 0.260514 0.499596 0.877874
C2    C     C_R   0.565259 0.587838 0.089239 -0.138525
C3    C     C_R   0.565399 0.587734 0.945279 -0.134963
C4    C     C_R   0.258959 0.503977 0.441816 0.941297
C5    C     C_R   0.444134 0.404665 0.914014 0.270113
C6    C     C_3   0.306909 0.367225 0.872966 -0.529827
C7    C     C_3   0.307763 0.366157 0.027144 -0.530912
C8    C     C_R   0.499747 0.739551 0.499790 0.880783
C9    C     C_R   0.741103 0.503994 0.558144 0.937723
C10   C     C_2   0.122408 0.519289 0.408701 -0.373283
C11   C     C_2   0.067969 0.549716 0.511684 -0.156946
C12   C     C_R   0.498020 0.129353 0.497553 -0.127255
C13   C     C_2   0.877706 0.520162 0.590834 -0.384465
C14   C     C_2   0.931878 0.548253 0.486854 -0.146970
C15   C     C_R   0.514389 0.062415 0.620108 -0.000957
C16   C     C_3   0.753139 0.120163 0.789947 -0.239281
C17   C     C_R   0.481363 0.064513 0.370382 -0.200301
C18   C     C_R   0.481699 0.935318 0.370557 -0.222798
C19   C     C_R   0.498307 0.870802 0.497862 -0.069203
C20   C     C_R   0.513536 0.938059 0.620309 0.032918
C21   C     C_3   0.534321 0.926964 0.775136 -0.547151
C22   C     C_3   0.534357 0.070487 0.776100 0.411896
C23   C     C_R   0.444482 0.404469 0.056648 0.235115
H1    H     H_    0.876347 0.559854 0.379815 0.187867
H2    H     H_    0.066523 0.503778 0.302542 0.150131
H3    H     H_    0.467932 0.112678 0.271451 0.171148
H4    H     H_    0.468704 0.886880 0.271733 0.169052
H5    H     H_    0.450528 0.885391 0.805586 0.175899
H6    H     H_    0.627766 0.883896 0.824825 0.206562
H7    H     H_    0.449753 0.109846 0.806498 0.078611
H8    H     H_    0.737904 0.187553 0.702233 0.163094
H9    H     H_    0.769384 0.025078 0.753528 0.148830
H10   H     H_    0.841565 0.148667 0.866952 0.174486
H11   H     H_    0.615931 0.660123 0.156936 0.147991
H12   H     H_    0.616411 0.659699 0.904446 0.146130
H13   H     H_    0.244671 0.440904 0.813627 0.212684
H14   H     H_    0.293335 0.273419 0.824222 0.194187
H15   H     H_    0.245624 0.438773 0.056479 0.219638
H16   H     H_    0.296057 0.271493 0.067717 0.199346
H17   H     H_    0.123417 0.565467 0.617977 0.179119
H18   H     H_    0.933741 0.507925 0.697456 0.150145
N1    N     N_R   0.499160 0.499140 0.142600 -0.109660
N2    N     N_R   0.499160 0.499180 0.856960 -0.109062
O1    O     O_R   0.500020 0.316790 0.614700 -0.608267
O2    O     O_R   0.500000 0.316760 0.385350 -0.619557
O3    O     O_R   0.317820 0.500020 0.571850 -0.619916
O4    O     O_R   0.317800 0.499980 0.342510 -0.618683
O5    O     O_R   0.500000 0.683240 0.614650 -0.620190
O6    O     O_R   0.499980 0.683210 0.385300 -0.634050
O7    O     O_R   0.682200 0.500020 0.657490 -0.612643
O8    O     O_R   0.682180 0.499980 0.428150 -0.613314
O9    O     O_3   0.650396 0.123990 0.855989 -0.586569
Zn1   Zn    Zn3+2 0.500010 0.500020 0.653140 0.951266
Zn2   Zn    Zn3+2 0.499990 0.499980 0.346860 0.940846

loop_
_geom_bond_atom_site_label_1
_geom_bond_atom_site_label_2
_ccdc_geom_bond_type
C12   C17   A    
C8    O5    A    
C6    C7    S    
C16   H10   S    
C16   H9    S    
C1    O1    A    
C19   C20   A    
C5    C23   A    
C12   C15   A    
C3    H12   S    
O8    Zn2   S    
C3    N2    A    
C2    H11   S    
C13   H18   S    
C2    C3    A    
C5    N2    A    
C6    H14   S    
C4    O3    A    
C13   C14   D    
N1    Zn2   S    
C16   H8    S    
C5    C6    S    
C1    C12   S    
C1    O2    A    
C15   C20   A    
C23   N1    A    
C2    N1    A    
O4    Zn2   S    
C7    C23   S    
C17   H3    S    
O1    Zn1   S    
O3    Zn1   S    
O5    Zn1   S    
C7    H15   S    
C6    H13   S    
O2    Zn2   S    
C17   C18   A    
N2    Zn1   S    
C11   H17   S    
C11   C14   S    
O7    Zn1   S    
C10   C11   D    
C9    O7    A    
C4    C10   S    
O6    Zn2   S    
C8    C19   S    
C20   C21   S    
C10   H2    S    
C22   O9    S    
C18   C19   A    
C14   H1    S    
C9    C13   S    
C7    H16   S    
C22   H7    S    
C21   C22   S    
C21   H6    S    
C8    O6    A    
C21   H5    S    
C15   C22   S    
C18   H4    S    
C16   O9    S    
C4    O4    A    
C9    O8    A    
