data_mof_unit_63855.cif
_audit_creation_date              2012-12-10T18:09:56-0500
_audit_creation_method            fapswitch 2.2
_symmetry_space_group_name_H-M    P1
_symmetry_Int_Tables_number       1
_space_group_crystal_system       triclinic
_cell_length_a                    18.365807
_cell_length_b                    18.364755
_cell_length_c                    32.054552
_cell_angle_alpha                 89.999981
_cell_angle_beta                  90.000127
_cell_angle_gamma                 90.0
_cell_volume                      10811.4729618

loop_
_atom_site_label
_atom_site_type_symbol
_atom_type_description
_atom_site_fract_x
_atom_site_fract_y
_atom_site_fract_z
_atom_type_partial_charge
C1    C     C_R   0.639875 0.500021 1.000000 0.841468
C2    C     C_1   0.499999 0.501740 0.162412 -0.079401
C3    C     C_R   0.646154 0.599699 0.187247 -0.147054
C4    C     C_R   0.371650 0.577196 0.772117 0.109403
C5    C     C_R   0.324384 0.595032 0.739157 -0.122810
C6    C     C_R   0.260202 0.633700 0.746775 -0.127018
C7    C     C_R   0.242649 0.655113 0.787334 -0.110170
C8    C     C_R   0.289620 0.638479 0.820247 -0.151478
C9    C     C_R   0.353913 0.599797 0.812751 -0.147047
C10   C     C_R   0.371602 0.577118 0.227882 0.109408
C11   C     C_R   0.324326 0.594929 0.260842 -0.122813
C12   C     C_R   0.260121 0.633559 0.253224 -0.127030
C13   C     C_1   0.000000 0.001740 0.337588 -0.079401
C14   C     C_R   0.242553 0.654957 0.212664 -0.110176
C15   C     C_R   0.289531 0.638346 0.179751 -0.151488
C16   C     C_R   0.353848 0.599704 0.187247 -0.147054
C17   C     C_R   0.128398 0.077118 0.272118 0.109408
C18   C     C_R   0.175674 0.094929 0.239158 -0.122814
C19   C     C_R   0.239879 0.133559 0.246776 -0.127030
C20   C     C_R   0.257447 0.154957 0.287336 -0.110175
C21   C     C_R   0.210469 0.138346 0.320249 -0.151489
C22   C     C_R   0.146152 0.099704 0.312753 -0.147054
C23   C     C_R   0.128350 0.077196 0.727883 0.109402
C24   C     C_1   0.999999 0.001740 0.662412 -0.079401
C25   C     C_R   0.175616 0.095032 0.760843 -0.122811
C26   C     C_R   0.239798 0.133701 0.753226 -0.127018
C27   C     C_R   0.257351 0.155113 0.712666 -0.110170
C28   C     C_R   0.210381 0.138478 0.679754 -0.151477
C29   C     C_R   0.146087 0.099797 0.687249 -0.147049
C30   C     C_R   0.871599 0.077112 0.272118 0.109406
C31   C     C_R   0.824322 0.094920 0.239159 -0.122814
C32   C     C_R   0.760115 0.133548 0.246777 -0.127030
C33   C     C_R   0.742548 0.154946 0.287336 -0.110177
C34   C     C_R   0.789528 0.138339 0.320249 -0.151491
C35   C     C_1   0.499999 0.495671 0.662401 -0.080766
C36   C     C_R   0.853846 0.099699 0.312753 -0.147054
C37   C     C_R   0.871551 0.077034 0.727881 0.109405
C38   C     C_R   0.824260 0.094810 0.760840 -0.122816
C39   C     C_R   0.760031 0.133399 0.753221 -0.127039
C40   C     C_R   0.742454 0.154790 0.712661 -0.110183
C41   C     C_R   0.789446 0.138214 0.679750 -0.151507
C42   C     C_R   0.853788 0.099613 0.687246 -0.147059
C43   C     C_R   0.628175 0.419570 0.727810 0.108637
C44   C     C_R   0.675826 0.402128 0.760657 -0.122896
C45   C     C_R   0.739761 0.363098 0.752968 -0.126547
C46   C     C_1   0.500000 0.495672 0.337599 -0.080766
C47   C     C_R   0.756641 0.340874 0.712457 -0.111223
C48   C     C_R   0.709243 0.357063 0.679671 -0.151655
C49   C     C_R   0.645212 0.396137 0.687235 -0.143829
C50   C     C_R   0.628223 0.419649 0.272191 0.108639
C51   C     C_R   0.675882 0.402233 0.239344 -0.122897
C52   C     C_R   0.739840 0.363241 0.247033 -0.126558
C53   C     C_R   0.756736 0.341031 0.287544 -0.111230
C54   C     C_R   0.709331 0.357196 0.320331 -0.151667
C55   C     C_R   0.645277 0.396231 0.312767 -0.143836
C56   C     C_R   0.371726 0.419732 0.727809 0.108636
C57   C     C_1   0.000000 0.995672 0.162401 -0.080766
C58   C     C_R   0.324055 0.402349 0.760654 -0.122898
C59   C     C_R   0.260071 0.363398 0.752965 -0.126567
C60   C     C_R   0.243163 0.341197 0.712454 -0.111238
C61   C     C_R   0.290579 0.357330 0.679668 -0.151685
C62   C     C_R   0.354659 0.396323 0.687233 -0.143842
C63   C     C_R   0.371773 0.419655 0.272191 0.108639
C64   C     C_R   0.324114 0.402239 0.239344 -0.122895
C65   C     C_R   0.260154 0.363250 0.247033 -0.126560
C66   C     C_R   0.243257 0.341042 0.287544 -0.111230
C67   C     C_R   0.290662 0.357206 0.320331 -0.151668
C68   C     C_1   0.000000 0.995671 0.837599 -0.080765
C69   C     C_R   0.354718 0.396239 0.312767 -0.143837
C70   C     C_R   0.128227 0.919655 0.227809 0.108639
C71   C     C_R   0.175886 0.902239 0.260656 -0.122895
C72   C     C_R   0.239846 0.863250 0.252967 -0.126559
C73   C     C_R   0.256743 0.841042 0.212456 -0.111231
C74   C     C_R   0.209338 0.857206 0.179669 -0.151668
C75   C     C_R   0.145282 0.896239 0.187233 -0.143838
C76   C     C_R   0.128273 0.919732 0.772192 0.108636
C77   C     C_R   0.175946 0.902350 0.739346 -0.122898
C78   C     C_R   0.239930 0.863399 0.747036 -0.126568
C79   C     C_1   0.717341 0.500062 1.000000 -0.177924
C80   C     C_R   0.256837 0.841197 0.787546 -0.111238
C81   C     C_R   0.209419 0.857328 0.820332 -0.151684
C82   C     C_R   0.145339 0.896322 0.812767 -0.143841
C83   C     C_R   0.871777 0.919649 0.227809 0.108638
C84   C     C_R   0.824118 0.902233 0.260656 -0.122895
C85   C     C_R   0.760160 0.863241 0.252967 -0.126559
C86   C     C_R   0.743264 0.841031 0.212456 -0.111229
C87   C     C_R   0.790668 0.857196 0.179669 -0.151668
C88   C     C_R   0.854723 0.896231 0.187233 -0.143835
C89   C     C_R   0.871825 0.919570 0.772190 0.108637
C90   C     C_1   0.282659 0.500062 0.000000 -0.177920
C91   C     C_R   0.824174 0.902128 0.739343 -0.122896
C92   C     C_R   0.760239 0.863098 0.747032 -0.126547
C93   C     C_R   0.743360 0.840874 0.787543 -0.111223
C94   C     C_R   0.790757 0.857062 0.820329 -0.151656
C95   C     C_R   0.854788 0.896136 0.812765 -0.143828
C96   C     C_1   0.500090 0.638661 0.715822 0.242083
C97   C     C_1   0.500003 0.638662 0.284177 0.242079
C98   C     C_1   0.999997 0.138662 0.215823 0.242079
C99   C     C_1   0.999909 0.138661 0.784178 0.242083
C100  C     C_1   0.499910 0.358327 0.784214 0.245282
C101  C     C_1   0.217341 0.000062 0.500000 -0.177920
C102  C     C_1   0.499997 0.358326 0.215787 0.245279
C103  C     C_1   0.000004 0.858326 0.284213 0.245279
C104  C     C_1   0.000090 0.858326 0.715786 0.245283
C105  C     C_R   0.360125 0.500021 0.000000 0.841471
C106  C     C_1   0.782659 0.000062 0.500000 -0.177924
C107  C     C_1   0.782601 0.500059 1.000000 -0.175354
C108  C     C_1   0.217399 0.500059 0.000000 -0.175351
C109  C     C_1   0.282601 0.000059 0.500000 -0.175351
C110  C     C_1   0.717399 0.000059 0.500000 -0.175355
C111  C     C_R   0.500000 0.360004 0.500000 0.838149
C112  C     C_R   0.000000 0.860004 0.000000 0.838149
C113  C     C_R   0.500000 0.499606 0.580153 0.827981
C114  C     C_R   0.500000 0.499607 0.419847 0.827981
C115  C     C_R   1.000000 0.999606 0.080153 0.827981
C116  C     C_R   0.139875 0.000021 0.500000 0.841471
C117  C     C_R   1.000000 0.999606 0.919847 0.827981
C118  C     C_R   0.500000 0.639727 0.500000 0.850171
C119  C     C_R   0.000000 0.139727 0.000000 0.850171
C120  C     C_R   1.000000 0.639889 0.000000 0.840914
C121  C     C_R   0.500000 0.139889 0.500000 0.840914
C122  C     C_R   0.860069 0.500028 1.000000 0.843159
C123  C     C_R   0.139931 0.500028 0.000000 0.843159
C124  C     C_R   0.360069 0.000028 0.500000 0.843159
C125  C     C_R   0.639931 0.000028 0.500000 0.843159
C126  C     C_R   0.500000 0.500040 0.919848 0.824530
C127  C     C_R   0.860125 0.000021 0.500000 0.841468
C128  C     C_R   0.500000 0.500040 0.080152 0.824529
C129  C     C_R   0.000000 0.000040 0.419848 0.824529
C130  C     C_R   0.000000 0.000040 0.580152 0.824530
C131  C     C_R   0.000000 0.360054 0.000000 0.845245
C132  C     C_R   0.500000 0.860054 0.500000 0.845245
C133  C     C_1   0.500000 0.282569 0.500000 -0.182446
C134  C     C_1   0.000000 0.782570 1.000000 -0.182446
C135  C     C_1   1.000000 0.717327 1.000000 -0.179604
C136  C     C_1   0.500000 0.217327 0.500000 -0.179604
C137  C     C_1   0.500000 0.717244 0.500000 -0.167508
C138  C     C_3   0.500043 0.564840 0.733606 -0.047696
C139  C     C_1   0.000000 0.217244 0.000000 -0.167508
C140  C     C_1   0.000000 0.282535 0.000000 -0.166107
C141  C     C_1   0.500000 0.782535 0.500000 -0.166107
C142  C     C_3   0.559888 0.462498 0.737261 -0.039494
C143  C     C_3   0.559909 0.462535 0.262740 -0.039494
C144  C     C_3   0.440068 0.462574 0.737260 -0.039496
C145  C     C_3   0.440089 0.462538 0.262739 -0.039495
C146  C     C_3   0.059911 0.962538 0.237261 -0.039495
C147  C     C_3   0.059932 0.962574 0.762740 -0.039497
C148  C     C_3   0.940091 0.962535 0.237261 -0.039494
C149  C     C_3   0.500001 0.564841 0.266393 -0.047698
C150  C     C_3   0.940112 0.962498 0.762739 -0.039494
C151  C     C_3   0.559947 0.534379 0.762730 -0.038642
C152  C     C_3   0.559924 0.534416 0.237270 -0.038641
C153  C     C_3   0.440099 0.534455 0.762729 -0.038642
C154  C     C_3   0.440076 0.534419 0.237270 -0.038641
C155  C     C_3   0.059924 0.034419 0.262730 -0.038641
C156  C     C_3   0.059901 0.034455 0.737271 -0.038642
C157  C     C_3   0.940076 0.034416 0.262730 -0.038641
C158  C     C_3   0.940053 0.034379 0.737270 -0.038642
C159  C     C_1   0.500000 0.500410 0.875157 -0.182560
C160  C     C_3   0.999999 0.064841 0.233607 -0.047698
C161  C     C_1   0.500000 0.500410 0.124843 -0.182563
C162  C     C_1   0.000000 0.000410 0.375157 -0.182562
C163  C     C_1   0.000000 0.000410 0.624843 -0.182561
C164  C     C_1   0.500000 0.497806 0.624840 -0.182424
C165  C     C_1   0.500000 0.497806 0.375160 -0.182426
C166  C     C_1   0.000000 0.997807 0.124840 -0.182426
C167  C     C_1   1.000000 0.997806 0.875160 -0.182423
C168  C     C_3   0.499958 0.432120 0.766400 -0.049920
C169  C     C_3   0.499998 0.432120 0.233600 -0.049923
C170  C     C_3   0.000002 0.932120 0.266400 -0.049923
C171  C     C_3   0.999957 0.064840 0.766393 -0.047696
C172  C     C_3   0.000042 0.932120 0.733600 -0.049920
C173  C     C_3   0.500003 0.503449 0.791851 0.031904
C174  C     C_3   0.499999 0.503449 0.208149 0.031904
C175  C     C_3   0.000000 0.003449 0.291851 0.031904
C176  C     C_3   0.999997 0.003449 0.708149 0.031904
C177  C     C_3   0.499998 0.493506 0.708140 0.031280
C178  C     C_3   0.500000 0.493507 0.291860 0.031281
C179  C     C_3   0.000000 0.993507 0.208140 0.031281
C180  C     C_3   0.000002 0.993506 0.791860 0.031280
C181  C     C_R   0.628449 0.577034 0.772119 0.109405
C182  C     C_1   0.500001 0.501740 0.837588 -0.079401
C183  C     C_R   0.675739 0.594810 0.739160 -0.122817
C184  C     C_R   0.739969 0.633399 0.746778 -0.127040
C185  C     C_R   0.757547 0.654789 0.787338 -0.110183
C186  C     C_R   0.710554 0.638214 0.820250 -0.151507
C187  C     C_R   0.646212 0.599613 0.812753 -0.147059
C188  C     C_R   0.628401 0.577112 0.227882 0.109406
C189  C     C_R   0.675678 0.594921 0.260841 -0.122813
C190  C     C_R   0.739884 0.633548 0.253223 -0.127030
C191  C     C_R   0.757452 0.654946 0.212663 -0.110178
C192  C     C_R   0.710472 0.638338 0.179751 -0.151490
Cu1   Cu    Cu3+1 0.500000 0.427500 0.000000 0.978459
Cu2   Cu    Cu3+1 1.000000 0.500000 0.041440 0.966794
Cu3   Cu    Cu3+1 0.500000 1.000000 0.458560 0.966794
Cu4   Cu    Cu3+1 0.500000 1.000000 0.541440 0.966794
Cu5   Cu    Cu3+1 0.000000 0.927500 0.500000 0.978459
Cu6   Cu    Cu3+1 0.500000 0.572500 0.000000 0.946790
Cu7   Cu    Cu3+1 1.000000 0.072500 0.500000 0.946790
Cu8   Cu    Cu3+1 0.572520 0.499840 0.500000 0.959273
Cu9   Cu    Cu3+1 0.427480 0.499840 0.500000 0.959264
Cu10  Cu    Cu3+1 0.072520 0.999840 0.000000 0.959264
Cu11  Cu    Cu3+1 0.927480 0.999840 0.000000 0.959273
Cu12  Cu    Cu3+1 1.000000 0.500000 0.958560 0.966794
H1    H     H_    0.662945 0.578451 0.707531 0.135951
H2    H     H_    0.610833 0.588286 0.161233 0.141113
H3    H     H_    0.337159 0.578656 0.707529 0.135951
H4    H     H_    0.224044 0.647010 0.721226 0.140043
H5    H     H_    0.192909 0.685012 0.793223 0.144045
H6    H     H_    0.276252 0.655693 0.851621 0.134267
H7    H     H_    0.389228 0.588364 0.838765 0.141116
H8    H     H_    0.337113 0.578565 0.292471 0.135949
H9    H     H_    0.223958 0.646851 0.278772 0.140035
H10   H     H_    0.192796 0.684827 0.206775 0.144031
H11   H     H_    0.276152 0.655548 0.148376 0.134272
H12   H     H_    0.776144 0.646664 0.721231 0.140027
H13   H     H_    0.389167 0.588288 0.161232 0.141112
H14   H     H_    0.162887 0.078564 0.207529 0.135949
H15   H     H_    0.276042 0.146851 0.221227 0.140035
H16   H     H_    0.307204 0.184827 0.293225 0.144031
H17   H     H_    0.223848 0.155548 0.351624 0.134273
H18   H     H_    0.110833 0.088288 0.338767 0.141112
H19   H     H_    0.162841 0.078657 0.792472 0.135951
H20   H     H_    0.275955 0.147011 0.778774 0.140043
H21   H     H_    0.307091 0.185012 0.706777 0.144045
H22   H     H_    0.223748 0.155692 0.648379 0.134267
H23   H     H_    0.807322 0.684629 0.793228 0.144015
H24   H     H_    0.110773 0.088364 0.661235 0.141116
H25   H     H_    0.837108 0.078556 0.207530 0.135950
H26   H     H_    0.723950 0.146837 0.221228 0.140035
H27   H     H_    0.692789 0.184814 0.293226 0.144030
H28   H     H_    0.776149 0.155541 0.351624 0.134273
H29   H     H_    0.889167 0.088286 0.338767 0.141113
H30   H     H_    0.837054 0.078450 0.792469 0.135951
H31   H     H_    0.723856 0.146664 0.778769 0.140027
H32   H     H_    0.692678 0.184629 0.706772 0.144015
H33   H     H_    0.776060 0.155412 0.648375 0.134277
H34   H     H_    0.723941 0.655411 0.851624 0.134277
H35   H     H_    0.889118 0.088225 0.661233 0.141110
H36   H     H_    0.663527 0.419054 0.792252 0.134991
H37   H     H_    0.776230 0.350106 0.778424 0.140254
H38   H     H_    0.806177 0.310672 0.706515 0.144233
H39   H     H_    0.722059 0.339170 0.648346 0.133626
H40   H     H_    0.609482 0.407144 0.661339 0.141494
H41   H     H_    0.663570 0.419148 0.207749 0.134987
H42   H     H_    0.776315 0.350267 0.221577 0.140246
H43   H     H_    0.806290 0.310857 0.293487 0.144218
H44   H     H_    0.722160 0.339313 0.351656 0.133629
H45   H     H_    0.610882 0.588225 0.838767 0.141110
H46   H     H_    0.609542 0.407221 0.338663 0.141502
H47   H     H_    0.336375 0.419257 0.792250 0.134986
H48   H     H_    0.223586 0.350449 0.778421 0.140237
H49   H     H_    0.193590 0.311054 0.706511 0.144202
H50   H     H_    0.277741 0.339454 0.648343 0.133631
H51   H     H_    0.390402 0.407288 0.661337 0.141509
H52   H     H_    0.336426 0.419152 0.207748 0.134987
H53   H     H_    0.223679 0.350276 0.221576 0.140245
H54   H     H_    0.193702 0.310869 0.293487 0.144217
H55   H     H_    0.277832 0.339325 0.351656 0.133630
H56   H     H_    0.662892 0.578556 0.292470 0.135950
H57   H     H_    0.390452 0.407229 0.338663 0.141503
H58   H     H_    0.163574 0.919153 0.292251 0.134987
H59   H     H_    0.276321 0.850276 0.278424 0.140245
H60   H     H_    0.306298 0.810869 0.206513 0.144217
H61   H     H_    0.222168 0.839325 0.148344 0.133629
H62   H     H_    0.109548 0.907228 0.161337 0.141503
H63   H     H_    0.163626 0.919259 0.707750 0.134986
H64   H     H_    0.276416 0.850452 0.721580 0.140237
H65   H     H_    0.306410 0.811054 0.793489 0.144202
H66   H     H_    0.222256 0.839451 0.851657 0.133631
H67   H     H_    0.776050 0.646837 0.278772 0.140035
H68   H     H_    0.109595 0.907285 0.838663 0.141509
H69   H     H_    0.836430 0.919147 0.292251 0.134987
H70   H     H_    0.723685 0.850267 0.278424 0.140246
H71   H     H_    0.693710 0.810857 0.206513 0.144218
H72   H     H_    0.777840 0.839314 0.148344 0.133629
H73   H     H_    0.890457 0.907221 0.161337 0.141502
H74   H     H_    0.836473 0.919054 0.707748 0.134991
H75   H     H_    0.723770 0.850106 0.721576 0.140254
H76   H     H_    0.693823 0.810671 0.793485 0.144233
H77   H     H_    0.777941 0.839169 0.851654 0.133626
H78   H     H_    0.807211 0.684814 0.206774 0.144030
H79   H     H_    0.890518 0.907144 0.838661 0.141493
H80   H     H_    0.723851 0.655541 0.148376 0.134273
N1    N     N_1   0.500128 0.696736 0.701839 -0.287934
N2    N     N_1   0.500004 0.696738 0.298160 -0.287934
N3    N     N_1   0.999996 0.196738 0.201840 -0.287934
N4    N     N_1   0.999872 0.196736 0.798161 -0.287934
N5    N     N_1   0.499873 0.300267 0.798218 -0.286385
N6    N     N_1   0.499995 0.300267 0.201783 -0.286385
N7    N     N_1   0.000005 0.800267 0.298217 -0.286385
N8    N     N_1   0.000127 0.800267 0.701782 -0.286384
O1    O     O_R   0.605840 0.438770 0.000000 -0.579141
O2    O     O_R   0.394240 0.561230 0.000000 -0.586786
O3    O     O_R   0.105760 0.061230 0.500000 -0.586785
O4    O     O_R   0.894240 0.061230 0.500000 -0.586785
O5    O     O_R   0.500000 0.438780 0.939540 -0.573205
O6    O     O_R   0.500000 0.438780 0.060460 -0.573206
O7    O     O_R   0.000000 0.938780 0.439540 -0.573206
O8    O     O_R   0.000000 0.938780 0.560460 -0.573205
O9    O     O_R   0.500000 0.561230 0.939540 -0.589464
O10   O     O_R   0.500000 0.561230 0.060460 -0.589463
O11   O     O_R   0.000000 0.061230 0.439540 -0.589463
O12   O     O_R   0.394160 0.438770 0.000000 -0.579140
O13   O     O_R   0.000000 0.061230 0.560460 -0.589464
O14   O     O_R   0.561200 0.394070 0.500000 -0.586044
O15   O     O_R   0.438800 0.394070 0.500000 -0.586043
O16   O     O_R   0.061200 0.894070 0.000000 -0.586044
O17   O     O_R   0.938800 0.894070 0.000000 -0.586044
O18   O     O_R   0.561230 0.499860 0.560460 -0.583272
O19   O     O_R   0.561230 0.499860 0.439540 -0.583279
O20   O     O_R   0.438770 0.499860 0.560460 -0.583284
O21   O     O_R   0.438770 0.499860 0.439540 -0.583279
O22   O     O_R   0.061230 0.999860 0.060460 -0.583279
O23   O     O_R   0.105840 0.938770 0.500000 -0.579140
O24   O     O_R   0.061230 0.999860 0.939540 -0.583284
O25   O     O_R   0.938770 0.999860 0.060460 -0.583278
O26   O     O_R   0.938770 0.999860 0.939540 -0.583273
O27   O     O_R   0.561270 0.605640 0.500000 -0.580187
O28   O     O_R   0.438730 0.605640 0.500000 -0.580189
O29   O     O_R   0.061270 0.105640 0.000000 -0.580190
O30   O     O_R   0.938730 0.105640 0.000000 -0.580187
O31   O     O_R   1.000000 0.605780 0.965000 -0.585781
O32   O     O_R   0.000000 0.605780 0.035000 -0.585781
O33   O     O_R   0.500000 0.105780 0.465000 -0.585781
O34   O     O_R   0.894160 0.938770 0.500000 -0.579141
O35   O     O_R   0.500000 0.105780 0.535000 -0.585781
O36   O     O_R   0.894200 0.500000 0.965010 -0.583952
O37   O     O_R   0.894200 0.500000 0.034990 -0.583950
O38   O     O_R   0.105800 0.500000 0.965010 -0.583949
O39   O     O_R   0.105800 0.500000 0.034990 -0.583951
O40   O     O_R   0.394200 1.000000 0.465010 -0.583951
O41   O     O_R   0.394200 1.000000 0.534990 -0.583949
O42   O     O_R   0.605800 1.000000 0.465010 -0.583950
O43   O     O_R   0.605800 1.000000 0.534990 -0.583952
O44   O     O_R   1.000000 0.394210 0.965010 -0.580619
O45   O     O_R   0.000000 0.394210 0.034990 -0.580620
O46   O     O_R   0.500000 0.894210 0.465010 -0.580619
O47   O     O_R   0.500000 0.894210 0.534990 -0.580620
O48   O     O_R   0.605760 0.561230 0.000000 -0.586785

loop_
_geom_bond_atom_site_label_1
_geom_bond_atom_site_label_2
_ccdc_geom_bond_type
C104  N8    T    
C111  O14   A    
C19   C20   A    
C10   C154  S    
C181  C187  A    
Cu6   O10   S    
C21   H17   S    
C5    C6    A    
Cu12  O38   S    
C142  C177  S    
C153  C173  S    
C85   H70   S    
Cu3   O46   S    
C73   C74   A    
C143  C178  S    
C37   C42   A    
Cu5   Cu7   S    
Cu3   O40   S    
C122  O36   A    
C150  C172  S    
C103  C170  S    
C169  C174  S    
C88   H73   S    
Cu8   O27   S    
C73   H60   S    
Cu1   O6    S    
C83   C88   A    
C59   C60   A    
C21   C22   A    
C114  O21   A    
C48   H39   S    
C122  O37   A    
C45   C47   A    
C32   H26   S    
Cu10  Cu11  S    
C51   C52   A    
C105  O2    A    
C191  H78   S    
C15   H11   S    
Cu12  O36   S    
C4    C5    A    
C69   H57   S    
C57   C166  T    
C118  O28   A    
C106  C127  S    
C130  O8    A    
C142  C151  S    
C131  O45   A    
C91   H74   S    
C65   H53   S    
C183  C184  A    
C53   H43   S    
C37   C38   A    
C5    H3    S    
C103  N7    T    
C112  O16   A    
C119  O30   A    
C96   N1    T    
C89   C150  S    
C173  C182  S    
C157  C160  S    
C95   H79   S    
C26   H20   S    
C1    C79   S    
C56   C62   A    
C17   C155  S    
C39   C40   A    
Cu5   O7    S    
C13   C175  S    
C72   H59   S    
C121  O35   A    
C113  O18   A    
C90   C105  S    
C112  C134  S    
C72   C73   A    
C139  C140  T    
C6    C7    A    
C138  C151  S    
C30   C36   A    
C120  C135  S    
C86   H71   S    
C10   C16   A    
C64   C65   A    
Cu5   O34   S    
C126  O9    A    
C124  O40   A    
C31   H25   S    
C81   H66   S    
C142  C168  S    
Cu3   Cu4   S    
C20   C21   A    
Cu4   O41   S    
C43   C142  S    
C107  C122  S    
C67   C69   A    
C186  C187  A    
Cu4   O47   S    
C116  O3    A    
C99   N4    T    
C112  O17   A    
C46   C165  T    
Cu8   O14   S    
C84   H69   S    
C97   N2    T    
C7    C8    A    
C120  O32   A    
C126  C159  S    
C111  O15   A    
C23   C29   A    
C51   H41   S    
C80   H65   S    
C96   C138  S    
C38   C39   A    
C78   C80   A    
C184  C185  A    
C92   C93   A    
C63   C69   A    
Cu9   O21   S    
C70   C146  S    
C89   C91   A    
C6    H4    S    
C71   H58   S    
C66   C67   A    
C121  C136  S    
Cu7   O3    S    
C58   H47   S    
C94   C95   A    
C8    H6    S    
C44   H36   S    
C62   H51   S    
C43   C49   A    
Cu9   O28   S    
C154  C174  S    
C127  O34   A    
C125  O42   A    
Cu11  O26   S    
C76   C82   A    
C91   C92   A    
C27   H21   S    
C123  O38   A    
C25   C26   A    
C129  O7    A    
C187  H45   S    
Cu12  O31   S    
C11   H8    S    
C83   C84   A    
Cu2   Cu12  S    
Cu4   O43   S    
C17   C18   A    
C131  O44   A    
C98   C160  S    
Cu6   O2    S    
C183  H1    S    
C145  C154  S    
C18   H14   S    
Cu1   O1    S    
C98   N3    T    
C114  C165  S    
C132  C141  S    
Cu9   O20   S    
C54   C55   A    
C131  C140  S    
C63   C64   A    
C66   H54   S    
C156  C176  S    
C47   H38   S    
C134  C135  T    
C35   C164  T    
C1    O1    A    
Cu10  O29   S    
C90   C108  T    
C71   C72   A    
C3    C192  A    
C149  C178  S    
C56   C58   A    
C4    C153  S    
Cu10  O24   S    
C148  C157  S    
C61   C62   A    
C10   C11   A    
C83   C148  S    
C70   C75   A    
C97   C149  S    
C14   C15   A    
C29   H24   S    
C4    C9    A    
C33   H27   S    
C138  C177  S    
C75   H62   S    
C67   H55   S    
Cu12  O44   S    
Cu1   O5    S    
C35   C177  S    
C30   C157  S    
C87   C88   A    
C41   C42   A    
C152  C188  S    
C13   C162  T    
C126  O5    A    
C41   H33   S    
C77   C78   A    
C52   C53   A    
C22   H18   S    
C26   C27   A    
C190  C191  A    
C132  O47   A    
C28   C29   A    
Cu1   O12   S    
C30   C31   A    
C74   H61   S    
C184  H12   S    
C117  O26   A    
C101  C109  T    
Cu1   Cu6   S    
C185  H23   S    
C14   H10   S    
C18   C19   A    
C115  O22   A    
C146  C155  S    
C119  O29   A    
C145  C178  S    
C70   C71   A    
C54   H44   S    
C40   H32   S    
C104  C172  S    
C181  C183  A    
C23   C156  S    
Cu2   O37   S    
C12   H9    S    
C7    H5    S    
C151  C181  S    
C170  C175  S    
Cu6   O9    S    
C145  C169  S    
C84   C85   A    
C57   C179  S    
C86   C87   A    
C58   C59   A    
C53   C54   A    
C191  C192  A    
C60   C61   A    
Cu10  O22   S    
C89   C95   A    
C149  C154  S    
C100  N5    T    
C128  O10   A    
C123  O39   A    
C50   C51   A    
C55   H46   S    
C79   C107  T    
C115  C166  S    
C147  C156  S    
C85   C86   A    
C94   H77   S    
C138  C153  S    
C48   C49   A    
C24   C163  T    
C108  C123  S    
C115  O25   A    
C44   C45   A    
C150  C180  S    
C155  C175  S    
C137  C141  T    
C129  O11   A    
C150  C158  S    
C189  H56   S    
C34   H28   S    
Cu8   O19   S    
C60   H49   S    
C38   H30   S    
C42   H35   S    
C130  O13   A    
C118  O27   A    
C17   C22   A    
C119  C139  S    
C32   C33   A    
C121  O33   A    
C185  C186  A    
C117  C167  S    
C128  C161  S    
Cu7   O11   S    
C146  C179  S    
C159  C182  T    
C189  C190  A    
C56   C144  S    
Cu11  O30   S    
C144  C177  S    
C101  C116  S    
C127  O4    A    
Cu5   O8    S    
C130  C163  S    
C61   H50   S    
C151  C173  S    
C46   C178  S    
C190  H67   S    
C43   C44   A    
C3    C188  A    
C81   C82   A    
Cu2   O45   S    
C144  C168  S    
Cu4   O35   S    
Cu2   O39   S    
Cu11  O25   S    
C116  O23   A    
C158  C171  S    
C120  O31   A    
C99   C171  S    
C15   C16   A    
C132  O46   A    
C82   H68   S    
C144  C153  S    
C93   H76   S    
C186  H34   S    
C147  C180  S    
C76   C147  S    
C8    C9    A    
C133  C136  T    
Cu2   O32   S    
C24   C176  S    
C118  C137  S    
C192  H80   S    
C34   C36   A    
C102  N6    T    
C152  C174  S    
C102  C169  S    
C20   H16   S    
C2    C161  T    
C168  C173  S    
C113  O20   A    
C74   C75   A    
C114  O19   A    
Cu9   O15   S    
Cu10  O16   S    
C76   C77   A    
C143  C169  S    
C149  C152  S    
C28   H22   S    
Cu8   Cu9   S    
C36   H29   S    
C68   C180  S    
C77   H63   S    
C188  C189  A    
C1    O48   A    
C105  O12   A    
C78   H64   S    
C37   C158  S    
C160  C179  S    
Cu6   O48   S    
C148  C170  S    
C47   C48   A    
C33   C34   A    
C16   H13   S    
C93   C94   A    
Cu3   O42   S    
C157  C175  S    
C158  C176  S    
C40   C41   A    
C12   C14   A    
Cu7   O4    S    
C146  C170  S    
C171  C180  S    
C19   H15   S    
C87   H72   S    
C45   H37   S    
C59   H48   S    
C49   H40   S    
C50   C143  S    
C106  C110  T    
C147  C172  S    
C143  C152  S    
C155  C160  S    
C3    H2    S    
C125  O43   A    
C31   C32   A    
C80   C81   A    
Cu3   O33   S    
C52   H42   S    
C11   C12   A    
C109  C124  S    
C128  O6    A    
C111  C133  S    
C124  O41   A    
C148  C179  S    
Cu5   O23   S    
C156  C171  S    
C50   C55   A    
C100  C168  S    
Cu7   O13   S    
C92   H75   S    
Cu8   O18   S    
C2    C174  S    
C113  C164  S    
C39   H31   S    
C9    H7    S    
C63   C145  S    
C129  C162  S    
C25   H19   S    
C23   C25   A    
C110  C125  S    
C68   C167  T    
C172  C176  S    
C65   C66   A    
C27   C28   A    
C64   H52   S    
C117  O24   A    
Cu11  O17   S    
