data_mof_unit_22747.cif
_audit_creation_date              2012-12-11T20:37:33-0500
_audit_creation_method            fapswitch 2.2
_symmetry_space_group_name_H-M    P1
_symmetry_Int_Tables_number       1
_space_group_crystal_system       triclinic
_cell_length_a                    8.307283
_cell_length_b                    18.861748
_cell_length_c                    22.973607
_cell_angle_alpha                 98.039085
_cell_angle_beta                  89.916177
_cell_angle_gamma                 93.386406
_cell_volume                      3558.04879296

loop_
_atom_site_label
_atom_site_type_symbol
_atom_type_description
_atom_site_fract_x
_atom_site_fract_y
_atom_site_fract_z
_atom_type_partial_charge
Ba1   Ba    Ba6+2 0.849480 0.533290 0.473010 1.656234
Ba2   Ba    Ba6+2 0.340340 0.466770 0.527000 1.683543
C1    C     C_3   0.639385 0.797294 0.331363 -0.233872
C2    C     C_R   0.109626 0.558671 0.939354 -0.033085
C3    C     C_R   0.067564 0.553533 0.878699 0.601761
C4    C     C_3   0.095653 0.685865 0.322910 0.300839
C5    C     C_R   0.952012 0.434246 0.880319 0.571965
C6    C     C_R   0.994286 0.437431 0.940347 -0.020690
C7    C     C_R   0.072929 0.500022 0.970101 -0.052055
C8    C     C_R   0.186702 0.621354 0.970282 -0.067819
C9    C     C_R   0.225245 0.625656 0.030175 -0.062931
C10   C     C_R   0.189783 0.567140 0.061304 -0.022845
C11   C     C_R   0.114292 0.503980 0.030932 -0.049618
C12   C     C_3   0.597852 0.720677 0.343082 0.244301
C13   C     C_R   0.958806 0.378884 0.971367 -0.064704
C14   C     C_R   0.001809 0.382250 0.030526 -0.087848
C15   C     C_R   0.080178 0.444628 0.061116 -0.025282
C16   C     C_3   0.084474 0.710453 0.262985 -0.298800
C17   C     C_R   0.126242 0.448429 0.120948 0.576833
C18   C     C_R   0.227756 0.570572 0.122019 0.578790
C19   C     C_2   0.799818 0.455864 0.766727 -0.075660
C20   C     C_3   0.774723 0.429764 0.702147 -0.052624
C21   C     C_1   0.011406 0.507015 0.683666 0.066653
C22   C     C_2   0.059417 0.510034 0.739994 -0.107447
C23   C     C_3   0.591578 0.338796 0.338575 0.243715
C24   C     C_2   0.945122 0.486226 0.786268 0.176754
C25   C     C_R   0.397627 0.544303 0.234073 -0.116927
C26   C     C_R   0.444170 0.545907 0.293003 -0.014276
C27   C     C_R   0.188953 0.486080 0.314154 0.001543
C28   C     C_3   0.122472 0.700793 0.626539 0.249447
C29   C     C_R   0.140020 0.485442 0.255097 -0.096515
C30   C     C_R   0.244049 0.514392 0.213812 0.203317
C31   C     C_2   0.879608 0.469572 0.662551 -0.296865
C32   C     C_2   0.391752 0.703094 0.484536 -0.269924
C33   C     C_3   0.255341 0.753301 0.489021 -0.034665
C34   C     C_3   0.673767 0.300002 0.283816 -0.162144
C35   C     C_2   0.320050 0.828645 0.482660 -0.128080
C36   C     C_2   0.475097 0.849214 0.498049 -0.070283
C37   C     C_2   0.583212 0.794032 0.514576 -0.102571
C38   C     C_1   0.528662 0.726114 0.511806 0.076701
C39   C     C_R   0.653588 0.063903 0.505205 0.534011
C40   C     C_3   0.023255 0.764188 0.653155 -0.178804
C41   C     C_R   0.537339 0.924872 0.500085 0.461321
C42   C     C_R   0.617749 0.189639 0.486276 -0.110849
C43   C     C_R   0.659984 0.263228 0.494981 0.026416
C44   C     C_R   0.901180 0.242323 0.547969 -0.040419
C45   C     C_3   0.086679 0.315613 0.685816 0.276123
C46   C     C_R   0.863985 0.167454 0.537051 -0.131903
C47   C     C_R   0.713935 0.140897 0.509539 -0.033931
C48   C     C_R   0.792652 0.289293 0.530255 -0.214159
C49   C     C_3   0.140878 0.306254 0.365490 0.255865
C50   C     C_3   0.163042 0.241770 0.318438 -0.440183
C51   C     C_3   0.679946 0.617990 0.648798 0.286087
C52   C     C_3   0.677434 0.633535 0.715625 -0.326632
C53   C     C_3   0.993915 0.819933 0.611904 -0.262921
C54   C     C_3   0.120223 0.883282 0.618899 -0.231520
C55   C     C_3   0.067025 0.944196 0.587843 -0.357691
C56   C     C_3   0.108402 0.298258 0.748030 -0.215494
C57   C     C_2   0.075998 0.282446 0.420066 0.562972
C58   C     C_2   0.573586 0.234651 0.256226 0.590273
C59   C     C_3   0.722842 0.349898 0.238106 -0.300699
C60   C     C_3   0.582072 0.373879 0.203619 -0.210969
C61   C     C_3   0.643341 0.423191 0.159978 -0.378595
C62   C     C_2   0.592777 0.806576 0.269948 0.603379
C63   C     C_2   0.011353 0.231344 0.757614 0.509717
C64   C     C_2   0.504524 0.238611 0.630851 0.529822
C65   C     C_2   0.988965 0.118765 0.549433 0.534617
C66   C     C_2   0.295828 0.721499 0.623391 0.511828
C67   C     C_3   0.558087 0.280747 0.688650 0.304742
C68   C     C_3   0.543839 0.234902 0.738718 -0.232269
C69   C     C_R   0.340023 0.517039 0.332267 -0.285070
H1    H     H_    0.631919 0.718461 0.389554 0.068999
H2    H     H_    0.770955 0.810323 0.338694 0.140510
H3    H     H_    0.767522 0.677559 0.731863 0.124610
H4    H     H_    0.706619 0.585115 0.734845 0.072467
H5    H     H_    0.555626 0.649214 0.730603 0.148466
H6    H     H_    0.465569 0.708318 0.337170 -0.032805
H7    H     H_    0.573052 0.835127 0.362874 0.032770
H8    H     H_    0.479935 0.361687 0.325401 -0.067166
H9    H     H_    0.672577 0.383096 0.359528 0.092986
H10   H     H_    0.787170 0.280590 0.299596 0.143519
H11   H     H_    0.069294 0.662237 0.228494 0.119526
H12   H     H_    0.076508 0.790417 0.695650 0.147154
H13   H     H_    0.148902 0.368867 0.683413 0.077532
H14   H     H_    0.956214 0.318135 0.677248 -0.069095
H15   H     H_    0.070772 0.344513 0.778645 0.119806
H16   H     H_    0.236244 0.292248 0.757973 0.094839
H17   H     H_    0.687989 0.295842 0.685036 -0.108079
H18   H     H_    0.629332 0.191498 0.731580 0.127145
H19   H     H_    0.420305 0.209387 0.740764 0.101640
H20   H     H_    0.980624 0.654969 0.329841 0.119119
H21   H     H_    0.573183 0.268786 0.781498 0.149213
H22   H     H_    0.972318 0.335766 0.052399 0.125476
H23   H     H_    0.903828 0.741397 0.664396 0.128543
H24   H     H_    0.897896 0.329800 0.949872 0.142203
H25   H     H_    0.283949 0.675114 0.052015 0.133858
H26   H     H_    0.482454 0.565173 0.204001 0.118942
H27   H     H_    0.217144 0.667617 0.948290 0.130891
H28   H     H_    0.181420 0.529550 0.752716 0.142318
H29   H     H_    0.708356 0.440920 0.797182 0.123851
H30   H     H_    0.022310 0.462145 0.241242 0.118333
H31   H     H_    0.378681 0.517238 0.377256 0.076865
H32   H     H_    0.198150 0.650345 0.322963 -0.020449
H33   H     H_    0.862010 0.455199 0.615518 0.081133
H34   H     H_    0.258420 0.336027 0.374314 0.033901
H35   H     H_    0.237454 0.867371 0.471669 0.110049
H36   H     H_    0.706933 0.809658 0.527718 0.098082
H37   H     H_    0.510337 0.170670 0.460784 0.115628
H38   H     H_    0.378638 0.649865 0.459117 0.061245
H39   H     H_    0.822214 0.346492 0.537709 0.094022
H40   H     H_    0.977402 0.743738 0.261304 0.166324
H41   H     H_    0.196807 0.743027 0.254269 0.132328
H42   H     H_    0.075993 0.678888 0.582060 -0.009199
H43   H     H_    0.037723 0.924510 0.541046 0.173239
H44   H     H_    0.959484 0.967709 0.609863 0.161326
H45   H     H_    0.047182 0.209713 0.309566 0.141482
H46   H     H_    0.165910 0.986689 0.589845 0.164366
H47   H     H_    0.139949 0.904082 0.666175 0.161338
H48   H     H_    0.236055 0.865982 0.599531 0.169447
H49   H     H_    0.989087 0.794271 0.565481 0.130154
H50   H     H_    0.873694 0.841246 0.622606 0.144338
H51   H     H_    0.060348 0.226124 0.425772 -0.057031
H52   H     H_    0.455450 0.239961 0.238146 -0.028463
H53   H     H_    0.709386 0.471647 0.183311 0.147799
H54   H     H_    0.725045 0.394678 0.127647 0.146263
H55   H     H_    0.539825 0.440151 0.135826 0.127134
H56   H     H_    0.254943 0.206707 0.332796 0.123814
H57   H     H_    0.515835 0.326849 0.178274 0.134809
H58   H     H_    0.496965 0.402545 0.234303 0.113603
H59   H     H_    0.790112 0.398059 0.260982 0.163838
H60   H     H_    0.807182 0.321767 0.206389 0.160216
H61   H     H_    0.467365 0.798754 0.256164 -0.004773
H62   H     H_    0.042951 0.179744 0.734297 0.011869
H63   H     H_    0.494104 0.266941 0.593499 0.020122
H64   H     H_    0.056047 0.128736 0.590496 0.018020
H65   H     H_    0.364850 0.680758 0.601250 -0.055219
H66   H     H_    0.203595 0.261133 0.276814 0.130069
H67   H     H_    0.800703 0.601796 0.634248 -0.003258
H68   H     H_    0.589499 0.573314 0.634931 0.094110
N1    N     N_R   0.989728 0.491497 0.849165 -0.425960
N2    N     N_R   0.197234 0.511367 0.151640 -0.424049
N3    N     N_R   0.527306 0.037724 0.469266 -0.222275
N4    N     N_R   0.470191 0.969736 0.466815 -0.221471
N5    N     N_R   0.661955 0.951053 0.536422 -0.248895
N6    N     N_R   0.717618 0.019147 0.539281 -0.228329
O1    O     O_2   0.898140 0.461210 0.359840 -0.458668
O2    O     O_2   0.235188 0.246784 0.534617 -0.463463
O3    O     O_3   0.153544 0.263541 0.644922 -0.612023
O4    O     O_3   0.138540 0.461940 0.430900 -0.439860
O5    O     O_3   0.557600 0.585010 0.531050 -0.493093
O6    O     O_2   0.379790 0.327560 0.468300 -0.449289
O7    O     O_3   0.553908 0.288279 0.376581 -0.653115
O8    O     O_2   0.462529 0.480125 0.707394 -0.493617
O9    O     O_3   0.462597 0.340668 0.701707 -0.610683
O10   O     O_2   0.097893 0.604960 0.852696 -0.583182
O11   O     O_2   0.881684 0.379745 0.855868 -0.578319
O12   O     O_3   0.644302 0.680217 0.625596 -0.617128
O13   O     O_2   0.105710 0.394977 0.145248 -0.612190
O14   O     O_2   0.287009 0.626763 0.148461 -0.604762
O15   O     O_3   0.654260 0.589640 0.397760 -0.477803
O16   O     O_2   0.780511 0.542135 0.293881 -0.510906
O17   O     O_3   0.026478 0.348524 0.345775 -0.645312
O18   O     O_3   0.684930 0.672478 0.304506 -0.599087
O19   O     O_2   0.809910 0.672460 0.531740 -0.481604
O20   O     O_3   0.065030 0.625960 0.427320 -0.493518
O21   O     O_2   0.925083 0.748477 0.454809 -0.495203
O22   O     O_2   0.037801 0.328633 0.459166 -0.575358
O23   O     O_3   0.121228 0.746207 0.366278 -0.600579
O24   O     O_2   0.624876 0.174994 0.253964 -0.547164
O25   O     O_2   0.695001 0.823208 0.235276 -0.543276
O26   O     O_2   0.896550 0.234663 0.791587 -0.550636
O27   O     O_2   0.471823 0.173898 0.625138 -0.597244
O28   O     O_2   0.024173 0.069403 0.512283 -0.563280
O29   O     O_2   0.359496 0.777000 0.649323 -0.596332
O30   O     O_2   0.291560 0.538810 0.640200 -0.467294
O31   O     O_3   0.051160 0.538120 0.569110 -0.489343
O32   O     O_3   0.535440 0.410410 0.602240 -0.486887
O33   O     O_3   0.112575 0.649559 0.664887 -0.648325
O34   O     O_3   0.632100 0.415050 0.468960 -0.469898
O35   O     O_3   0.124670 0.374100 0.572690 -0.440124
P1    P     P_3+3 0.069200 0.440380 0.368230 1.027370
P2    P     P_3+3 0.634560 0.662100 0.548650 0.992965
P3    P     P_3+3 0.090306 0.719236 0.435750 0.950931
P4    P     P_3+3 0.120500 0.559680 0.631780 0.989895
P5    P     P_3+3 0.103082 0.281305 0.574772 1.004700
P6    P     P_3+3 0.640879 0.585834 0.321360 0.940408
P7    P     P_3+3 0.562830 0.324123 0.451437 0.967571
P8    P     P_3+3 0.559275 0.417053 0.678500 0.929660

loop_
_geom_bond_atom_site_label_1
_geom_bond_atom_site_label_2
_ccdc_geom_bond_type
C9    H25   S    
Ba2   O5    S    
C53   C54   S    
C53   H50   S    
Ba1   O31   S    
C31   H33   S    
C41   N4    A    
O15   P6    S    
C19   C24   D    
C56   H16   S    
C61   H53   S    
C41   N5    A    
C5    C6    A    
O5    P2    S    
C51   C52   S    
O2    P5    D    
O6    P7    D    
C14   H22   S    
C35   C36   D    
O32   P8    S    
C27   P1    S    
C63   O26   D    
C23   O7    S    
C32   C38   D    
C58   O24   D    
C45   H14   S    
C64   O27   D    
C33   C35   S    
C22   C24   S    
C32   C33   S    
C24   N1    S    
C67   C68   S    
C13   H24   S    
C36   C37   S    
Ba2   O30   S    
C64   C67   S    
O34   P7    S    
C33   P3    S    
C13   C14   A    
C23   H9    S    
C48   H39   S    
C54   C55   S    
C49   O17   S    
C45   H13   S    
Ba1   Ba2   S    
C12   H6    S    
C12   O18   S    
C8    H27   S    
C7    C11   A    
C44   P5    S    
C15   C17   A    
Ba2   O31   S    
C52   H3    S    
C5    O11   D    
C62   H61   S    
Ba1   O19   S    
C6    C7    A    
C21   C31   D    
C18   O14   D    
C21   C22   D    
Ba1   O4    S    
Ba2   O32   S    
C62   O25   D    
Ba2   O4    S    
C50   H45   S    
C17   N2    Am   
C64   H63   S    
C19   C20   S    
O4    P1    S    
C63   H62   S    
C60   H58   S    
C40   H23   S    
Ba1   O1    S    
C68   H19   S    
Ba2   O35   S    
O7    P7    S    
C56   H15   S    
C39   C47   S    
C50   H56   S    
C38   P2    S    
C53   H49   S    
C42   H37   S    
C4    C16   S    
C4    O23   S    
O21   P3    D    
C49   C50   S    
O20   P3    S    
C66   H65   S    
C22   H28   S    
C16   H40   S    
O17   P1    S    
C55   H44   S    
C8    C9    A    
C37   C38   D    
C19   H29   S    
Ba1   P1    S    
C43   P7    S    
O3    P5    S    
C3    O10   D    
O9    P8    S    
C42   C47   A    
C51   H67   S    
C58   H52   S    
C65   H64   S    
O16   P6    D    
C35   H35   S    
C26   P6    S    
C40   C53   S    
C56   C63   S    
C29   C30   A    
Ba1   O20   S    
C34   H10   S    
C49   H34   S    
O23   P3    S    
C10   C18   A    
C60   C61   S    
C50   H66   S    
C28   O33   S    
Ba1   O5    S    
Ba2   P4    S    
C4    H32   S    
C67   H17   S    
C30   N2    S    
C61   H54   S    
C1    C12   S    
C59   H59   S    
C52   H5    S    
C46   C47   A    
C69   H31   S    
C6    C13   A    
O18   P6    S    
C54   H48   S    
C26   C69   A    
C49   C57   S    
Ba2   O34   S    
C2    C8    A    
C34   C59   S    
C29   H30   S    
C57   O22   D    
C42   C43   A    
C3    N1    Am   
C55   H46   S    
Ba2   O6    S    
O31   P4    S    
C20   C31   S    
C45   O3    S    
C25   H26   S    
C66   O29   D    
O1    P1    D    
C25   C30   A    
C51   H68   S    
C17   O13   D    
C54   H47   S    
C18   N2    Am   
Ba1   O15   S    
C68   H21   S    
C40   H12   S    
C16   H41   S    
C2    C3    A    
C34   C58   S    
C23   H8    S    
C37   H36   S    
Ba1   P2    S    
C55   H43   S    
O8    P8    D    
C1    C62   S    
C44   C48   A    
C51   O12   S    
C67   O9    S    
C11   C15   A    
N5    N6    A    
C12   H1    S    
C36   C41   S    
C27   C29   A    
C45   C56   S    
C60   H57   S    
Ba1   O34   S    
C14   C15   A    
C43   C48   A    
C65   O28   D    
C21   P4    S    
C16   H11   S    
C46   C65   S    
C20   P8    S    
C59   C60   S    
C1    H2    S    
C28   C66   S    
C61   H55   S    
O19   P2    D    
O35   P5    S    
C59   H60   S    
C23   C34   S    
C52   H4    S    
C68   H18   S    
C44   C46   A    
C5    N1    Am   
C39   N3    A    
C39   N6    A    
C10   C11   A    
O12   P2    S    
C25   C26   A    
C32   H38   S    
N3    N4    A    
C28   C40   S    
C2    C7    A    
C1    H7    S    
C57   H51   S    
O33   P4    S    
C4    H20   S    
C9    C10   A    
O30   P4    D    
C27   C69   A    
C28   H42   S    
