data_mof_unit_10489.cif
_audit_creation_date              2012-12-10T17:13:15-0500
_audit_creation_method            fapswitch 2.2
_symmetry_space_group_name_H-M    P1
_symmetry_Int_Tables_number       1
_space_group_crystal_system       triclinic
_cell_length_a                    11.745668
_cell_length_b                    13.002548
_cell_length_c                    13.908584
_cell_angle_alpha                 87.352215
_cell_angle_beta                  90.260197
_cell_angle_gamma                 101.296004
_cell_volume                      2080.77458073

loop_
_atom_site_label
_atom_site_type_symbol
_atom_type_description
_atom_site_fract_x
_atom_site_fract_y
_atom_site_fract_z
_atom_type_partial_charge
C1    C     C_R   0.476609 0.298263 0.498543 0.835087
C2    C     C_R   0.523544 0.700570 0.509810 0.838088
C3    C     C_R   0.552035 0.030217 0.507908 -0.104100
C4    C     C_R   0.453664 0.968487 0.557006 -0.065643
C5    C     C_R   0.028028 0.420129 0.604560 -0.257316
C6    C     C_R   0.969657 0.573174 0.391238 -0.295120
C7    C     C_R   0.149041 0.424632 0.595420 0.319733
C8    C     C_R   0.850992 0.576176 0.405307 0.319910
C9    C     C_R   0.151454 0.526490 0.448719 0.019703
C10   C     C_R   0.846653 0.466429 0.547079 0.043214
C11   C     C_R   0.029838 0.522447 0.458007 0.026721
C12   C     C_R   0.967830 0.469170 0.536809 0.025136
C13   C     C_R   0.517830 0.500651 0.681718 0.806404
C14   C     C_R   0.482108 0.498853 0.318319 0.807024
C15   C     C_1   0.471870 0.497038 0.216382 -0.148960
C16   C     C_1   0.527787 0.500365 0.783771 -0.142479
C17   C     C_2   0.452192 0.493657 0.027872 0.276764
C18   C     C_2   0.546947 0.500074 0.972480 0.277503
C19   C     C_1   0.537066 0.500137 0.869704 0.077989
C20   C     C_1   0.462321 0.495333 0.130549 0.068599
C21   C     C_R   0.540417 0.814283 0.530506 -0.245672
C22   C     C_R   0.459769 0.182294 0.501727 -0.214124
C23   C     C_R   0.362989 0.020297 0.584144 0.331900
C24   C     C_R   0.654930 0.989946 0.504705 0.330441
C25   C     C_R   0.360761 0.120982 0.546497 0.299831
C26   C     C_R   0.649024 0.881780 0.513943 0.314654
C27   C     C_R   0.548608 0.132882 0.470400 0.049939
C28   C     C_R   0.448828 0.857491 0.570048 0.017176
Cu1   Cu    Cu3+1 0.615220 0.507680 0.492970 0.968764
Cu2   Cu    Cu3+1 0.384780 0.492320 0.507030 0.954360
H1    H     H_    0.799125 0.422003 0.606934 0.141820
H2    H     H_    0.198404 0.569352 0.387863 0.132143
H3    H     H_    0.979397 0.380652 0.665828 0.147981
H4    H     H_    0.016696 0.612251 0.328912 0.147808
N1    N     N_R   0.788370 0.519230 0.482390 -0.191809
N2    N     N_R   0.211630 0.480770 0.517610 -0.190144
O1    O     O_R   0.581500 0.354430 0.495010 -0.586108
O2    O     O_R   0.418500 0.645570 0.504990 -0.602422
O3    O     O_R   0.386890 0.341450 0.506880 -0.542458
O4    O     O_R   0.613110 0.658550 0.493120 -0.544150
O5    O     O_R   0.611060 0.507430 0.631070 -0.560618
O6    O     O_R   0.388940 0.492570 0.368930 -0.564144
O7    O     O_R   0.416450 0.494450 0.642940 -0.623608
O8    O     O_R   0.583550 0.505550 0.357060 -0.609044
Cl1   Cl    Cl    0.687070 0.509662 0.022031 -0.627077
Cl2   Cl    Cl    0.312031 0.483975 0.978399 -0.630896
C29   C     C_3   0.352408 0.785336 0.627962 -0.279723
C30   C     C_3   0.236040 0.764286 0.573493 -0.302518
C31   C     C_3   0.137695 0.706711 0.638838 -0.706896
H5    H     H_    0.157308 0.630975 0.667289 0.233656
H6    H     H_    0.125635 0.755250 0.700188 0.297313
H7    H     H_    0.055497 0.691072 0.597539 0.251110
H8    H     H_    0.212745 0.837840 0.543647 0.261364
H9    H     H_    0.242851 0.716882 0.510688 0.216119
H10   H     H_    0.376468 0.709464 0.649916 0.190833
H11   H     H_    0.344949 0.816343 0.699733 0.240742
C32   C     C_3   0.625674 0.181646 0.384749 -0.309345
C33   C     C_3   0.555008 0.210996 0.297655 -0.415128
C34   C     C_3   0.634515 0.261990 0.214980 -0.727001
H12   H     H_    0.690899 0.335626 0.237910 0.269568
H13   H     H_    0.689645 0.207497 0.191238 0.258041
H14   H     H_    0.581209 0.281541 0.153148 0.259367
H15   H     H_    0.497414 0.139001 0.272520 0.233931
H16   H     H_    0.499584 0.266908 0.316694 0.222749
H17   H     H_    0.690013 0.250785 0.406822 0.245944
H18   H     H_    0.675472 0.124763 0.357612 0.227376
Cl3   Cl    Cl    0.780790 0.834987 0.512601 -0.539142
Cl4   Cl    Cl    0.225149 0.161279 0.544292 -0.534368
Cl5   Cl    Cl    0.261883 0.977777 0.679044 -0.602143
Cl6   Cl    Cl    0.793206 0.074946 0.506176 -0.532093
C35   C     C_3   0.796441 0.639697 0.329602 -0.354385
C36   C     C_3   0.874360 0.744885 0.295783 -0.385909
C37   C     C_3   0.804140 0.817529 0.243578 -0.726368
H19   H     H_    0.759179 0.778803 0.180509 0.259947
H20   H     H_    0.738716 0.838139 0.292834 0.259561
H21   H     H_    0.863185 0.891065 0.217983 0.257156
H22   H     H_    0.918887 0.785317 0.358199 0.278790
H23   H     H_    0.941400 0.730738 0.244674 0.223816
H24   H     H_    0.773327 0.591291 0.265954 0.211306
H25   H     H_    0.717505 0.659975 0.357439 0.265636
C38   C     C_3   0.207613 0.373791 0.677901 -0.355666
C39   C     C_3   0.131035 0.283204 0.737353 -0.388924
C40   C     C_3   0.204806 0.225715 0.803362 -0.661660
H26   H     H_    0.266465 0.191419 0.760594 0.284666
H27   H     H_    0.254640 0.280709 0.854247 0.263033
H28   H     H_    0.147627 0.161254 0.845376 0.263552
H29   H     H_    0.070626 0.314568 0.784101 0.228257
H30   H     H_    0.079680 0.226224 0.688885 0.295957
H31   H     H_    0.278591 0.340609 0.648729 0.272042
H32   H     H_    0.241965 0.435420 0.729018 0.216635

loop_
_geom_bond_atom_site_label_1
_geom_bond_atom_site_label_2
_ccdc_geom_bond_type
C21   C26   A    
C28   C29   S    
C37   H19   S    
C23   Cl5   S    
C32   H18   S    
C35   H24   S    
C38   C39   S    
C24   Cl6   S    
C30   H9    S    
C36   H22   S    
C26   Cl3   S    
C14   O8    A    
C24   C26   A    
C39   H29   S    
C17   C20   S    
Cu2   O2    S    
C18   C19   S    
C7    N2    A    
C36   H23   S    
C9    H2    S    
C10   H1    S    
C40   H26   S    
C34   H14   S    
C22   C25   A    
C5    H3    S    
C9    N2    A    
C10   N1    A    
C1    O1    A    
C14   O6    A    
C38   H31   S    
C1    C22   S    
C37   H20   S    
C3    C24   A    
C15   C20   T    
C25   Cl4   S    
C13   O5    A    
C35   H25   S    
C4    C28   A    
C7    C38   S    
C33   H16   S    
C30   H8    S    
C34   H13   S    
C17   Cl2   S    
C5    C12   A    
C27   C32   S    
C6    C11   A    
C5    C7    A    
C4    C23   A    
C6    C8    A    
C31   H6    S    
C33   C34   S    
C6    H4    S    
C8    N1    A    
Cu1   Cu2   S    
C2    O2    A    
C29   C30   S    
C31   H7    S    
C2    C21   S    
C17   C18   D    
C9    C11   A    
C10   C12   A    
C38   H32   S    
C30   C31   S    
C40   H27   S    
C21   C28   A    
C31   H5    S    
C22   C27   A    
Cu1   O8    S    
C37   H21   S    
Cu2   O7    S    
C3    C4    A    
C18   Cl1   S    
C13   O7    A    
C29   H10   S    
C33   H15   S    
C8    C35   S    
Cu1   O5    S    
C32   H17   S    
C36   C37   S    
C11   C12   A    
Cu1   N1    S    
Cu2   N2    S    
C3    C27   A    
C35   C36   S    
C32   C33   S    
C16   C19   T    
C39   H30   S    
Cu1   O4    S    
Cu2   O3    S    
C23   C25   A    
C1    O3    A    
C2    O4    A    
C34   H12   S    
C40   H28   S    
C39   C40   S    
C13   C16   S    
Cu1   O1    S    
C14   C15   S    
Cu2   O6    S    
C29   H11   S    
