data_mof_unit_13040.cif
_audit_creation_date              2012-12-11T17:16:56-0500
_audit_creation_method            fapswitch 2.2
_symmetry_space_group_name_H-M    P1
_symmetry_Int_Tables_number       1
_space_group_crystal_system       triclinic
_cell_length_a                    6.941848
_cell_length_b                    13.37885
_cell_length_c                    14.669146
_cell_angle_alpha                 98.859511
_cell_angle_beta                  89.74728
_cell_angle_gamma                 90.322871
_cell_volume                      1346.09676011

loop_
_atom_site_label
_atom_site_type_symbol
_atom_type_description
_atom_site_fract_x
_atom_site_fract_y
_atom_site_fract_z
_atom_type_partial_charge
O1    O     O_R   0.354890 0.151580 0.148210 -0.535043
O2    O     O_R   0.645110 0.848420 0.851790 -0.535043
O3    O     O_R   0.682370 0.152980 0.336770 -0.542598
O4    O     O_R   0.317630 0.847020 0.663230 -0.542598
O5    O     O_R   0.854980 0.348430 0.351800 -0.534782
O6    O     O_R   0.145020 0.651570 0.648200 -0.534781
C1    C     C_R   0.513247 0.131283 0.366426 0.677637
C2    C     C_R   0.486753 0.868716 0.633574 0.677636
O7    O     O_R   0.684450 0.139580 0.148000 -0.538549
O8    O     O_R   0.315550 0.860420 0.852000 -0.538549
O9    O     O_R   0.857080 0.334940 0.161680 -0.536892
O10   O     O_R   0.142920 0.665060 0.838320 -0.536892
C3    C     C_R   0.515541 0.112690 0.114014 0.733825
C4    C     C_R   0.484459 0.887309 0.885986 0.733825
O11   O     O_R   0.352790 0.165070 0.338330 -0.540505
O12   O     O_R   0.647210 0.834930 0.661670 -0.540505
O13   O     O_3   0.522170 0.314120 0.254710 -0.368797
O14   O     O_3   0.477830 0.685880 0.745290 -0.368797
V1    V     V_3+5 0.796120 0.238110 0.249130 1.412759
V2    V     V_3+5 0.203880 0.761890 0.750870 1.412759
O15   O     O_R   0.186930 0.347040 0.163240 -0.545076
O16   O     O_R   0.813070 0.652960 0.836760 -0.545076
C5    C     C_R   0.018648 0.368756 0.133726 0.699691
C6    C     C_R   0.981352 0.631244 0.866274 0.699690
O17   O     O_R   0.184850 0.360440 0.352010 -0.537852
O18   O     O_R   0.815150 0.639560 0.647990 -0.537852
C7    C     C_R   0.015807 0.387358 0.385963 0.734572
C8    C     C_R   0.984193 0.612642 0.614037 0.734572
V3    V     V_3+5 0.296410 0.261900 0.250880 1.412507
V4    V     V_3+5 0.703590 0.738100 0.749120 1.412507
O19   O     O_3   0.020490 0.185890 0.245290 -0.369642
O20   O     O_3   0.979510 0.814110 0.754710 -0.369642
C9    C     C_1   0.005121 0.466919 0.466333 -0.193637
C10   C     C_1   0.994879 0.533081 0.533667 -0.193637
C11   C     C_3   0.070420 0.591847 0.035465 -0.182427
C12   C     C_3   0.929579 0.408153 0.964535 -0.182427
C13   C     C_3   0.896696 0.538044 0.073257 0.210874
C14   C     C_3   0.103303 0.461956 0.926743 0.210874
H1    H     H_    0.126864 0.667766 0.064764 0.111707
H2    H     H_    0.873136 0.332234 0.935236 0.111707
C15   C     C_3   0.009919 0.438685 0.062993 -0.049633
C16   C     C_3   0.990081 0.561315 0.937007 -0.049633
C17   C     C_3   0.185205 0.491177 0.024997 -0.158333
C18   C     C_3   0.814795 0.508823 0.975003 -0.158333
H3    H     H_    0.337814 0.483390 0.045024 0.120534
H4    H     H_    0.662186 0.516610 0.954976 0.120534
C19   C     C_3   0.319226 0.026032 0.481649 -0.116115
C20   C     C_3   0.680774 0.973968 0.518351 -0.116115
C21   C     C_3   0.398183 0.916625 0.467684 -0.140817
C22   C     C_3   0.601817 0.083375 0.532316 -0.140817
H5    H     H_    0.314217 0.847358 0.441490 0.100479
H6    H     H_    0.685783 0.152642 0.558510 0.100478
H7    H     H_    0.169999 0.047621 0.466264 0.109217
H8    H     H_    0.830001 0.952379 0.533736 0.109217
C23   C     C_3   0.495974 0.938749 0.562722 -0.005835
C24   C     C_3   0.504026 0.061251 0.437277 -0.005834
C25   C     C_3   0.416976 0.047333 0.577492 -0.142005
C26   C     C_3   0.583023 0.952667 0.422508 -0.142005
H9    H     H_    0.348764 0.085977 0.641892 0.101458
H10   H     H_    0.651236 0.914023 0.358108 0.101458
C27   C     C_1   0.504947 0.033103 0.033658 -0.195226
C28   C     C_1   0.495052 0.966897 0.966342 -0.195226
C29   C     C_3   0.777589 0.581838 0.156997 -0.812668
H11   H     H_    0.714167 0.654852 0.145630 0.204686
H12   H     H_    0.659906 0.528386 0.167908 0.216589
H13   H     H_    0.870742 0.594547 0.219041 0.199899
C30   C     C_3   0.222411 0.418162 0.843003 -0.812667
H14   H     H_    0.285833 0.345148 0.854370 0.204686
H15   H     H_    0.129258 0.405453 0.780959 0.199899
H16   H     H_    0.340094 0.471614 0.832092 0.216589

loop_
_geom_bond_atom_site_label_1
_geom_bond_atom_site_label_2
_ccdc_geom_bond_type
C20   C23   S    
C29   H12   S    
C6    C16   S    
O4    C2    A    
V1    O19   S    
C19   C21   S    
C7    C9    S    
C20   H8    S    
O9    V1    S    
C11   C13   S    
C14   C16   S    
O3    C1    A    
C25   H9    S    
C26   H10   S    
C4    C28   S    
O13   V3    S    
O9    C5    A    
C11   C16   S    
O7    C3    A    
O5    C7    A    
O7    V1    S    
O6    C8    A    
O8    V2    S    
C21   H5    S    
C22   H6    S    
O3    V1    S    
O14   V4    S    
C11   C17   S    
C19   H7    S    
C20   C22   S    
C29   H13   S    
C8    C10   S    
C2    O12   A    
C15   C17   S    
C12   C15   S    
C16   C18   S    
C1    C24   S    
C2    C23   S    
C13   C29   S    
C18   H4    S    
O11   V3    S    
O15   C5    A    
O17   V3    S    
C30   H14   S    
C12   H2    S    
O8    C4    A    
C21   C23   S    
O15   V3    S    
C22   C24   S    
C21   C26   S    
C30   H15   S    
C11   H1    S    
C19   C25   S    
O10   V2    S    
O1    V3    S    
C9    C10   T    
C17   H3    S    
O18   V4    S    
C23   C25   S    
O16   C6    A    
C12   C18   S    
O1    C3    A    
V2    O20   S    
O16   V4    S    
C22   C25   S    
C20   C26   S    
O5    V1    S    
O17   C7    A    
O6    V2    S    
O10   C6    A    
O18   C8    A    
C5    C15   S    
O2    V4    S    
C30   H16   S    
C13   C18   S    
C12   C14   S    
C14   C17   S    
V3    O19   S    
V4    O20   S    
C1    O11   A    
O13   V1    S    
C24   C26   S    
O14   V2    S    
C13   C15   S    
C27   C28   T    
O2    C4    A    
C29   H11   S    
O4    V2    S    
C3    C27   S    
C14   C30   S    
O12   V4    S    
C19   C24   S    
