data_mof_unit_8874.cif
_audit_creation_date              2012-12-10T16:50:15-0500
_audit_creation_method            fapswitch 2.2
_symmetry_space_group_name_H-M    P1
_symmetry_Int_Tables_number       1
_space_group_crystal_system       triclinic
_cell_length_a                    23.474859
_cell_length_b                    8.680945
_cell_length_c                    7.437694
_cell_angle_alpha                 102.962366
_cell_angle_beta                  94.142498
_cell_angle_gamma                 92.329439
_cell_volume                      1470.67870072

loop_
_atom_site_label
_atom_site_type_symbol
_atom_type_description
_atom_site_fract_x
_atom_site_fract_y
_atom_site_fract_z
_atom_type_partial_charge
C1    C     C_R   0.498283 0.199674 0.453232 0.891980
C2    C     C_R   0.501717 0.800326 0.546768 0.891979
C3    C     C_R   0.243973 0.520053 0.680041 -0.097709
C4    C     C_R   0.756025 0.479838 0.319953 -0.097712
C5    C     C_R   0.303331 0.520347 0.676835 -0.213265
C6    C     C_R   0.696668 0.479547 0.323156 -0.213280
C7    C     C_R   0.328374 0.499096 0.507458 -0.037090
C8    C     C_R   0.671626 0.500907 0.492543 -0.037091
C9    C     C_R   0.293023 0.477081 0.341751 -0.204317
C10   C     C_R   0.706978 0.523029 0.658261 -0.204329
C11   C     C_R   0.233814 0.476309 0.345407 -0.101799
C12   C     C_R   0.766187 0.523800 0.654607 -0.101795
C13   C     C_R   0.209207 0.497925 0.514282 0.363426
C14   C     C_R   0.790793 0.502073 0.485723 0.363404
C15   C     C_2   0.497458 0.031794 0.426861 -0.362728
C16   C     C_2   0.502542 0.968205 0.573139 -0.362728
C17   C     C_R   0.390938 0.499624 0.502493 0.798777
C18   C     C_R   0.609062 0.500377 0.497507 0.798775
C19   C     C_R   0.883283 0.642829 0.526097 0.534689
C20   C     C_R   0.116717 0.357167 0.473909 0.534695
C21   C     C_R   0.876845 0.359743 0.445387 0.537860
C22   C     C_R   0.123156 0.640253 0.554617 0.537861
C23   C     C_R   0.936592 0.356075 0.451062 -0.013995
C24   C     C_R   0.063408 0.643921 0.548942 -0.013997
C25   C     C_R   0.969904 0.500328 0.496009 -0.017310
C26   C     C_R   0.030096 0.499667 0.503996 -0.017310
C27   C     C_R   0.943164 0.645237 0.533263 -0.013432
C28   C     C_R   0.056836 0.354759 0.466743 -0.013434
C29   C     C_R   0.963692 0.212283 0.414481 -0.163348
C30   C     C_R   0.036309 0.787712 0.585523 -0.163348
C31   C     C_R   0.023222 0.211628 0.422279 -0.173910
C32   C     C_R   0.976779 0.788368 0.577726 -0.173910
Cu1   Cu    Cu3+1 0.506340 0.517380 0.684380 0.956102
Cu2   Cu    Cu3+1 0.493660 0.482620 0.315620 0.956102
H1    H     H_    0.939027 0.099892 0.379803 0.194151
H2    H     H_    0.060974 0.900104 0.620200 0.194150
H3    H     H_    0.042763 0.098754 0.393029 0.187522
H4    H     H_    0.957238 0.901242 0.606976 0.187523
H5    H     H_    0.224961 0.536796 0.810946 0.134900
H6    H     H_    0.775035 0.463007 0.189039 0.134927
H7    H     H_    0.311017 0.460350 0.209155 0.158400
H8    H     H_    0.688985 0.539848 0.790865 0.158409
H9    H     H_    0.206953 0.459508 0.217078 0.136163
H10   H     H_    0.793049 0.540685 0.782946 0.136185
H11   H     H_    0.492665 0.960185 0.285889 0.180042
H12   H     H_    0.507335 0.039815 0.714110 0.180042
H13   H     H_    0.454929 0.379296 0.948783 0.225673
H14   H     H_    0.545070 0.620704 0.051217 0.225675
N1    N     N_R   0.851647 0.501574 0.483411 -0.475920
N2    N     N_R   0.148353 0.498422 0.516594 -0.475925
N3    N     N_2   0.484110 0.456420 0.038520 -0.218126
N4    N     N_2   0.515890 0.543580 0.961480 -0.218125
O1    O     O_R   0.504120 0.286130 0.619770 -0.582546
O2    O     O_R   0.495880 0.713870 0.380230 -0.582546
O3    O     O_R   0.493410 0.256770 0.308360 -0.582895
O4    O     O_R   0.506590 0.743230 0.691640 -0.582896
O5    O     O_R   0.423230 0.514630 0.655730 -0.591212
O6    O     O_R   0.576770 0.485370 0.344270 -0.591214
O7    O     O_R   0.412530 0.485280 0.344320 -0.584220
O8    O     O_R   0.587470 0.514720 0.655680 -0.584220
O9    O     O_2   0.856800 0.780209 0.561811 -0.513441
O10   O     O_2   0.143201 0.219788 0.438194 -0.513434
O11   O     O_2   0.844147 0.222980 0.404024 -0.510602
O12   O     O_2   0.155854 0.777015 0.595979 -0.510594
H15   H     H_    0.329501 0.537490 0.806557 0.158162
H16   H     H_    0.670496 0.462319 0.193426 0.158178

loop_
_geom_bond_atom_site_label_1
_geom_bond_atom_site_label_2
_ccdc_geom_bond_type
C17   O5    A    
C20   N2    A    
C28   C31   A    
C20   O10   S    
C11   H9    S    
C1    C15   S    
C32   H4    S    
C2    C16   S    
C30   C32   A    
C19   C27   A    
Cu1   O5    S    
C29   H1    S    
C9    H7    S    
C3    C13   A    
C30   H2    S    
C22   N2    A    
C4    H6    S    
Cu1   O4    S    
C21   N1    A    
Cu1   Cu2   S    
C1    O3    A    
C3    H5    S    
Cu2   O3    S    
C29   C31   A    
C27   C32   A    
C2    O4    A    
Cu1   N4    S    
Cu1   O1    S    
C9    C11   A    
Cu2   N3    S    
C10   C12   A    
C17   O7    A    
C11   C13   A    
C6    C8    A    
C23   C29   A    
C18   O8    A    
C12   C14   A    
Cu2   O2    S    
Cu1   O8    S    
C24   C30   A    
C21   C23   A    
C4    C14   A    
Cu2   O7    S    
C19   O9    S    
Cu2   O6    S    
C22   C24   A    
C19   N1    A    
C21   O11   S    
C5    H15   S    
C10   H8    S    
C15   C16   D    
C15   H11   S    
C22   O12   S    
C13   N2    S    
C14   N1    S    
C7    C9    A    
C6    H16   S    
C23   C25   A    
N3    N4    D    
C4    C6    A    
C2    O2    A    
C16   H12   S    
C5    C7    A    
C1    O1    A    
C12   H10   S    
H13   N3    S    
C20   C28   A    
C7    C17   S    
C25   C26   A    
H14   N4    S    
C26   C28   A    
C18   O6    A    
C8    C10   A    
C8    C18   S    
C31   H3    S    
C24   C26   A    
C3    C5    A    
C25   C27   A    
