data_mof_unit_61790.cif
_audit_creation_date              2012-12-11T19:28:09-0500
_audit_creation_method            fapswitch 2.2
_symmetry_space_group_name_H-M    P1
_symmetry_Int_Tables_number       1
_space_group_crystal_system       triclinic
_cell_length_a                    8.151555
_cell_length_b                    14.996345
_cell_length_c                    16.458197
_cell_angle_alpha                 111.352326
_cell_angle_beta                  97.289421
_cell_angle_gamma                 81.72267
_cell_volume                      1848.22724727

loop_
_atom_site_label
_atom_site_type_symbol
_atom_type_description
_atom_site_fract_x
_atom_site_fract_y
_atom_site_fract_z
_atom_type_partial_charge
Ba1   Ba    Ba6+2 0.364200 0.465260 0.540900 1.634359
Ba2   Ba    Ba6+2 0.825630 0.534670 0.459090 1.634025
C1    C     C_3   0.277566 0.160517 0.733684 -0.030716
C2    C     C_R   0.891870 0.524783 0.750769 -0.292161
C3    C     C_2   0.488813 0.394641 0.134737 -0.112166
C4    C     C_3   0.705899 0.319332 0.772389 0.343135
C5    C     C_2   0.455180 0.423536 0.218808 0.054505
C6    C     C_2   0.178273 0.501779 0.190070 -0.013697
C7    C     C_3   0.198300 0.455742 0.092494 -0.005963
C8    C     C_3   0.381598 0.434493 0.071992 0.012204
C9    C     C_2   0.101244 0.511502 0.039051 -0.095591
C10   C     C_2   0.080013 0.469708 0.951865 -0.087470
C11   C     C_R   0.823361 0.570083 0.923791 0.001263
C12   C     C_3   0.224973 0.253882 0.715909 0.357626
C13   C     C_R   0.973708 0.515494 0.895070 -0.045821
C14   C     C_R   0.709593 0.602714 0.867001 -0.128008
C15   C     C_R   0.741717 0.577883 0.779462 0.057997
C16   C     C_3   0.705779 0.312841 0.862525 -0.336995
C17   C     C_R   0.010290 0.495750 0.808370 0.002449
C18   C     C_R   0.342005 0.819022 0.442311 0.001254
C19   C     C_R   0.275003 0.913407 0.448302 -0.034126
C20   C     C_R   0.137654 0.103625 0.462840 -0.036445
C21   C     C_R   0.274239 0.057617 0.413156 -0.041234
C22   C     C_R   0.343864 0.965392 0.407772 -0.104753
C23   C     C_3   0.020080 0.725311 0.730205 0.308862
C24   C     C_R   0.072266 0.200053 0.474241 0.041607
C25   C     C_R   0.933642 0.240807 0.522555 -0.301725
C26   C     C_R   0.124147 0.810377 0.526689 0.015762
C27   C     C_R   0.058677 0.905163 0.535823 -0.029545
C28   C     C_3   0.699841 0.231129 0.339846 0.314061
C29   C     C_R   0.132382 0.956444 0.495239 0.010902
C30   C     C_R   0.920583 0.949790 0.584011 -0.027095
C31   C     C_R   0.851639 0.041205 0.589393 -0.079381
C32   C     C_R   0.921787 0.093589 0.549851 -0.037510
C33   C     C_R   0.064431 0.051491 0.502911 0.000240
C34   C     C_3   0.022278 0.771204 0.829277 -0.372373
C35   C     C_R   0.853837 0.187302 0.556818 -0.002371
C36   C     C_R   0.261362 0.767668 0.478274 -0.291552
C37   C     C_3   0.724653 0.121980 0.313387 -0.395672
C38   C     C_3   0.494877 0.769045 0.659642 0.301495
C39   C     C_3   0.468639 0.878275 0.686692 -0.380187
C40   C     C_3   0.170455 0.292741 0.273676 0.294929
C41   C     C_3   0.173559 0.244879 0.174907 -0.369285
C42   C     C_3   0.486136 0.680844 0.226985 0.358393
C43   C     C_3   0.472369 0.690494 0.137457 -0.368073
C44   C     C_3   0.968789 0.742196 0.278689 0.361355
C45   C     C_3   0.927609 0.832396 0.255051 -0.370931
C46   C     C_2   0.301155 0.486548 0.248102 -0.299288
H1    H     H_    0.274965 0.245955 0.653723 0.068525
H2    H     H_    0.289584 0.322881 0.301336 0.008297
H3    H     H_    0.067223 0.351641 0.288018 0.074622
H4    H     H_    0.414817 0.150049 0.745705 0.133759
H5    H     H_    0.280875 0.188457 0.158883 0.134611
H6    H     H_    0.185054 0.298610 0.144977 0.070644
H7    H     H_    0.056497 0.211445 0.146599 0.136716
H8    H     H_    0.087276 0.264562 0.708157 -0.054702
H9    H     H_    0.238114 0.098647 0.676094 0.040887
H10   H     H_    0.895921 0.700533 0.704132 0.013819
H11   H     H_    0.116779 0.662646 0.714120 0.062297
H12   H     H_    0.812209 0.090743 0.261176 0.128060
H13   H     H_    0.923028 0.832370 0.847548 0.135822
H14   H     H_    0.000712 0.717434 0.857499 0.052283
H15   H     H_    0.144943 0.797849 0.856932 0.133328
H16   H     H_    0.761013 0.375213 0.913171 0.080633
H17   H     H_    0.567040 0.613780 0.224245 0.093779
H18   H     H_    0.359855 0.675714 0.241983 -0.065284
H19   H     H_    0.597437 0.693667 0.119261 0.151581
H20   H     H_    0.417037 0.627744 0.087397 0.075240
H21   H     H_    0.391642 0.757162 0.138541 0.109511
H22   H     H_    0.105942 0.728533 0.287778 -0.070407
H23   H     H_    0.776245 0.101201 0.370359 0.060191
H24   H     H_    0.915270 0.755694 0.341317 0.098143
H25   H     H_    0.979047 0.894447 0.308162 0.071889
H26   H     H_    0.790738 0.848944 0.246234 0.150293
H27   H     H_    0.629297 0.386710 0.772007 0.086427
H28   H     H_    0.982831 0.821568 0.193399 0.109179
H29   H     H_    0.601133 0.347802 0.112567 0.100058
H30   H     H_    0.595240 0.645365 0.890864 0.093781
H31   H     H_    0.283743 0.514549 0.317520 0.078945
H32   H     H_    0.918560 0.508734 0.683887 0.077415
H33   H     H_    0.050398 0.585593 0.070542 0.103343
H34   H     H_    0.603609 0.091945 0.288850 0.121208
H35   H     H_    0.138343 0.397161 0.921508 0.144057
H36   H     H_    0.330835 0.091962 0.378111 0.102854
H37   H     H_    0.451142 0.935298 0.370495 0.106168
H38   H     H_    0.743344 0.069826 0.625908 0.110609
H39   H     H_    0.835819 0.322031 0.760786 -0.038612
H40   H     H_    0.861514 0.914805 0.617608 0.100217
H41   H     H_    0.882025 0.313625 0.529659 0.075068
H42   H     H_    0.311270 0.694947 0.472565 0.067450
H43   H     H_    0.576696 0.313106 0.877480 0.160436
H44   H     H_    0.779639 0.245467 0.864792 0.156433
H45   H     H_    0.374474 0.739445 0.635887 0.005840
H46   H     H_    0.821738 0.259658 0.361042 0.006256
H47   H     H_    0.618611 0.260443 0.394863 0.068505
H48   H     H_    0.579560 0.740570 0.606268 0.073698
H49   H     H_    0.376020 0.908472 0.736429 0.158371
H50   H     H_    0.422882 0.899480 0.629291 0.057173
H51   H     H_    0.588074 0.909077 0.714655 0.127263
I1    I     I_    0.165903 0.161167 0.844551 -0.525966
O1    O     O_2   0.428380 0.595300 0.716110 -0.461088
O2    O     O_2   0.686818 0.813154 0.450200 -0.492186
O3    O     O_3   0.555489 0.761111 0.289398 -0.605148
O4    O     O_3   0.649320 0.571650 0.606870 -0.498254
O5    O     O_3   0.067580 0.379340 0.450790 -0.492363
O6    O     O_2   0.850900 0.734750 0.551740 -0.468854
O7    O     O_3   0.052468 0.793661 0.696143 -0.635947
O8    O     O_2   0.838593 0.490108 0.189491 -0.484396
O9    O     O_3   0.900568 0.664478 0.211740 -0.602885
O10   O     O_3   0.202060 0.415880 0.655570 -0.487557
O11   O     O_2   0.350606 0.506820 0.810473 -0.486196
O12   O     O_3   0.147408 0.223147 0.307994 -0.638781
O13   O     O_3   0.562598 0.745200 0.732441 -0.632038
O14   O     O_3   0.289295 0.331164 0.785112 -0.596757
O15   O     O_2   0.338790 0.265210 0.448200 -0.470523
O16   O     O_3   0.612600 0.359140 0.609510 -0.487162
O17   O     O_2   0.510386 0.186164 0.547481 -0.493402
O18   O     O_3   0.638888 0.238717 0.709187 -0.604849
O19   O     O_2   0.761310 0.404660 0.283830 -0.464042
O20   O     O_3   0.540390 0.428270 0.393120 -0.500452
O21   O     O_3   0.987650 0.584040 0.344420 -0.483525
O22   O     O_3   0.627598 0.254730 0.267518 -0.631397
O23   O     O_3   0.122130 0.620580 0.549200 -0.482480
O24   O     O_3   0.577110 0.640790 0.390470 -0.484687
P1    P     P_3+3 0.592580 0.619750 0.703570 0.980539
P2    P     P_3+3 0.156510 0.273300 0.422380 0.971657
P3    P     P_3+3 0.654553 0.241279 0.604906 0.936536
P4    P     P_3+3 0.597130 0.380170 0.296420 0.978817
P5    P     P_3+3 0.539897 0.759700 0.394033 0.940364
P6    P     P_3+3 0.213846 0.438547 0.767293 0.951396
P7    P     P_3+3 0.040945 0.741601 0.581847 0.937845
P8    P     P_3+3 0.975275 0.558462 0.232044 0.950813

loop_
_geom_bond_atom_site_label_1
_geom_bond_atom_site_label_2
_ccdc_geom_bond_type
C12   H8    S    
C32   C35   A    
C43   H20   S    
C42   H18   S    
O2    P5    D    
C18   P5    S    
C16   H16   S    
C6    C46   D    
C4    H27   S    
Ba2   O23   S    
C9    H33   S    
C13   C17   A    
C20   C33   A    
C19   C29   A    
C24   C25   A    
O15   P2    D    
O5    P2    S    
C16   H43   S    
C46   H31   S    
C26   C27   A    
Ba1   P1    S    
C45   H28   S    
C2    H32   S    
C27   C30   A    
C32   C33   A    
C12   H1    S    
O13   P1    S    
C30   H40   S    
C18   C36   A    
Ba1   Ba2   S    
C24   P2    S    
C40   O12   S    
O11   P6    D    
C2    C17   A    
C1    I1    S    
C41   H5    S    
O4    P1    S    
C28   O22   S    
Ba2   O19   S    
C14   C15   A    
O16   P3    S    
C6    P8    S    
O1    P1    D    
C21   C22   A    
C39   H51   S    
O10   P6    S    
Ba1   O16   S    
C26   C36   A    
C5    P4    S    
C34   H15   S    
C7    C8    S    
C38   H45   S    
O12   P2    S    
C40   H3    S    
O19   P4    D    
C17   P6    S    
O14   P6    S    
C42   H17   S    
C38   H48   S    
C34   H14   S    
C42   O3    S    
O6    P7    D    
C4    C16   S    
C44   H22   S    
C21   H36   S    
C43   H21   S    
Ba1   P2    S    
C45   H25   S    
O7    P7    S    
O24   P5    S    
C3    C5    D    
Ba2   O20   S    
C6    C7    S    
C12   O14   S    
Ba2   O6    S    
C4    H39   S    
C10   H35   S    
Ba1   O20   S    
C31   H38   S    
Ba1   O23   S    
C43   H19   S    
C28   H47   S    
Ba1   O10   S    
C7    C9    S    
C41   H6    S    
C38   O13   S    
C10   C13   S    
Ba2   O4    S    
C9    C10   D    
O9    P8    S    
C31   C32   A    
O3    P5    S    
O17   P3    D    
Ba1   O4    S    
C1    C12   S    
C40   H2    S    
C2    C15   A    
C1    H9    S    
C41   H7    S    
C38   C39   S    
C11   C13   A    
C20   C24   A    
C39   H49   S    
C11   C14   A    
C40   C41   S    
C19   C22   A    
O21   P8    S    
C3    H29   S    
C34   H13   S    
Ba1   O1    S    
C42   C43   S    
C23   O7    S    
C14   H30   S    
C23   H10   S    
C22   H37   S    
Ba2   O21   S    
C44   C45   S    
C37   H34   S    
O23   P7    S    
C39   H50   S    
C44   H24   S    
C45   H26   S    
C1    H4    S    
O20   P4    S    
Ba2   O24   S    
C23   H11   S    
C36   H42   S    
Ba2   O5    S    
C26   P7    S    
C16   H44   S    
C5    C46   S    
C3    C8    S    
C27   C29   A    
C30   C31   A    
C15   P1    S    
C25   C35   A    
C37   H12   S    
C28   C37   S    
C25   H41   S    
C29   C33   A    
O22   P4    S    
O8    P8    D    
C23   C34   S    
C18   C19   A    
C28   H46   S    
O18   P3    S    
C44   O9    S    
C37   H23   S    
C20   C21   A    
Ba1   O15   S    
C4    O18   S    
Ba1   O5    S    
C35   P3    S    
Ba2   P4    S    
