data_mof_unit_48625.cif
_audit_creation_date              2012-12-11T14:27:41-0500
_audit_creation_method            fapswitch 2.2
_symmetry_space_group_name_H-M    P1
_symmetry_Int_Tables_number       1
_space_group_crystal_system       triclinic
_cell_length_a                    6.93152
_cell_length_b                    14.725527
_cell_length_c                    16.138904
_cell_angle_alpha                 90.893988
_cell_angle_beta                  89.852235
_cell_angle_gamma                 90.03783
_cell_volume                      1647.09621751

loop_
_atom_site_label
_atom_site_type_symbol
_atom_type_description
_atom_site_fract_x
_atom_site_fract_y
_atom_site_fract_z
_atom_type_partial_charge
O1    O     O_R   0.494510 0.415970 0.413200 -0.540368
O2    O     O_R   0.823800 0.407430 0.586200 -0.538833
O3    O     O_R   0.994130 0.584030 0.586800 -0.539759
C1    C     C_R   0.655404 0.387029 0.615328 0.772457
O4    O     O_R   0.824220 0.405090 0.413820 -0.550542
O5    O     O_R   0.994560 0.581670 0.413190 -0.537607
C2    C     C_R   0.654547 0.380971 0.386982 0.669500
O6    O     O_R   0.494090 0.418330 0.586810 -0.541584
O7    O     O_3   0.660810 0.557940 0.500000 -0.371502
V1    V     V_3+5 0.935650 0.489250 0.500000 1.394616
O8    O     O_R   0.324270 0.592570 0.413800 -0.543617
C3    C     C_R   0.156166 0.613174 0.384651 0.766434
O9    O     O_R   0.323850 0.594910 0.586180 -0.546599
C4    C     C_R   0.154768 0.616544 0.615185 0.696700
V2    V     V_3+5 0.435660 0.510750 0.500000 1.394001
O10   O     O_3   0.160630 0.442060 0.500000 -0.373118
C5    C     C_3   0.956005 0.712445 0.731585 -0.156545
C6    C     C_3   0.063868 0.705781 0.815614 -0.163241
H1    H     H_    0.809786 0.684897 0.718711 0.119315
C7    C     C_3   0.122570 0.806648 0.808596 -0.046386
C8    C     C_3   0.014108 0.814011 0.725614 -0.121439
C9    C     C_3   0.201372 0.786424 0.678457 -0.194201
C10   C     C_3   0.310607 0.780277 0.762148 -0.153906
C11   C     C_3   0.248816 0.680320 0.767706 0.344241
C12   C     C_3   0.143161 0.685573 0.684911 -0.065986
C13   C     C_2   0.993395 0.691380 0.269043 -0.145677
C14   C     C_2   0.152819 0.677220 0.314718 -0.381458
H2    H     H_    0.863473 0.653951 0.284514 0.152234
C15   C     C_2   0.983660 0.749186 0.193506 0.328393
C16   C     C_2   0.119750 0.812963 0.176001 -0.389388
C17   C     C_2   0.786610 0.217575 0.787529 0.289274
C18   C     C_2   0.619933 0.183069 0.818470 -0.400829
C19   C     C_2   0.788433 0.299981 0.734531 0.253102
C20   C     C_2   0.645624 0.316117 0.679040 -0.386692
C21   C     C_2   0.776883 0.207023 0.211838 -0.121394
C22   C     C_2   0.615609 0.184399 0.169803 -0.275572
H3    H     H_    0.482732 0.221632 0.180296 0.169605
C23   C     C_2   0.784467 0.281019 0.275791 -0.164108
C24   C     C_2   0.636994 0.303891 0.327153 0.141957
H4    H     H_    0.920641 0.317116 0.281438 0.100274
O11   O     O_R   0.771000 0.074870 0.906030 -0.506891
O12   O     O_R   0.440710 0.088040 0.078970 -0.544296
O13   O     O_R   0.270540 0.911420 0.079570 -0.543505
C25   C     C_R   0.609535 0.111416 0.106327 0.721842
O14   O     O_R   0.441280 0.085700 0.906600 -0.549418
O15   O     O_R   0.271110 0.909060 0.905960 -0.542169
C26   C     C_R   0.610826 0.108693 0.879404 0.782658
O16   O     O_R   0.770430 0.077230 0.079640 -0.538189
O17   O     O_3   0.604340 0.935220 0.992820 -0.377276
V3    V     V_3+5 0.329430 0.003850 0.992770 1.405941
O18   O     O_R   0.941400 0.898110 0.906530 -0.544558
C27   C     C_R   0.110635 0.876011 0.877963 0.683380
O19   O     O_R   0.940830 0.900450 0.078910 -0.536364
C28   C     C_R   0.109392 0.877379 0.106156 0.737539
V4    V     V_3+5 0.829450 0.982250 0.992700 1.421106
O20   O     O_3   0.104410 0.051000 0.992740 -0.358410
H5    H     H_    0.008692 0.672260 0.872082 0.099821
H6    H     H_    0.243033 0.821868 0.216363 0.106563
N1    N     N_2   0.967780 0.177836 0.808159 -0.468467
H7    H     H_    0.075336 0.224090 0.821649 0.270479
C29   C     C_3   0.031429 0.108100 0.750218 -0.528913
H8    H     H_    0.166149 0.076665 0.773304 0.191614
H9    H     H_    0.060522 0.138004 0.688611 0.170844
H10   H     H_    0.920314 0.054016 0.743839 0.184982
H11   H     H_    0.483523 0.214970 0.803533 0.106541
N2    N     N_2   0.952883 0.358054 0.741521 -0.524321
H12   H     H_    0.042415 0.359858 0.690534 0.274867
C30   C     C_3   0.919617 0.444834 0.782332 -0.521942
H13   H     H_    0.059534 0.480073 0.791962 0.215235
H14   H     H_    0.851041 0.434804 0.843818 0.194114
H15   H     H_    0.825805 0.488459 0.744029 0.182930
H16   H     H_    0.519278 0.272614 0.676992 0.099320
H17   H     H_    0.912026 0.173400 0.196509 0.135131
N3    N     N_2   0.463579 0.251478 0.327869 -0.516612
H18   H     H_    0.339723 0.288804 0.338066 0.260010
C31   C     C_3   0.472344 0.172145 0.379421 -0.549790
H19   H     H_    0.336181 0.132908 0.373076 0.189727
H20   H     H_    0.490857 0.192822 0.445474 0.177475
H21   H     H_    0.593911 0.127477 0.359934 0.211927
H22   H     H_    0.915796 0.870158 0.708588 0.098514
H23   H     H_    0.256956 0.819392 0.621799 0.111995
H24   H     H_    0.457386 0.807123 0.775109 0.112171
N4    N     N_2   0.377604 0.606955 0.788931 -0.537812
H25   H     H_    0.477155 0.592365 0.743079 0.249898
C32   C     C_3   0.463744 0.614715 0.870182 -0.576762
H26   H     H_    0.549264 0.552693 0.882595 0.200673
H27   H     H_    0.350196 0.621321 0.918583 0.205168
H28   H     H_    0.561356 0.674573 0.873399 0.190981
H29   H     H_    0.288707 0.708435 0.298138 0.129578
N5    N     N_2   0.827377 0.731460 0.138031 -0.516778
H30   H     H_    0.855701 0.739975 0.075889 0.253725
C33   C     C_3   0.641814 0.766000 0.164866 -0.500566
H31   H     H_    0.529588 0.745045 0.119449 0.189524
H32   H     H_    0.644831 0.841343 0.169239 0.201916
H33   H     H_    0.602103 0.738146 0.226084 0.173095

loop_
_geom_bond_atom_site_label_1
_geom_bond_atom_site_label_2
_ccdc_geom_bond_type
O16   V4    S    
N2    C30   S    
V4    O20   S    
C10   H24   S    
C21   C22   D    
C31   H21   S    
C1    O6    A    
O19   C28   A    
C16   C28   S    
C13   C14   D    
N3    C31   S    
C6    C11   S    
C22   H3    S    
C11   N4    S    
C31   H20   S    
O5    C3    A    
C23   C24   D    
C24   N3    S    
V2    O10   S    
O15   C27   A    
O14   C26   A    
C17   N1    S    
C29   H9    S    
O11   V4    S    
C6    H5    S    
O8    V2    S    
C17   C18   D    
C30   H13   S    
C9    C12   S    
C10   C11   S    
C17   C19   S    
O1    V2    S    
O7    V1    S    
C6    C7    S    
O19   V4    S    
N2    H12   S    
N1    H7    S    
C8    C9    S    
O12   C25   A    
C15   N5    S    
C19   N2    S    
C19   C20   D    
C32   H27   S    
C1    C20   S    
N1    C29   S    
N3    H18   S    
C3    C14   S    
O18   C27   A    
C9    H23   S    
C21   C23   S    
C31   H19   S    
O4    C2    A    
O17   V4    S    
C33   H33   S    
C5    C8    S    
C29   H10   S    
O2    C1    A    
C15   C16   D    
O13   C28   A    
N5    C33   S    
N4    H25   S    
C7    C10   S    
C33   H32   S    
C5    C6    S    
O11   C26   A    
C11   C12   S    
C32   H26   S    
O3    C4    A    
O12   V3    S    
N4    C32   S    
O6    V2    S    
O9    V2    S    
C18   C26   S    
C22   C25   S    
O2    V1    S    
C20   H16   S    
C32   H28   S    
C21   H17   S    
O1    C2    A    
O5    V1    S    
O8    C3    A    
O13   V3    S    
O15   V3    S    
C13   H2    S    
C5    C12   S    
O7    V2    S    
O4    V1    S    
C7    C27   S    
O3    V1    S    
V1    O10   S    
C23   H4    S    
N5    H30   S    
O14   V3    S    
C30   H15   S    
C16   H6    S    
C8    H22   S    
C33   H31   S    
C5    H1    S    
C14   H29   S    
O18   V4    S    
C4    C12   S    
C29   H8    S    
V3    O20   S    
C7    C8    S    
C13   C15   S    
C30   H14   S    
O17   V3    S    
C2    C24   S    
C9    C10   S    
O9    C4    A    
C25   O16   A    
C18   H11   S    
