data_mof_unit_42089.cif
_audit_creation_date              2012-12-11T16:22:03-0500
_audit_creation_method            fapswitch 2.2
_symmetry_space_group_name_H-M    P1
_symmetry_Int_Tables_number       1
_space_group_crystal_system       triclinic
_cell_length_a                    13.495401
_cell_length_b                    14.002894
_cell_length_c                    30.074619
_cell_angle_alpha                 97.86684
_cell_angle_beta                  90.22496
_cell_angle_gamma                 118.781217
_cell_volume                      4918.38427763

loop_
_atom_site_label
_atom_site_type_symbol
_atom_type_description
_atom_site_fract_x
_atom_site_fract_y
_atom_site_fract_z
_atom_type_partial_charge
C1    C     C_R   0.720550 0.099015 0.569338 0.556483
C2    C     C_R   0.350025 0.654204 0.673203 -0.041524
C3    C     C_R   0.280068 0.696117 0.662270 -0.062922
C4    C     C_R   0.285396 0.734374 0.621751 0.214493
C5    C     C_R   0.219670 0.579271 0.819511 -0.004165
C6    C     C_R   0.205327 0.568118 0.864623 -0.132519
C7    C     C_R   0.406990 0.632852 0.880243 0.004725
C8    C     C_R   0.422706 0.644447 0.834334 0.241269
C9    C     C_R   0.328748 0.614323 0.804019 0.026491
C10   C     C_1   0.344898 0.623100 0.757323 0.136554
C11   C     C_1   0.351445 0.633763 0.718398 0.129818
C12   C     C_R   0.383422 0.788506 0.551203 0.583515
C13   C     C_R   0.295941 0.590267 0.894826 -0.054786
C14   C     C_3   0.238206 0.124628 0.726236 0.000264
C15   C     C_3   0.255032 0.052557 0.756522 0.277203
C16   C     C_1   0.301225 0.193160 0.878241 0.055208
C17   C     C_1   0.371676 0.131225 0.615420 0.112273
C18   C     C_3   0.309306 0.228767 0.761517 -0.178636
C19   C     C_3   0.326927 0.155753 0.791338 -0.005130
C20   C     C_3   0.417530 0.245471 0.738577 -0.048734
C21   C     C_3   0.345868 0.142784 0.703222 0.045031
C22   C     C_3   0.436289 0.174194 0.769102 -0.155801
C23   C     C_R   0.398445 0.118033 0.570008 0.566547
C24   C     C_3   0.363241 0.070740 0.733465 0.254953
C25   C     C_1   0.313838 0.170861 0.839446 0.043952
C26   C     C_1   0.357320 0.137254 0.654833 0.127412
C27   C     C_3   0.889045 0.280789 0.734830 -0.140392
C28   C     C_3   0.794986 0.253030 0.767912 0.009021
C29   C     C_1   0.892426 0.204891 0.879184 0.064447
C30   C     C_1   0.766086 0.131891 0.615182 0.046657
C31   C     C_3   0.933962 0.217788 0.759485 0.025385
C32   C     C_3   0.840389 0.190933 0.792329 0.069900
C33   C     C_3   0.856556 0.109025 0.727873 -0.104468
C34   C     C_R   0.723688 0.097368 0.443618 0.585733
C35   C     C_3   0.810636 0.171590 0.703990 0.013237
C36   C     C_3   0.761838 0.082464 0.760835 -0.099517
C37   C     C_3   0.715391 0.144943 0.736158 -0.114686
C38   C     C_1   0.862487 0.197148 0.840556 0.067552
C39   C     C_1   0.791131 0.153592 0.655068 0.005893
C40   C     C_3   0.246188 0.599422 0.258744 0.264530
C41   C     C_3   0.260825 0.687174 0.229214 -0.139713
C42   C     C_1   0.308950 0.607177 0.111162 0.074696
C43   C     C_1   0.365582 0.734554 0.378651 0.112746
C44   C     C_3   0.322510 0.567850 0.229317 0.212799
C45   C     C_R   0.381898 0.783768 0.424622 0.558801
C46   C     C_3   0.338470 0.655992 0.200249 -0.012707
C47   C     C_3   0.427892 0.654516 0.260306 -0.021279
C48   C     C_3   0.351222 0.685566 0.289683 -0.002407
C49   C     C_3   0.443733 0.742246 0.230823 0.186055
C50   C     C_3   0.367076 0.773367 0.260261 -0.017434
C51   C     C_1   0.326899 0.634804 0.151206 0.083405
C52   C     C_1   0.357131 0.706418 0.338709 0.123290
C53   C     C_R   0.349146 0.138062 0.403146 -0.012912
C54   C     C_R   0.400587 0.247139 0.392618 -0.038476
C55   C     C_R   0.392025 0.262262 0.347376 -0.059572
C56   C     C_R   0.394374 0.115307 0.443412 0.596668
C57   C     C_R   0.320161 0.170578 0.315081 -0.034744
C58   C     C_R   0.252879 0.066853 0.327585 0.280647
C59   C     C_R   0.267070 0.049695 0.371343 0.262181
C60   C     C_R   0.231875 0.102313 0.151476 -0.061574
C61   C     C_R   0.231221 0.108984 0.104998 -0.008979
C62   C     C_R   0.419498 0.273273 0.117747 -0.006978
C63   C     C_R   0.420296 0.264909 0.163925 0.282830
C64   C     C_R   0.323790 0.184735 0.180805 0.008468
C65   C     C_1   0.322571 0.183120 0.228473 0.076959
C66   C     C_1   0.321027 0.179504 0.268066 0.064023
C67   C     C_R   0.361642 0.728931 0.590341 -0.016909
C68   C     C_R   0.318702 0.203123 0.089256 -0.059988
C69   C     C_R   0.792535 0.140683 0.405110 -0.040688
C70   C     C_R   0.826328 0.074228 0.376345 0.244617
C71   C     C_R   0.850709 0.094481 0.332252 0.228780
C72   C     C_R   0.842166 0.180589 0.316933 0.003667
C73   C     C_R   0.826558 0.256939 0.347024 0.178789
C74   C     C_R   0.807758 0.240746 0.392006 -0.045273
C75   C     C_R   0.860798 0.286556 0.165595 0.290186
C76   C     C_R   0.883673 0.297236 0.120415 0.235468
C77   C     C_R   0.873620 0.117364 0.109249 -0.139005
C78   C     C_R   0.425031 0.676181 0.599886 0.215519
C79   C     C_R   0.852108 0.106432 0.154084 -0.050237
C80   C     C_R   0.850668 0.193982 0.182781 -0.033053
C81   C     C_1   0.847106 0.192336 0.230339 0.098278
C82   C     C_1   0.846006 0.188579 0.269920 0.156099
C83   C     C_R   0.897327 0.214755 0.092698 -0.038888
C84   C     C_R   0.284620 0.231821 0.922461 0.558925
C85   C     C_R   0.266214 0.547083 0.937864 0.527689
C86   C     C_R   0.944479 0.222032 0.923104 0.554396
C87   C     C_R   0.293992 0.241420 0.048506 0.549079
C88   C     C_R   0.275338 0.558748 0.065076 0.548603
C89   C     C_R   0.420340 0.640573 0.641823 0.264921
C90   C     C_R   0.953346 0.232687 0.049991 0.560491
Cr1   Cr    Cr6+3 0.583430 0.162610 0.509470 1.141647
Cr2   Cr    Cr6+3 0.584210 0.916680 0.495400 1.173970
Cr3   Cr    Cr6+3 0.332380 0.920740 0.495100 1.186062
Cr4   Cr    Cr6+3 0.086810 0.177030 0.983130 1.114478
Cr5   Cr    Cr6+3 0.337180 0.419300 0.994610 1.093206
Cr6   Cr    Cr6+3 0.084840 0.422330 0.995830 1.134918
H1    H     H_    0.120330 0.535697 0.875718 0.159479
H2    H     H_    0.517350 0.193628 0.787040 0.149660
H3    H     H_    0.289950 0.296038 0.773467 0.161256
H4    H     H_    0.940701 0.361483 0.723399 0.165389
H5    H     H_    0.625762 0.117247 0.725728 0.176595
H6    H     H_    0.709227 0.001136 0.771690 0.180009
H7    H     H_    0.878719 0.047919 0.710219 0.155494
H8    H     H_    0.192225 0.700883 0.216326 0.207350
H9    H     H_    0.224896 0.705011 0.686678 0.242591
H10   H     H_    0.879140 0.051584 0.087814 0.195019
O1    O     O_R   0.493980 0.188910 0.559650 -0.470637
O2    O     O_R   0.480180 0.824400 0.444640 -0.481571
O3    O     O_R   0.308310 0.808540 0.439800 -0.452043
O4    O     O_R   0.340740 0.020600 0.455570 -0.449542
O5    O     O_3   0.500010 0.000010 0.499990 -0.319153
O6    O     O_R   0.969650 0.150960 0.933380 -0.483025
O7    O     O_R   0.187740 0.180870 0.937580 -0.471739
O8    O     O_R   0.358510 0.327410 0.940870 -0.494151
O9    O     O_R   0.324180 0.507870 0.953930 -0.503921
O10   O     O_R   0.170560 0.527890 0.952050 -0.493072
O11   O     O_R   0.987620 0.318470 0.945550 -0.490046
O12   O     O_R   0.678640 0.153520 0.554450 -0.487630
O13   O     O_R   0.976400 0.159270 0.031530 -0.528709
O14   O     O_R   0.194000 0.188570 0.028560 -0.467460
O15   O     O_R   0.365260 0.335720 0.039020 -0.514033
O16   O     O_R   0.330440 0.515580 0.044910 -0.487260
O17   O     O_R   0.177310 0.536200 0.050190 -0.463893
O18   O     O_R   0.993870 0.326170 0.036530 -0.439993
O19   O     O_3   0.169610 0.339550 0.991190 -0.280973
O20   O     O_R   0.698130 0.004030 0.549500 -0.471232
O21   O     O_R   0.481060 0.827210 0.535360 -0.462759
O22   O     O_R   0.309260 0.811560 0.537660 -0.444522
O23   O     O_R   0.341620 0.023400 0.546290 -0.471861
O24   O     O_R   0.493030 0.185890 0.461780 -0.483837
O25   O     O_R   0.677760 0.150720 0.463730 -0.483099
O26   O     O_R   0.697180 0.001010 0.451640 -0.439684
C91   C     C_2   0.125612 0.093571 0.703818 0.281193
H11   H     H_    0.052996 0.067732 0.723607 0.124764
O27   O     O_2   0.114687 0.095500 0.663722 -0.460459
Cl1   Cl    Cl    0.396479 0.963974 0.715015 -0.582831
C92   C     C_2   0.509163 0.355775 0.730443 0.264853
H12   H     H_    0.550734 0.422268 0.758601 0.157699
O28   O     O_2   0.537648 0.371522 0.692520 -0.420696
C93   C     C_2   0.760011 0.334034 0.789152 0.218643
H13   H     H_    0.729092 0.372424 0.767995 0.132625
O29   O     O_2   0.766025 0.357268 0.830030 -0.480292
C94   C     C_2   0.116452 0.550302 0.790335 0.255858
H14   H     H_    0.033782 0.512092 0.803682 0.137511
O30   O     O_2   0.121175 0.569600 0.751831 -0.506979
C95   C     C_2   0.058093 0.263166 0.770939 0.197196
H15   H     H_    0.115889 0.287681 0.744611 0.115994
O31   O     O_2   0.095003 0.274567 0.809523 -0.528786
Cl2   Cl    Cl    0.115043 0.503411 0.277269 -0.395870
C96   C     C_2   0.392633 0.889938 0.275709 0.330119
H16   H     H_    0.397523 0.941384 0.251006 0.143157
O32   O     O_2   0.408258 0.927653 0.315717 -0.487862
Cl3   Cl    Cl    0.574467 0.837891 0.211969 -0.551249
C97   C     C_2   0.521167 0.635210 0.276133 0.361398
H17   H     H_    0.566688 0.610539 0.251674 0.208560
O33   O     O_2   0.546397 0.647053 0.316268 -0.422121
Cl4   Cl    Cl    0.291417 0.430165 0.208273 -0.571560
C98   C     C_2   0.137608 0.019083 0.073509 0.334556
H18   H     H_    0.050898 0.981687 0.082943 0.162319
O34   O     O_2   0.157439 0.984505 0.037027 -0.460332
C99   C     C_2   0.137395 0.010411 0.170260 0.267469
H19   H     H_    0.108940 0.026772 0.202676 0.181402
O35   O     O_2   0.093688 0.915395 0.150745 -0.414090
Cl5   Cl    Cl    0.155594 0.955116 0.287060 -0.423672
Cl6   Cl    Cl    0.181636 0.915006 0.384132 -0.356531
C100  C     C_2   0.454350 0.344578 0.429195 0.304874
H20   H     H_    0.520393 0.423905 0.422961 0.186770
O36   O     O_2   0.421235 0.338189 0.466975 -0.429209
Cl7   Cl    Cl    0.542190 0.353095 0.201440 -0.403111
C101  C     C_2   0.523903 0.351988 0.098636 0.346459
H21   H     H_    0.541068 0.329827 0.064662 0.118417
O37   O     O_2   0.589518 0.442727 0.119631 -0.350572
C102  C     C_2   0.456919 0.372017 0.332719 0.287296
H22   H     H_    0.417561 0.395672 0.307988 0.165147
O38   O     O_2   0.556425 0.433643 0.345777 -0.412026
Cl8   Cl    Cl    0.896920 0.415296 0.100139 -0.427168
Cl9   Cl    Cl    0.850037 0.391978 0.201377 -0.290420
Cl10  Cl    Cl    0.830961 0.373147 0.327914 -0.392918
C103  C     C_2   0.806835 0.330175 0.424603 0.333663
H23   H     H_    0.771085 0.379244 0.414324 0.174674
O39   O     O_2   0.850482 0.352815 0.462940 -0.446832
Cl11  Cl    Cl    0.839854 0.965456 0.394342 -0.348519
Cl12  Cl    Cl    0.200414 0.796745 0.615226 -0.437094
C104  C     C_2   0.836520 0.005231 0.170807 0.308883
H24   H     H_    0.816879 0.993777 0.205141 0.202399
O40   O     O_2   0.844944 0.932803 0.146295 -0.430626
Cl13  Cl    Cl    0.888185 0.008945 0.295610 -0.432583
Cl14  Cl    Cl    0.509664 0.652517 0.559852 -0.412214
Cl15  Cl    Cl    0.559677 0.699693 0.814127 -0.482235
C105  C     C_2   0.504637 0.666938 0.913447 0.314161
H25   H     H_    0.500295 0.694868 0.948508 0.102404
O41   O     O_2   0.589044 0.661442 0.902658 -0.398990
Cl16  Cl    Cl    0.504366 0.581876 0.655623 -0.393125
Cl17  Cl    Cl    0.147603 0.923512 0.769061 -0.454295

loop_
_geom_bond_atom_site_label_1
_geom_bond_atom_site_label_2
_ccdc_geom_bond_type
C7    C13   A    
C100  O36   D    
C21   C26   S    
C84   O7    A    
C22   H2    S    
C73   C74   A    
C14   C18   S    
C86   O6    A    
C28   C93   S    
C85   O9    A    
C57   C66   S    
C58   Cl5   S    
C77   H10   S    
C99   H19   S    
C53   C59   A    
C7    C8    A    
C47   C49   S    
Cr1   O24   S    
C53   C54   A    
C3    H9    S    
C53   C56   S    
C15   C19   S    
C92   O28   D    
C46   C49   S    
C17   C23   S    
C17   C26   T    
C32   C36   S    
C14   C21   S    
C49   Cl3   S    
C36   C37   S    
Cr2   O26   S    
C93   O29   D    
C5    C6    A    
C45   O3    A    
C43   C52   T    
C63   Cl7   S    
Cr1   O25   S    
C101  H21   S    
C77   C83   A    
Cr5   O8    S    
C94   H14   S    
C16   C84   S    
C33   C36   S    
C104  H24   S    
C23   O23   A    
C18   C20   S    
C36   H6    S    
C18   C19   S    
Cr1   O5    S    
C50   C96   S    
C55   C102  S    
C54   C55   A    
C15   Cl17  S    
Cr4   O14   S    
Cr2   O2    S    
C74   C103  S    
C31   C32   S    
Cr5   O9    S    
C8    C9    A    
C29   C38   T    
Cr6   O19   S    
C105  O41   D    
C41   C46   S    
C31   C33   S    
C7    C105  S    
C70   C71   A    
C32   C38   S    
Cr3   O3    S    
C75   C80   A    
C97   O33   D    
C59   Cl6   S    
C44   C47   S    
C42   C51   T    
Cr5   O15   S    
C48   C50   S    
C89   Cl16  S    
C98   O34   D    
C44   Cl4   S    
C31   C95   S    
C100  H20   S    
C67   C78   A    
C54   C100  S    
C88   O17   A    
Cr3   O23   S    
C2    C11   S    
C76   C83   A    
C56   O4    A    
C99   O35   D    
Cr4   O7    S    
C44   C46   S    
C81   C82   T    
C95   O31   D    
C102  O38   D    
C78   C89   A    
C62   C101  S    
C12   C67   S    
C27   H4    S    
Cr1   O12   S    
Cr6   O18   S    
C27   C31   S    
C6    H1    S    
Cr1   O1    S    
Cr6   O11   S    
C28   C32   S    
C19   C22   S    
C1    O20   A    
C88   O16   A    
C12   O21   A    
C80   C81   S    
C27   C35   S    
C58   C59   A    
C102  H22   S    
C46   C51   S    
C79   C80   A    
C60   C61   A    
C79   C104  S    
C20   C92   S    
C2    C89   A    
C35   C39   S    
C75   C76   A    
C105  H25   S    
C5    C9    A    
C62   C63   A    
Cr4   O13   S    
Cr5   O19   S    
C47   C48   S    
C48   C52   S    
C8    Cl15  S    
C23   O1    A    
C70   Cl11  S    
C60   C99   S    
C29   C86   S    
C77   C79   A    
C69   C74   A    
C93   H13   S    
C43   C45   S    
C34   C69   S    
C97   H17   S    
Cr3   O5    S    
C73   Cl10  S    
Cr5   O16   S    
C40   C41   S    
C47   C97   S    
C76   Cl8   S    
C20   C22   S    
C34   O25   A    
C49   C50   S    
C78   Cl14  S    
C55   C57   A    
C98   H18   S    
C22   C24   S    
C42   C88   S    
C18   H3    S    
C3    C4    A    
Cr2   O21   S    
C41   C50   S    
C87   O15   A    
C95   H15   S    
C9    C10   S    
Cr4   O19   S    
C16   C25   T    
C94   O30   D    
C83   C90   S    
C40   C48   S    
C15   C24   S    
C84   O8    A    
Cr6   O17   S    
C35   C37   S    
C33   H7    S    
C90   O18   A    
C85   O10   A    
C71   Cl13  S    
C72   C73   A    
Cr2   O20   S    
C4    C67   A    
C45   O2    A    
Cr2   O5    S    
C12   O22   A    
C14   C91   S    
C103  H23   S    
C92   H12   S    
Cr3   O4    S    
C96   H16   S    
C41   H8    S    
C62   C68   A    
C60   C64   A    
C90   O13   A    
C2    C3    A    
Cr3   O22   S    
C87   O14   A    
C61   C98   S    
C64   C65   S    
C6    C13   A    
C37   H5    S    
C61   C68   A    
C24   Cl1   S    
C57   C58   A    
C91   H11   S    
C101  O37   D    
C28   C37   S    
Cr4   O6    S    
C1    C30   S    
C33   C35   S    
C104  O40   D    
C40   Cl2   S    
C86   O11   A    
C96   O32   D    
C1    O12   A    
C4    Cl12  S    
C69   C70   A    
C75   Cl9   S    
C56   O24   A    
C5    C94   S    
C10   C11   T    
C19   C25   S    
C34   O26   A    
C63   C64   A    
C40   C44   S    
C71   C72   A    
C20   C21   S    
C65   C66   T    
C21   C24   S    
C13   C85   S    
C27   C28   S    
C91   O27   D    
C68   C87   S    
C14   C15   S    
Cr6   O10   S    
C72   C82   S    
C30   C39   T    
C103  O39   D    
