data_mof_unit_44088.cif
_audit_creation_date              2012-12-10T18:09:55-0500
_audit_creation_method            fapswitch 2.2
_symmetry_space_group_name_H-M    P1
_symmetry_Int_Tables_number       1
_space_group_crystal_system       triclinic
_cell_length_a                    10.650169
_cell_length_b                    12.563718
_cell_length_c                    13.200282
_cell_angle_alpha                 81.736573
_cell_angle_beta                  92.078858
_cell_angle_gamma                 102.458423
_cell_volume                      1706.75097848

loop_
_atom_site_label
_atom_site_type_symbol
_atom_type_description
_atom_site_fract_x
_atom_site_fract_y
_atom_site_fract_z
_atom_type_partial_charge
Br1   Br    Br    0.771418 0.534631 0.764240 -0.605278
C1    C     C_R   0.487499 0.438472 0.691567 0.920942
C2    C     C_R   0.468523 0.456161 0.969946 0.030959
C3    C     C_R   0.527779 0.468572 0.873563 0.037948
C4    C     C_R   0.742223 0.501182 0.498648 0.879165
C5    C     C_R   0.512135 0.538228 0.034446 0.084946
C6    C     C_R   0.611285 0.631029 0.000948 0.121198
C7    C     C_R   0.675149 0.635536 0.910354 -0.253457
C8    C     C_R   0.640742 0.550779 0.851852 0.245726
C9    C     C_R   0.466624 0.527689 0.133890 -0.222060
C10   C     C_R   0.614243 0.695926 0.164566 -0.182409
C11   C     C_R   0.471586 0.399377 0.801257 -0.076844
C12   C     C_3   0.121556 0.500687 0.497014 0.151435
C13   C     C_R   0.303165 0.087450 0.354339 0.385484
C14   C     C_R   0.650578 0.798285 0.632189 -0.060196
C15   C     C_R   0.660969 0.893746 0.675873 -0.280615
C16   C     C_R   0.511718 0.561452 0.309017 0.845369
C17   C     C_R   0.586922 0.970107 0.637927 0.437769
C18   C     C_R   0.515936 0.956199 0.544728 -0.102882
C19   C     C_R   0.500392 0.852807 0.509240 0.205289
C20   C     C_R   0.458355 0.037377 0.485861 -0.037150
C21   C     C_R   0.366567 0.007898 0.407671 0.032690
C22   C     C_R   0.345002 0.901407 0.382062 -0.182881
C23   C     C_3   0.063182 0.483806 0.389691 -0.390869
C24   C     C_R   0.414993 0.827306 0.429038 -0.210950
C25   C     C_R   0.496639 0.148984 0.495568 0.028294
C26   C     C_R   0.337609 0.194687 0.376927 -0.105011
C27   C     C_R   0.258101 0.500135 0.498207 0.808047
C28   C     C_3   0.908243 0.405411 0.575521 -0.333893
C29   C     C_3   0.052487 0.407167 0.577966 -0.403382
C30   C     C_3   0.919069 0.486452 0.389187 -0.398187
C31   C     C_3   0.958983 0.613354 0.523360 -0.370247
C32   C     C_3   0.879202 0.502006 0.497111 0.123898
C33   C     C_3   0.101170 0.612739 0.523183 -0.367579
C34   C     C_R   0.655772 0.712312 0.063975 -0.134422
C35   C     C_R   0.525710 0.599761 0.200537 -0.065153
C36   C     C_R   0.376719 0.305168 0.831883 -0.159974
C37   C     C_R   0.329017 0.284963 0.930746 -0.102838
C38   C     C_R   0.370340 0.361178 0.998137 -0.139850
H1    H     H_    0.855058 0.325200 0.554070 0.198936
H2    H     H_    0.322796 0.342847 0.071075 0.162661
H3    H     H_    0.253974 0.213061 0.953455 0.179714
H4    H     H_    0.876472 0.409702 0.653336 0.230482
H5    H     H_    0.290290 0.257882 0.339567 0.176467
H6    H     H_    0.278809 0.875335 0.322020 0.221115
H7    H     H_    0.577827 0.180013 0.541530 0.192606
H8    H     H_    0.702301 0.736734 0.665479 0.194194
H9    H     H_    0.719055 0.903594 0.744320 0.203970
H10   H     H_    0.399984 0.749820 0.401157 0.205245
H11   H     H_    0.092137 0.419913 0.655587 0.177318
H12   H     H_    0.150144 0.681635 0.465806 0.187665
H13   H     H_    0.067628 0.326004 0.562601 0.196476
H14   H     H_    0.861796 0.408264 0.366496 0.194497
H15   H     H_    0.074865 0.403464 0.369503 0.196888
H16   H     H_    0.939863 0.682412 0.466110 0.195974
H17   H     H_    0.933017 0.629208 0.599535 0.226103
H18   H     H_    0.142811 0.627603 0.599849 0.199957
H19   H     H_    0.178181 0.003279 0.111020 0.385181
H20   H     H_    0.553912 0.047838 0.889871 0.396272
H21   H     H_    0.900224 0.554944 0.331249 0.172285
H22   H     H_    0.114091 0.549712 0.330606 0.162431
H23   H     H_    0.659072 0.753161 0.215946 0.173409
H24   H     H_    0.759863 0.699622 0.889977 0.174300
H25   H     H_    0.730488 0.783609 0.038293 0.158795
H26   H     H_    0.393773 0.458489 0.165267 0.144975
H27   H     H_    0.333150 0.251027 0.777529 0.196812
N1    N     N_R   0.433240 0.222190 0.444680 -0.143281
N2    N     N_R   0.566070 0.776970 0.554790 -0.124540
O1    O     O_R   0.468120 0.366740 0.627160 -0.570493
O2    O     O_2   0.128047 0.156576 0.222353 -0.323738
O3    O     O_3   0.249657 0.019649 0.160419 -0.568909
O4    O     O_2   0.667602 0.161198 0.713820 -0.331417
O5    O     O_2   0.433573 0.089776 0.707660 -0.319713
O6    O     O_3   0.567129 0.994056 0.845434 -0.542484
O7    O     O_R   0.510770 0.544830 0.662520 -0.596863
O8    O     O_R   0.663880 0.410950 0.482330 -0.621790
O9    O     O_R   0.706530 0.589040 0.517700 -0.604323
O10   O     O_R   0.489230 0.455170 0.337480 -0.612125
O11   O     O_R   0.531880 0.633260 0.372840 -0.638121
O12   O     O_R   0.293470 0.410960 0.482300 -0.623699
O13   O     O_R   0.336120 0.589050 0.517670 -0.643172
O14   O     O_2   0.077566 0.964469 0.304071 -0.315619
S1    S     S_3+6 0.183348 0.057391 0.259614 -0.014492
S2    S     S_3+6 0.562282 0.059155 0.725173 -0.000795
Zn1   Zn    Zn3+2 0.471520 0.381090 0.476390 0.983070
Zn2   Zn    Zn3+2 0.528480 0.618910 0.523610 0.954744

loop_
_geom_bond_atom_site_label_1
_geom_bond_atom_site_label_2
_ccdc_geom_bond_type
C20   C25   A    
C23   H22   S    
C22   H6    S    
N2    Zn2   S    
C18   C19   A    
C14   H8    S    
C10   H23   S    
C1    C11   S    
C15   H9    S    
C6    C7    A    
C38   H2    S    
C33   H12   S    
C36   C37   A    
C25   N1    A    
C10   C35   A    
C18   C20   A    
C37   H3    S    
C37   C38   A    
H19   O3    S    
C19   C24   A    
C23   H15   S    
C14   C15   A    
C28   C32   S    
C16   O11   A    
C17   C18   A    
C11   C36   A    
C26   H5    S    
C7    C8    A    
C4    C32   S    
C33   H18   S    
C17   S2    S    
C30   C32   S    
C12   C27   S    
C34   H25   S    
C16   C35   S    
C13   C26   A    
C3    C11   A    
C1    O1    A    
C31   H16   S    
O13   Zn2   S    
C2    C5    A    
C29   H11   S    
C2    C38   A    
C20   C21   A    
C28   H4    S    
C13   S1    S    
O3    S1    S    
N1    Zn1   S    
C12   C29   S    
Br1   C8    S    
C12   C23   S    
C31   C33   S    
C30   H21   S    
O12   Zn1   S    
O7    Zn2   S    
C36   H27   S    
C30   H14   S    
O2    S1    D    
H20   O6    S    
O4    S2    D    
O10   Zn1   S    
O9    Zn2   S    
C4    O9    A    
C2    C3    A    
O1    Zn1   S    
C9    H26   S    
C29   H13   S    
O5    S2    D    
C27   O13   A    
C6    C34   A    
C19   N2    A    
O6    S2    S    
C5    C9    A    
C5    C6    A    
C31   C32   S    
C13   C21   A    
C4    O8    A    
C10   C34   A    
C23   C30   S    
C12   C33   S    
C14   N2    A    
C28   H1    S    
C16   O10   A    
C22   C24   A    
C27   O12   A    
C24   H10   S    
C26   N1    A    
C25   H7    S    
C7    H24   S    
C28   C29   S    
C15   C17   A    
O14   S1    D    
C21   C22   A    
C9    C35   A    
C3    C8    A    
O8    Zn1   S    
C31   H17   S    
O11   Zn2   S    
C1    O7    A    
