data_mof_unit_7594.cif
_audit_creation_date              2012-10-26T19:14:26-0400
_audit_creation_method            fapswitch 2.2
_symmetry_space_group_name_H-M    P1
_symmetry_Int_Tables_number       1
_space_group_crystal_system       triclinic
_cell_length_a                    13.823546
_cell_length_b                    15.169001
_cell_length_c                    17.082804
_cell_angle_alpha                 89.763078
_cell_angle_beta                  84.39751
_cell_angle_gamma                 88.935733
_cell_volume                      3564.34689552

loop_
_atom_site_label
_atom_site_type_symbol
_atom_type_description
_atom_site_fract_x
_atom_site_fract_y
_atom_site_fract_z
_atom_type_partial_charge
C1    C     C_R   0.499128 0.670351 0.499455 0.556531
C2    C     C_R   0.427031 0.188664 0.470293 -0.178471
C3    C     C_R   0.587205 0.902835 0.480699 -0.143147
C4    C     C_R   0.427060 0.097179 0.468941 -0.141148
C5    C     C_R   0.501247 0.951866 0.499376 -0.009234
C6    C     C_R   0.502460 0.048627 0.498962 -0.007251
C7    C     C_R   0.900097 0.520254 0.429658 0.233373
C8    C     C_R   0.100161 0.552060 0.555047 0.219980
C9    C     C_R   0.797999 0.516421 0.431710 0.049163
C10   C     C_R   0.202527 0.548712 0.554539 0.049641
C11   C     C_R   0.784397 0.484622 0.567554 0.006754
C12   C     C_R   0.500966 0.329794 0.500541 0.568881
C13   C     C_R   0.216316 0.452512 0.445398 0.011799
C14   C     C_R   0.885907 0.485446 0.568036 -0.167038
C15   C     C_R   0.114795 0.453034 0.444076 -0.171879
C16   C     C_R   0.485862 0.501880 0.650532 0.562220
C17   C     C_R   0.514065 0.501553 0.349419 0.542484
C18   C     C_R   0.945892 0.502936 0.498779 0.041699
C19   C     C_R   0.054855 0.502680 0.499405 0.039358
C20   C     C_R   0.473566 0.514369 0.735466 -0.020953
C21   C     C_R   0.525673 0.513088 0.264294 -0.025544
C22   C     C_R   0.535478 0.471664 0.783485 -0.162810
C23   C     C_R   0.413624 0.908216 0.517761 -0.091844
C24   C     C_R   0.464286 0.470879 0.216945 -0.165586
C25   C     C_R   0.525778 0.487941 0.863788 -0.158216
C26   C     C_R   0.472309 0.487178 0.136458 -0.161996
C27   C     C_R   0.457051 0.550504 0.896969 0.084217
C28   C     C_R   0.538423 0.549581 0.102529 0.069885
C29   C     C_R   0.389823 0.589793 0.849651 0.279018
C30   C     C_R   0.605186 0.587343 0.149544 0.269505
C31   C     C_R   0.400425 0.572094 0.768220 -0.136250
C32   C     C_R   0.596944 0.569822 0.230464 -0.128495
C33   C     C_2   0.454381 0.572636 0.981914 0.250400
C34   C     C_R   0.578707 0.092806 0.529046 -0.100675
C35   C     C_2   0.538827 0.573129 0.017869 0.236983
C36   C     C_3   0.974064 0.629529 0.354566 0.002308
C37   C     C_3   0.890045 0.681952 0.323022 -0.275132
C38   C     C_3   0.917694 0.777118 0.304304 -0.490136
C39   C     C_3   0.055139 0.691193 0.595766 -0.001921
C40   C     C_3   0.971514 0.741908 0.641416 -0.252616
C41   C     C_3   0.979532 0.841038 0.627627 -0.493227
C42   C     C_3   0.641101 0.662033 0.938922 0.015855
C43   C     C_3   0.736648 0.661225 0.885632 -0.256755
C44   C     C_3   0.758742 0.752080 0.850424 -0.491729
C45   C     C_R   0.410107 0.816601 0.513647 0.261999
C46   C     C_3   0.346141 0.656812 0.063466 0.022898
C47   C     C_3   0.254977 0.649688 0.121334 -0.252569
C48   C     C_3   0.227676 0.737662 0.161201 -0.499538
C49   C     C_3   0.233023 0.650850 0.849160 0.017130
C50   C     C_3   0.152598 0.689303 0.907613 -0.253175
C51   C     C_3   0.056863 0.699727 0.870597 -0.493817
C52   C     C_3   0.765617 0.613305 0.113905 0.020802
C53   C     C_3   0.838331 0.686888 0.094516 -0.265476
C54   C     C_3   0.942754 0.651080 0.084089 -0.500241
C55   C     C_3   0.277240 0.768187 0.457545 0.022059
C56   C     C_R   0.581625 0.184813 0.527625 0.251603
C57   C     C_3   0.206767 0.845580 0.447114 -0.286171
C58   C     C_3   0.151886 0.832882 0.374980 -0.496729
C59   C     C_3   0.741569 0.221702 0.509658 0.019661
C60   C     C_3   0.827694 0.244954 0.554857 -0.248906
C61   C     C_3   0.920280 0.256660 0.499650 -0.487512
C62   C     C_R   0.497638 0.767147 0.498196 0.012817
C63   C     C_R   0.503509 0.233269 0.499937 0.021909
C64   C     C_R   0.585640 0.811341 0.481318 -0.179047
Cu1   Cu    Cu3+1 0.403570 0.500010 0.500000 0.937984
Cu2   Cu    Cu3+1 0.596430 0.499990 0.500000 0.937019
H1    H     H_    0.917418 0.470838 0.622321 0.143097
H2    H     H_    0.855802 0.812409 0.280515 0.146548
H3    H     H_    0.981643 0.779287 0.259633 0.145877
H4    H     H_    0.053164 0.706369 0.531956 0.117206
H5    H     H_    0.125213 0.713534 0.615174 0.153424
H6    H     H_    0.901294 0.719449 0.622543 0.175129
H7    H     H_    0.972024 0.727902 0.705230 0.164145
H8    H     H_    0.049082 0.865044 0.646417 0.150323
H9    H     H_    0.918411 0.875783 0.662421 0.146449
H10   H     H_    0.975854 0.856689 0.564383 0.141199
H11   H     H_    0.764544 0.528523 0.378076 0.131233
H12   H     H_    0.083188 0.413806 0.400631 0.137010
H13   H     H_    0.237172 0.585565 0.597792 0.136325
H14   H     H_    0.741020 0.469922 0.621828 0.140675
H15   H     H_    0.261259 0.413574 0.402637 0.129184
H16   H     H_    0.643882 0.603579 0.267367 0.115831
H17   H     H_    0.354657 0.605813 0.729311 0.108216
H18   H     H_    0.643689 0.713487 0.984832 0.177846
H19   H     H_    0.581358 0.679588 0.902245 0.122056
H20   H     H_    0.797301 0.639702 0.919826 0.168888
H21   H     H_    0.731915 0.613228 0.837195 0.172419
H22   H     H_    0.699967 0.774168 0.814523 0.154971
H23   H     H_    0.591027 0.425597 0.758881 0.131543
H24   H     H_    0.828313 0.748888 0.812049 0.143740
H25   H     H_    0.765764 0.800753 0.897852 0.142644
H26   H     H_    0.334406 0.709376 0.019688 0.179564
H27   H     H_    0.407193 0.676480 0.097115 0.116499
H28   H     H_    0.193172 0.627610 0.089831 0.171368
H29   H     H_    0.268139 0.599676 0.167053 0.173308
H30   H     H_    0.287940 0.760443 0.194139 0.146865
H31   H     H_    0.161798 0.729652 0.203125 0.137982
H32   H     H_    0.211703 0.788127 0.116718 0.143627
H33   H     H_    0.211956 0.582887 0.833707 0.136676
H34   H     H_    0.410298 0.425363 0.242227 0.122081
H35   H     H_    0.239301 0.693179 0.795633 0.137068
H36   H     H_    0.141651 0.644861 0.959410 0.169885
H37   H     H_    0.174505 0.754832 0.928024 0.166655
H38   H     H_    0.065490 0.746256 0.820149 0.148031
H39   H     H_    0.999692 0.726512 0.914755 0.143184
H40   H     H_    0.033115 0.634971 0.849978 0.156561
H41   H     H_    0.774631 0.562877 0.066465 0.176710
H42   H     H_    0.782401 0.581829 0.170174 0.112026
H43   H     H_    0.821807 0.720973 0.039580 0.166712
H44   H     H_    0.831315 0.736089 0.142839 0.167160
H45   H     H_    0.040319 0.637250 0.312931 0.151384
H46   H     H_    0.961370 0.616846 0.138367 0.158053
H47   H     H_    0.993533 0.706424 0.071806 0.142650
H48   H     H_    0.952287 0.604296 0.033955 0.148091
H49   H     H_    0.425368 0.451682 0.100981 0.159331
H50   H     H_    0.573267 0.452065 0.899931 0.156704
H51   H     H_    0.347442 0.945338 0.535225 0.114459
H52   H     H_    0.635686 0.056100 0.554829 0.113767
H53   H     H_    0.235176 0.706415 0.461257 0.152554
H54   H     H_    0.330736 0.761281 0.404363 0.126073
H55   H     H_    0.153927 0.851474 0.500214 0.162792
H56   H     H_    0.991157 0.657385 0.411804 0.117484
H57   H     H_    0.247222 0.907960 0.439441 0.149367
H58   H     H_    0.203426 0.831582 0.320920 0.150158
H59   H     H_    0.099179 0.888333 0.370362 0.145195
H60   H     H_    0.111738 0.770241 0.379796 0.130543
H61   H     H_    0.736248 0.269517 0.460586 0.159496
H62   H     H_    0.755893 0.154497 0.484344 0.101564
H63   H     H_    0.811051 0.306760 0.588292 0.179250
H64   H     H_    0.839858 0.191615 0.597814 0.157279
H65   H     H_    0.939857 0.194498 0.467286 0.140565
H66   H     H_    0.981008 0.274206 0.534327 0.149719
H67   H     H_    0.869604 0.649966 0.268931 0.168619
H68   H     H_    0.909986 0.310470 0.456775 0.156450
H69   H     H_    0.653474 0.775220 0.467525 0.133019
H70   H     H_    0.367535 0.224613 0.447217 0.126295
H71   H     H_    0.655636 0.935197 0.465237 0.108811
H72   H     H_    0.368190 0.064409 0.444131 0.107360
H73   H     H_    0.825764 0.682577 0.367415 0.146649
H74   H     H_    0.934599 0.811253 0.358574 0.144266
N1    N     N_R   0.741310 0.499980 0.500000 -0.251683
N2    N     N_R   0.258690 0.500020 0.500000 -0.253230
O1    O     O_R   0.418570 0.628550 0.499990 -0.470583
O2    O     O_3   0.043974 0.600336 0.611618 -0.596223
O3    O     O_3   0.628992 0.577909 0.974246 -0.594355
O4    O     O_3   0.363574 0.574669 0.025091 -0.573321
O5    O     O_3   0.321962 0.650864 0.883761 -0.570378
O6    O     O_3   0.670268 0.649676 0.118905 -0.575989
O7    O     O_3   0.321240 0.776276 0.528721 -0.578750
O8    O     O_3   0.655285 0.226615 0.561434 -0.559381
O9    O     O_R   0.581430 0.371450 0.500010 -0.461867
O10   O     O_R   0.581440 0.628540 0.499990 -0.512843
O11   O     O_R   0.418560 0.371460 0.500010 -0.511348
O12   O     O_R   0.409120 0.500020 0.613600 -0.503354
O13   O     O_R   0.590880 0.499980 0.386400 -0.524497
O14   O     O_R   0.571990 0.500010 0.613600 -0.502865
O15   O     O_R   0.428010 0.499990 0.386400 -0.507684
O16   O     O_3   0.953854 0.538393 0.359072 -0.598237

loop_
_geom_bond_atom_site_label_1
_geom_bond_atom_site_label_2
_ccdc_geom_bond_type
C53   H44   S    
C34   H52   S    
C30   C32   A    
C34   C56   A    
C23   C45   A    
C27   C29   A    
C14   C18   A    
C36   H56   S    
C12   O11   A    
C1    C62   S    
C7    O16   S    
C55   H53   S    
C3    C64   A    
C27   C33   S    
C15   C19   A    
C48   H31   S    
C37   C38   S    
C36   C37   S    
C24   C26   A    
C49   H35   S    
Cu2   O13   S    
Cu1   O1    S    
C11   C14   A    
C15   H12   S    
C57   H57   S    
C59   H61   S    
C54   H47   S    
C13   H15   S    
C45   C62   A    
C31   H17   S    
C40   H7    S    
C49   O5    S    
C1    O10   A    
C18   C19   S    
C10   N2    A    
C26   H49   S    
C62   C64   A    
C61   H66   S    
C41   H8    S    
C22   H23   S    
C52   H41   S    
C22   C25   A    
C16   O14   A    
Cu1   O11   S    
C14   H1    S    
C3    H71   S    
C17   O15   A    
C36   O16   S    
C64   H69   S    
C50   H37   S    
C52   O6    S    
C12   O9    A    
C61   H68   S    
C55   O7    S    
C55   H54   S    
C21   C32   A    
C8    C19   A    
C38   H74   S    
C42   H18   S    
C28   C35   S    
C4    C6    A    
C11   H14   S    
C25   H50   S    
C60   H64   S    
C49   H33   S    
Cu2   N1    S    
C12   C63   S    
C9    N1    A    
C59   H62   S    
C53   C54   S    
C57   H55   S    
C2    H70   S    
C6    C34   A    
C60   C61   S    
C2    C4    A    
C43   C44   S    
Cu2   O10   S    
Cu1   O12   S    
C1    O1    A    
C41   H9    S    
C29   O5    S    
C47   C48   S    
C5    C23   A    
C16   C20   S    
C7    C18   A    
C36   H45   S    
C50   C51   S    
C56   C63   A    
C54   H46   S    
C8    O2    S    
C42   H19   S    
C9    H11   S    
C13   N2    A    
C30   O6    S    
C11   N1    A    
C44   H25   S    
Cu1   O15   S    
C40   C41   S    
C38   H2    S    
C58   H60   S    
C55   C57   S    
C16   O12   A    
C37   H67   S    
C42   C43   S    
C56   O8    S    
C17   O13   A    
C39   C40   S    
C44   H24   S    
C52   C53   S    
C59   O8    S    
C53   H43   S    
C7    C9    A    
C35   O3    S    
C46   C47   S    
C39   H5    S    
C40   H6    S    
C24   H34   S    
C43   H20   S    
C26   C28   A    
C48   H30   S    
C20   C22   A    
C3    C5    A    
C60   H63   S    
C23   H51   S    
C10   H13   S    
C50   H36   S    
C25   C27   A    
C32   H16   S    
C46   O4    S    
C58   H58   S    
C43   H21   S    
C13   C15   A    
C51   H38   S    
C2    C63   A    
Cu2   O9    S    
C29   C31   A    
C41   H10   S    
Cu2   O14   S    
Cu1   N2    S    
C57   C58   S    
C5    C6    S    
C46   H27   S    
C51   H40   S    
C54   H48   S    
C28   C30   A    
C33   C35   D    
C39   H4    S    
C45   O7    S    
C48   H32   S    
Cu1   Cu2   S    
C17   C21   S    
C51   H39   S    
C38   H3    S    
C33   O4    S    
C61   H65   S    
C4    H72   S    
C59   C60   S    
C46   H26   S    
C39   O2    S    
C52   H42   S    
C58   H59   S    
C8    C10   A    
C49   C50   S    
C37   H73   S    
C21   C24   A    
C47   H29   S    
C44   H22   S    
C42   O3    S    
C47   H28   S    
C20   C31   A    
