data_mof_unit_50152.cif
_audit_creation_date              2012-12-11T15:36:49-0500
_audit_creation_method            fapswitch 2.2
_symmetry_space_group_name_H-M    P1
_symmetry_Int_Tables_number       1
_space_group_crystal_system       triclinic
_cell_length_a                    15.061785
_cell_length_b                    15.070058
_cell_length_c                    34.844535
_cell_angle_alpha                 91.299173
_cell_angle_beta                  91.784468
_cell_angle_gamma                 60.116043
_cell_volume                      6853.90116128

loop_
_atom_site_label
_atom_site_type_symbol
_atom_type_description
_atom_site_fract_x
_atom_site_fract_y
_atom_site_fract_z
_atom_type_partial_charge
C1    C     C_R   0.610815 0.302397 0.444127 0.543622
C2    C     C_R   0.732877 0.680232 0.181042 0.066554
C3    C     C_R   0.612365 0.150157 0.830630 0.027182
C4    C     C_R   0.681600 0.170788 0.851387 -0.112334
C5    C     C_R   0.711504 0.135816 0.888758 -0.116277
C6    C     C_R   0.591855 0.259597 0.774419 -0.113863
C7    C     C_R   0.595698 0.270691 0.735038 -0.112774
C8    C     C_R   0.602575 0.194420 0.709439 0.025400
C9    C     C_R   0.600216 0.109312 0.723588 -0.115552
C10   C     C_R   0.597639 0.097494 0.763117 -0.111603
C11   C     C_R   0.596188 0.171311 0.788962 0.027517
C12   C     C_R   0.548324 0.196119 0.640887 -0.120202
C13   C     C_R   0.825882 0.628597 0.161938 -0.123160
C14   C     C_R   0.550628 0.219904 0.602556 -0.124682
C15   C     C_R   0.692175 0.249102 0.617915 -0.124723
C16   C     C_R   0.688844 0.226751 0.656241 -0.121505
C17   C     C_R   0.614668 0.203578 0.668196 0.027952
C18   C     C_R   0.620219 0.250174 0.591023 0.022448
C19   C     C_R   0.044840 0.739464 0.048805 0.539638
C20   C     C_R   0.747320 0.746439 0.063960 0.547254
C21   C     C_R   0.751596 0.039912 0.050814 0.542777
C22   C     C_R   0.017051 0.722412 0.939790 0.544674
C23   C     C_R   0.717259 0.730183 0.954846 0.544768
C24   C     C_R   0.829518 0.645166 0.123010 -0.131572
C25   C     C_R   0.721369 0.024495 0.942092 0.542808
C26   C     C_R   0.746181 0.578510 0.238834 0.184693
C27   C     C_R   0.739001 0.573168 0.278426 -0.079216
C28   C     C_R   0.717609 0.657780 0.302185 -0.004103
C29   C     C_R   0.707038 0.746990 0.286060 -0.120110
C30   C     C_R   0.715035 0.752422 0.246567 -0.116808
C31   C     C_R   0.732411 0.669299 0.222717 0.061313
C32   C     C_R   0.606738 0.734402 0.358846 -0.110995
C33   C     C_R   0.593436 0.610172 0.449447 0.545385
C34   C     C_R   0.575927 0.722921 0.394853 -0.126654
C35   C     C_R   0.729138 0.556670 0.400879 -0.124488
C36   C     C_R   0.759565 0.568011 0.364867 -0.123182
C37   C     C_R   0.696704 0.655181 0.343004 0.031553
C38   C     C_R   0.634910 0.632116 0.415490 0.020854
C39   C     C_R   0.098263 0.730809 0.085942 0.020838
C40   C     C_R   0.141772 0.638097 0.106019 -0.123165
C41   C     C_R   0.160906 0.636327 0.145410 -0.116269
C42   C     C_R   0.138311 0.726787 0.165302 0.032206
C43   C     C_R   0.105295 0.817341 0.144799 -0.106486
C44   C     C_R   0.303605 0.591647 0.442443 0.542498
C45   C     C_R   0.085264 0.819428 0.105274 -0.119387
C46   C     C_R   0.196602 0.763856 0.228520 -0.100047
C47   C     C_R   0.204821 0.755445 0.268486 -0.105952
C48   C     C_R   0.155635 0.711742 0.288025 0.024531
C49   C     C_R   0.094301 0.681140 0.266959 -0.122338
C50   C     C_R   0.087172 0.688431 0.227082 -0.120041
C51   C     C_R   0.140271 0.727468 0.207557 0.026146
C52   C     C_R   0.194040 0.594625 0.343493 -0.117626
C53   C     C_R   0.228755 0.565772 0.381186 -0.126674
C54   C     C_R   0.223489 0.727489 0.392458 -0.125325
C55   C     C_R   0.605516 0.300725 0.553784 0.541940
C56   C     C_R   0.188247 0.756562 0.354776 -0.121244
C57   C     C_R   0.176461 0.689000 0.329534 0.032124
C58   C     C_R   0.247313 0.630394 0.405624 0.020965
C59   C     C_R   0.726668 0.095028 0.087799 0.020553
C60   C     C_R   0.802329 0.105081 0.108881 -0.124486
C61   C     C_R   0.789875 0.129770 0.147886 -0.074400
C62   C     C_R   0.701614 0.145035 0.166131 0.043568
C63   C     C_R   0.622026 0.144642 0.144353 -0.126326
C64   C     C_R   0.634423 0.119790 0.105440 -0.119619
C65   C     C_R   0.608240 0.236376 0.224407 -0.120586
C66   C     C_R   0.587302 0.606293 0.559198 0.541286
C67   C     C_R   0.597075 0.244488 0.263981 -0.112744
C68   C     C_R   0.672284 0.170163 0.288154 0.008087
C69   C     C_R   0.759014 0.087163 0.272175 -0.092691
C70   C     C_R   0.770676 0.077663 0.232216 0.117336
C71   C     C_R   0.694762 0.153881 0.208212 0.064502
C72   C     C_R   0.744619 0.174572 0.352924 -0.115683
C73   C     C_R   0.729897 0.206033 0.391237 -0.124834
C74   C     C_R   0.552681 0.246969 0.385291 -0.128415
C75   C     C_R   0.567357 0.215944 0.346932 -0.122247
C76   C     C_R   0.662261 0.183506 0.330093 0.031126
C77   C     C_R   0.297959 0.589189 0.551678 0.544026
C78   C     C_R   0.632626 0.246641 0.407264 0.021271
C79   C     C_R   0.691953 0.689973 0.919691 -0.009999
C80   C     C_R   0.762635 0.593077 0.905075 -0.092604
C81   C     C_R   0.752465 0.565200 0.867327 0.161326
C82   C     C_R   0.671073 0.635288 0.843575 0.038098
C83   C     C_R   0.595462 0.727901 0.859434 -0.155307
C84   C     C_R   0.605513 0.754884 0.897158 -0.136900
C85   C     C_R   0.579257 0.635357 0.782611 -0.115621
C86   C     C_R   0.573011 0.635350 0.742576 -0.120008
C87   C     C_R   0.656702 0.619959 0.720872 0.023936
C88   C     C_R   0.740151 0.714603 0.102780 -0.010678
C89   C     C_R   0.747625 0.601970 0.739785 -0.113004
C90   C     C_R   0.753422 0.603234 0.779838 -0.073015
C91   C     C_R   0.669225 0.620136 0.801579 0.059186
C92   C     C_R   0.722381 0.545787 0.656034 -0.121283
C93   C     C_R   0.706890 0.543860 0.616339 -0.129640
C94   C     C_R   0.546575 0.703798 0.621004 -0.125778
C95   C     C_R   0.561572 0.705002 0.660639 -0.123956
C96   C     C_R   0.647844 0.624388 0.678588 0.029944
C97   C     C_R   0.616992 0.621085 0.598613 0.021588
C98   C     C_R   0.066448 0.698355 0.902434 0.020082
C99   C     C_R   0.646267 0.762836 0.121615 -0.090087
C100  C     C_R   0.092893 0.766154 0.886148 -0.122608
C101  C     C_R   0.121306 0.754480 0.847964 -0.119581
C102  C     C_R   0.123228 0.675161 0.825504 0.027528
C103  C     C_R   0.103472 0.603372 0.842496 -0.116924
C104  C     C_R   0.075624 0.614665 0.880763 -0.119571
C105  C     C_R   0.197522 0.578092 0.765050 -0.116159
C106  C     C_R   0.206477 0.574807 0.725385 -0.114607
C107  C     C_R   0.155981 0.665256 0.703976 0.027756
C108  C     C_R   0.096938 0.759186 0.722714 -0.117182
C109  C     C_R   0.087456 0.762447 0.762406 -0.113873
C110  C     C_R   0.642130 0.745811 0.160534 0.181258
C111  C     C_R   0.137707 0.671880 0.783857 0.028252
C112  C     C_R   0.200671 0.725107 0.645639 -0.121590
C113  C     C_R   0.234616 0.707176 0.608036 -0.128762
C114  C     C_R   0.199013 0.567041 0.602605 -0.124822
C115  C     C_R   0.165382 0.584869 0.640167 -0.122270
C116  C     C_R   0.170398 0.660945 0.662408 0.030791
C117  C     C_R   0.238636 0.624793 0.586908 0.022576
C118  C     C_R   0.672917 0.079414 0.906225 0.019447
C119  C     C_R   0.598112 0.064943 0.886623 -0.126832
C120  C     C_R   0.568298 0.099798 0.849002 -0.119566
Cr1   Cr    Cr6+3 0.426010 0.422500 0.497000 1.010869
Cr2   Cr    Cr6+3 0.651300 0.426310 0.501970 1.010395
Cr3   Cr    Cr6+3 0.422670 0.651170 0.501050 1.010285
Cr4   Cr    Cr6+3 0.905130 0.911420 0.992650 1.022721
Cr5   Cr    Cr6+3 0.911860 0.682710 0.002320 1.026878
Cr6   Cr    Cr6+3 0.682710 0.906840 0.004710 1.023067
H1    H     H_    0.576495 0.816106 0.106414 0.159852
H2    H     H_    0.503219 0.782519 0.405469 0.128159
H3    H     H_    0.896146 0.578071 0.177511 0.129408
H4    H     H_    0.776878 0.486254 0.416292 0.127750
H5    H     H_    0.153406 0.568425 0.091914 0.130901
H6    H     H_    0.051440 0.892141 0.090646 0.129290
H7    H     H_    0.173438 0.830530 0.345020 0.103756
H8    H     H_    0.253602 0.778652 0.283857 0.119099
H9    H     H_    0.237700 0.794547 0.213869 0.141830
H10   H     H_    0.188328 0.565293 0.160753 0.113112
H11   H     H_    0.053742 0.649312 0.281243 0.106996
H12   H     H_    0.903133 0.607639 0.109299 0.140710
H13   H     H_    0.041289 0.662164 0.211337 0.106849
H14   H     H_    0.186848 0.540274 0.324676 0.105638
H15   H     H_    0.246701 0.490358 0.390411 0.125592
H16   H     H_    0.087877 0.887803 0.159748 0.125242
H17   H     H_    0.236299 0.779329 0.410730 0.123515
H18   H     H_    0.874200 0.086520 0.096045 0.128994
H19   H     H_    0.574602 0.113240 0.089823 0.131694
H20   H     H_    0.503279 0.221741 0.329914 0.107125
H21   H     H_    0.530493 0.310223 0.275782 0.120673
H22   H     H_    0.549403 0.294992 0.206300 0.123818
H23   H     H_    0.829941 0.506645 0.353319 0.107626
H24   H     H_    0.851113 0.131999 0.164229 0.155182
H25   H     H_    0.816754 0.029257 0.290816 0.099902
H26   H     H_    0.818476 0.149882 0.340512 0.111059
H27   H     H_    0.793103 0.204238 0.407592 0.127163
H28   H     H_    0.552971 0.157136 0.157966 0.116429
H29   H     H_    0.476994 0.277400 0.396910 0.126337
H30   H     H_    0.828730 0.540876 0.922283 0.155977
H31   H     H_    0.549544 0.829982 0.907578 0.136109
H32   H     H_    0.504058 0.767354 0.677490 0.103517
H33   H     H_    0.745478 0.504435 0.290424 0.140821
H34   H     H_    0.502513 0.648095 0.728498 0.110273
H35   H     H_    0.513186 0.649453 0.798823 0.109931
H36   H     H_    0.812714 0.590714 0.723577 0.107815
H37   H     H_    0.822423 0.594704 0.793852 0.142754
H38   H     H_    0.789683 0.482994 0.669354 0.108723
H39   H     H_    0.762432 0.478972 0.599914 0.121298
H40   H     H_    0.532048 0.782777 0.841781 0.110579
H41   H     H_    0.476526 0.764520 0.608327 0.125871
H42   H     H_    0.087471 0.830712 0.902418 0.128591
H43   H     H_    0.055298 0.561493 0.892602 0.146865
H44   H     H_    0.140355 0.535897 0.652520 0.106011
H45   H     H_    0.254445 0.501772 0.711469 0.110731
H46   H     H_    0.237864 0.507511 0.781049 0.109435
H47   H     H_    0.138458 0.809410 0.835619 0.108277
H48   H     H_    0.057456 0.829640 0.706597 0.107226
H49   H     H_    0.039252 0.835510 0.776237 0.110613
H50   H     H_    0.205092 0.784213 0.662435 0.103506
H51   H     H_    0.264392 0.753130 0.596583 0.124792
H52   H     H_    0.103820 0.541900 0.825664 0.119369
H53   H     H_    0.199924 0.503933 0.586761 0.128285
H54   H     H_    0.567306 0.021454 0.899435 0.125305
H55   H     H_    0.768926 0.148484 0.903285 0.142501
H56   H     H_    0.741737 0.231318 0.676890 0.112403
H57   H     H_    0.594973 0.338183 0.724536 0.116717
H58   H     H_    0.588694 0.318637 0.793589 0.117514
H59   H     H_    0.513803 0.084024 0.833796 0.105721
H60   H     H_    0.605079 0.049915 0.704201 0.106818
H61   H     H_    0.602309 0.028058 0.773474 0.105846
H62   H     H_    0.490840 0.177947 0.649602 0.105020
H63   H     H_    0.690864 0.812864 0.303936 0.115463
H64   H     H_    0.494301 0.220096 0.582410 0.120330
H65   H     H_    0.717893 0.208294 0.837974 0.130059
H66   H     H_    0.746380 0.272535 0.609992 0.127473
H67   H     H_    0.705227 0.822382 0.234394 0.128946
H68   H     H_    0.556810 0.802139 0.342337 0.118303
O1    O     O_R   0.324990 0.503440 0.453910 -0.521123
O2    O     O_R   0.639980 0.519500 0.542640 -0.502534
O3    O     O_R   0.500750 0.673190 0.545480 -0.520994
O4    O     O_R   0.336260 0.640450 0.538210 -0.504141
O5    O     O_3   0.499990 0.499990 0.500010 -0.234536
O6    O     O_R   0.834210 0.019400 0.034570 -0.517994
O7    O     O_R   0.002210 0.824620 0.031030 -0.502045
O8    O     O_R   0.024400 0.669340 0.039790 -0.518821
O9    O     O_R   0.830490 0.694950 0.045870 -0.498282
O10   O     O_R   0.675430 0.831160 0.051290 -0.514179
O11   O     O_R   0.698870 0.998880 0.039560 -0.500515
O12   O     O_R   0.522030 0.339050 0.458320 -0.503375
O13   O     O_R   0.811290 0.006780 0.950620 -0.513220
O14   O     O_R   0.980960 0.812920 0.953200 -0.499995
O15   O     O_R   0.001480 0.656720 0.955830 -0.514886
O16   O     O_R   0.809240 0.683250 0.968050 -0.499516
O17   O     O_R   0.652500 0.818540 0.967340 -0.515555
O18   O     O_R   0.677620 0.987170 0.961730 -0.501809
O19   O     O_3   0.833240 0.833660 0.999890 -0.242409
O20   O     O_R   0.676180 0.324490 0.458320 -0.518534
O21   O     O_R   0.643570 0.521510 0.464260 -0.502154
O22   O     O_R   0.504630 0.675350 0.460920 -0.518192
O23   O     O_R   0.339850 0.642450 0.459830 -0.501024
O24   O     O_R   0.321120 0.501280 0.538470 -0.518768
O25   O     O_R   0.518440 0.337050 0.536710 -0.499886
O26   O     O_R   0.672300 0.322330 0.542880 -0.520541
N1    N     N_3   0.857570 0.990087 0.215897 -0.643261
H69   H     H_    0.830701 0.946091 0.201541 0.232049
H70   H     H_    0.908337 0.943893 0.237508 0.231027
Br1   Br    Br    0.852356 0.431633 0.849480 -0.569870
Br2   Br    Br    0.767731 0.462963 0.207737 -0.518909
Br3   Br    Br    0.511447 0.814741 0.184654 -0.528261

loop_
_geom_bond_atom_site_label_1
_geom_bond_atom_site_label_2
_ccdc_geom_bond_type
C15   C18   A    
C113  H51   S    
C15   H66   S    
C101  C102  A    
C22   C98   S    
C105  H46   S    
C49   H11   S    
C64   H19   S    
C95   H32   S    
C85   H35   S    
C41   C42   A    
C14   C18   A    
Cr3   O4    S    
C101  H47   S    
C95   C96   A    
C92   C96   A    
C72   C76   A    
C120  H59   S    
C92   C93   A    
C56   H7    S    
C33   O21   A    
C63   H28   S    
C7    C8    A    
C85   C86   A    
Cr2   O21   S    
C59   C64   A    
C62   C63   A    
Cr2   O26   S    
C66   C97   S    
Cr3   O5    S    
C36   C37   A    
C21   C59   S    
C77   C117  S    
Cr6   O17   S    
C109  C111  A    
C54   C58   A    
C79   C84   A    
C80   C81   A    
C16   H56   S    
C36   H23   S    
C30   H67   S    
C106  C107  A    
Cr6   O11   S    
C27   H33   S    
C15   C16   A    
C12   H62   S    
C22   O15   A    
C19   O7    A    
C70   N1    S    
C108  C109  A    
Cr1   O24   S    
C21   O11   A    
C49   C50   A    
C2    C13   A    
C118  C119  A    
Cr1   O5    S    
C46   H9    S    
Cr5   O19   S    
Cr5   O9    S    
C35   C36   A    
C44   C58   S    
C8    C9    A    
C72   H26   S    
C108  H48   S    
C12   C17   A    
C74   H29   S    
C107  C108  A    
C70   C71   A    
Cr2   O5    S    
C61   H24   S    
C42   C51   S    
C39   C45   A    
C92   H38   S    
C54   H17   S    
C105  C111  A    
C93   H39   S    
C59   C60   A    
C34   C38   A    
Cr3   O22   S    
Cr4   O14   S    
C1    C78   S    
Cr1   O25   S    
C4    H65   S    
C102  C111  S    
C102  C103  A    
Cr1   O12   S    
C115  H44   S    
C9    C10   A    
C5    H55   S    
C112  C113  A    
C33   O22   A    
Cr6   O10   S    
C80   H30   S    
Cr4   O19   S    
C75   H20   S    
C85   C91   A    
C114  C117  A    
C83   H40   S    
C54   C56   A    
Cr5   O8    S    
C74   C75   A    
C63   C64   A    
C67   C68   A    
C69   H25   S    
C47   C48   A    
C48   C57   S    
C35   C38   A    
C66   O3    A    
C20   O10   A    
C32   H68   S    
C9    H60   S    
C110  Br3   S    
C39   C40   A    
Cr5   O15   S    
C50   H13   S    
C68   C69   A    
C55   O25   A    
C94   C97   A    
C65   C67   A    
C65   C71   A    
C99   C110  A    
C46   C51   A    
C19   O8    A    
C81   C82   A    
C82   C91   S    
Cr2   O20   S    
C13   C24   A    
C6    H58   S    
C60   C61   A    
C65   H22   S    
C32   C34   A    
C25   O18   A    
C75   C76   A    
C29   C30   A    
Cr6   O19   S    
N1    H69   S    
C43   C45   A    
C66   O2    A    
C83   C84   A    
C30   C31   A    
C73   C78   A    
C87   C96   S    
C109  H49   S    
C10   H61   S    
C26   C27   A    
Cr4   O7    S    
C22   O14   A    
C94   C95   A    
C50   C51   A    
C32   C37   A    
C119  C120  A    
C1    O12   A    
C24   C88   A    
C35   H4    S    
C6    C7    A    
C19   C39   S    
C18   C55   S    
C113  C117  A    
Cr5   O16   S    
C34   H2    S    
C40   C41   A    
C112  H50   S    
C40   H5    S    
C12   C14   A    
C114  H53   S    
C98   C100  A    
C87   C89   A    
Cr4   O13   S    
C67   H21   S    
C29   H63   S    
C1    O20   A    
C42   C43   A    
C21   O6    A    
C3    C4    A    
C106  H45   S    
C93   C97   A    
C89   H36   S    
C6    C11   A    
C52   C53   A    
C84   H31   S    
C77   O4    A    
C3    C120  A    
C56   C57   A    
C81   Br1   S    
C46   C47   A    
C28   C29   A    
C44   O1    A    
C86   C87   A    
C5    C118  A    
C26   C31   A    
Cr3   O3    S    
C44   O23   A    
C33   C38   S    
C20   O9    A    
Cr2   O2    S    
C72   C73   A    
C94   H41   S    
C52   C57   A    
C99   H1    S    
C53   C58   A    
C112  C116  A    
C114  C115  A    
C55   O26   A    
C23   O16   A    
C68   C76   S    
C105  C106  A    
Cr4   O6    S    
C8    C17   S    
C7    H57   S    
C90   H37   S    
C100  H42   S    
C103  H52   S    
C24   H12   S    
C47   H8    S    
Cr6   O18   S    
C60   H18   S    
C90   C91   A    
C16   C17   A    
C23   O17   A    
C28   C37   S    
C48   C49   A    
C20   C88   S    
C100  C101  A    
C52   H14   S    
Cr1   O1    S    
C62   C71   S    
C53   H15   S    
Cr3   O23   S    
C61   C62   A    
C77   O24   A    
C69   C70   A    
C107  C116  S    
C88   C99   A    
C3    C11   S    
C10   C11   A    
C79   C80   A    
C14   H64   S    
C4    C5    A    
C45   H6    S    
N1    H70   S    
C82   C83   A    
C74   C78   A    
C119  H54   S    
C73   H27   S    
C103  C104  A    
C13   H3    S    
C2    C31   S    
C43   H16   S    
C26   Br2   S    
C25   C118  S    
C23   C79   S    
C89   C90   A    
C25   O13   A    
C86   H34   S    
C98   C104  A    
C41   H10   S    
C115  C116  A    
C104  H43   S    
C27   C28   A    
C2    C110  A    
