data_mof_unit_52383.cif
_audit_creation_date              2012-12-10T20:51:47-0500
_audit_creation_method            fapswitch 2.2
_symmetry_space_group_name_H-M    P1
_symmetry_Int_Tables_number       1
_space_group_crystal_system       triclinic
_cell_length_a                    8.092447
_cell_length_b                    8.949371
_cell_length_c                    16.711029
_cell_angle_alpha                 89.838509
_cell_angle_beta                  93.8266
_cell_angle_gamma                 89.853145
_cell_volume                      1207.5438007

loop_
_atom_site_label
_atom_site_type_symbol
_atom_type_description
_atom_site_fract_x
_atom_site_fract_y
_atom_site_fract_z
_atom_type_partial_charge
C1    C     C_R   0.500166 0.217907 0.500238 0.932489
C2    C     C_R   0.535388 0.686915 0.147017 0.121538
C3    C     C_R   0.622151 0.581606 0.902490 0.185810
C4    C     C_R   0.478511 0.571380 0.094527 0.157553
C5    C     C_R   0.699958 0.459250 0.867357 0.094566
C6    C     C_R   0.406785 0.440094 0.123848 0.117795
C7    C     C_R   0.653369 0.421013 0.786619 0.095783
C8    C     C_R   0.407484 0.415564 0.207364 0.062097
C9    C     C_1   0.500460 0.065174 0.500860 -0.203326
C10   C     C_1   0.500209 0.934904 0.500851 -0.206190
C11   C     C_3   0.549309 0.800205 0.287343 -0.398195
C12   C     C_R   0.499982 0.782098 0.500196 0.932014
C13   C     C_3   0.383413 0.875795 0.299254 -0.895683
C14   C     C_3   0.298915 0.703273 0.740524 -0.382858
C15   C     C_3   0.332307 0.829599 0.682033 -0.800455
C16   C     C_3   0.601873 0.831796 0.114208 -0.389707
C17   C     C_3   0.791220 0.835324 0.121381 -0.874385
C18   C     C_3   0.484408 0.835767 0.885246 -0.384587
C19   C     C_3   0.646751 0.922235 0.899186 -0.911712
C20   C     C_3   0.833879 0.372583 0.916437 -0.406791
C21   C     C_3   0.005268 0.402369 0.886157 -0.900767
C22   C     C_3   0.332636 0.326470 0.064196 -0.371972
C23   C     C_R   0.520472 0.498994 0.654408 0.925740
C24   C     C_3   0.464507 0.221952 0.034751 -0.911982
C25   C     C_3   0.715820 0.276866 0.749168 -0.388496
C26   C     C_3   0.574667 0.166616 0.730530 -0.907632
C27   C     C_3   0.348549 0.267681 0.240974 -0.395510
C28   C     C_3   0.163465 0.271007 0.254562 -0.832986
C29   C     C_R   0.479516 0.504030 0.346040 0.901996
C30   C     C_R   0.536238 0.512305 0.742058 -0.164008
C31   C     C_R   0.469151 0.529007 0.259675 -0.158344
C32   C     C_R   0.457276 0.633169 0.778715 0.031225
C33   C     C_R   0.523733 0.667834 0.230301 0.089609
C34   C     C_R   0.517908 0.678966 0.855312 0.142539
H1    H     H_    0.300464 0.798836 0.329827 0.278405
H2    H     H_    0.219274 0.745587 0.787215 0.183994
H3    H     H_    0.842302 0.744992 0.084839 0.271509
H4    H     H_    0.834805 0.944401 0.099093 0.243963
H5    H     H_    0.840290 0.820549 0.184483 0.255923
H6    H     H_    0.560117 0.848073 0.051209 0.232950
H7    H     H_    0.549799 0.930245 0.143775 0.195767
H8    H     H_    0.732323 0.866716 0.944585 0.277735
H9    H     H_    0.709994 0.930330 0.842389 0.269922
H10   H     H_    0.620817 0.036678 0.920091 0.250599
H11   H     H_    0.406593 0.902768 0.841907 0.215909
H12   H     H_    0.321824 0.909405 0.240566 0.256780
H13   H     H_    0.413883 0.831825 0.939557 0.195570
H14   H     H_    0.003279 0.404306 0.819719 0.260856
H15   H     H_    0.052435 0.511942 0.908742 0.258835
H16   H     H_    0.091835 0.312667 0.907962 0.249487
H17   H     H_    0.840354 0.402950 0.980899 0.221351
H18   H     H_    0.805736 0.251426 0.915609 0.198531
H19   H     H_    0.544735 0.282669 0.994603 0.275054
H20   H     H_    0.542759 0.175209 0.085861 0.257220
H21   H     H_    0.403485 0.128680 0.000663 0.247106
H22   H     H_    0.233914 0.259100 0.089270 0.207992
H23   H     H_    0.403358 0.977081 0.336555 0.250936
H24   H     H_    0.269884 0.385204 0.012236 0.214070
H25   H     H_    0.505903 0.147102 0.784867 0.269206
H26   H     H_    0.486880 0.208473 0.681815 0.254203
H27   H     H_    0.626022 0.058709 0.710721 0.257101
H28   H     H_    0.779517 0.301022 0.693984 0.227261
H29   H     H_    0.809734 0.216788 0.787972 0.221498
H30   H     H_    0.136055 0.355392 0.300256 0.283370
H31   H     H_    0.088521 0.298189 0.198411 0.242474
H32   H     H_    0.124772 0.159807 0.276130 0.245475
H33   H     H_    0.375338 0.173426 0.200930 0.211581
H34   H     H_    0.608397 0.765877 0.345913 0.221205
H35   H     H_    0.418608 0.239365 0.298379 0.188986
H36   H     H_    0.636470 0.884478 0.266606 0.212950
H37   H     H_    0.323481 0.939765 0.711536 0.234077
H38   H     H_    0.457318 0.818832 0.659271 0.245616
H39   H     H_    0.237605 0.827926 0.630848 0.262881
H40   H     H_    0.219645 0.616497 0.710489 0.225408
N1    N     N_1   0.073640 0.500030 0.499990 -0.043763
N2    N     N_1   0.926360 0.499970 0.500010 -0.041819
N3    N     N_2   0.625883 0.589223 0.987239 -0.177575
N4    N     N_2   0.482866 0.586370 0.010599 -0.192896
O1    O     O_R   0.636850 0.285340 0.500000 -0.612398
O2    O     O_R   0.363150 0.714660 0.500000 -0.615510
O3    O     O_R   0.363100 0.285350 0.500000 -0.614669
O4    O     O_R   0.636900 0.714650 0.500000 -0.621836
O5    O     O_R   0.652140 0.498630 0.616140 -0.625908
O6    O     O_R   0.347860 0.501370 0.383860 -0.612988
O7    O     O_R   0.378390 0.498650 0.616130 -0.619559
O8    O     O_R   0.621610 0.501350 0.383870 -0.627564
Zn1   Zn    Zn3+2 0.682780 0.499990 0.500010 0.965268
Zn2   Zn    Zn3+2 0.317220 0.500010 0.499990 0.962292

loop_
_geom_bond_atom_site_label_1
_geom_bond_atom_site_label_2
_ccdc_geom_bond_type
O5    Zn1   S    
C28   H32   S    
C18   H13   S    
C21   H15   S    
C11   H36   S    
C5    C20   S    
N3    N4    D    
C11   H34   S    
C24   H21   S    
C15   H38   S    
C23   O5    A    
C14   H40   S    
C26   H27   S    
C13   H1    S    
C20   H17   S    
C14   H2    S    
C13   H12   S    
C13   H23   S    
C1    O3    A    
O4    Zn1   S    
C6    C22   S    
C18   C19   S    
C25   H29   S    
C17   H5    S    
C16   C17   S    
C31   C33   A    
C2    C16   S    
C9    C10   T    
C27   H35   S    
C19   H8    S    
C17   H4    S    
C21   H14   S    
C7    C30   A    
O1    Zn1   S    
C21   H16   S    
C19   H9    S    
C23   C30   S    
C11   C33   S    
C1    C9    S    
C29   O6    A    
C4    C6    A    
C5    C7    A    
O8    Zn1   S    
C22   H22   S    
C3    C34   A    
C25   C26   S    
C32   C34   A    
C2    C4    A    
N1    N2    T    
C4    N4    S    
C29   C31   S    
C12   O4    A    
C17   H3    S    
C18   C34   S    
N2    Zn1   S    
C29   O8    A    
C10   C12   S    
C16   H6    S    
C28   H30   S    
C2    C33   A    
C15   H39   S    
C1    O1    A    
C22   C24   S    
C3    N3    S    
C18   H11   S    
C19   H10   S    
C26   H25   S    
O7    Zn2   S    
C8    C31   A    
O6    Zn2   S    
C14   C32   S    
C3    C5    A    
C22   H24   S    
C6    C8    A    
C15   H37   S    
C7    C25   S    
C28   H31   S    
C24   H19   S    
C20   H18   S    
C30   C32   A    
C11   C13   S    
C26   H26   S    
C12   O2    A    
C25   H28   S    
O3    Zn2   S    
C27   H33   S    
N1    Zn2   S    
C20   C21   S    
O2    Zn2   S    
C23   O7    A    
C27   C28   S    
C8    C27   S    
C14   C15   S    
C24   H20   S    
C16   H7    S    
