data_mof_unit_34527.cif
_audit_creation_date              2012-12-10T17:26:22-0500
_audit_creation_method            fapswitch 2.2
_symmetry_space_group_name_H-M    P1
_symmetry_Int_Tables_number       1
_space_group_crystal_system       triclinic
_cell_length_a                    10.255101
_cell_length_b                    10.458488
_cell_length_c                    27.454684
_cell_angle_alpha                 90.38967
_cell_angle_beta                  80.840055
_cell_angle_gamma                 94.056915
_cell_volume                      2899.72903489

loop_
_atom_site_label
_atom_site_type_symbol
_atom_type_description
_atom_site_fract_x
_atom_site_fract_y
_atom_site_fract_z
_atom_type_partial_charge
C1    C     C_R   0.553548 0.734366 0.493897 0.907541
C2    C     C_R   0.598773 0.651046 0.122481 -0.032669
C3    C     C_R   0.496818 0.495757 0.647173 -0.099470
C4    C     C_R   0.506568 0.525697 0.353352 -0.076604
C5    C     C_R   0.601793 0.619263 0.020359 0.062441
C6    C     C_R   0.363598 0.542432 0.984772 0.062815
C7    C     C_R   0.360033 0.577689 0.034929 0.066048
C8    C     C_R   0.605560 0.584813 0.970184 0.064866
C9    C     C_R   0.479824 0.609293 0.052943 0.070944
C10   C     C_R   0.486123 0.548686 0.952352 0.070648
C11   C     C_R   0.715915 0.668197 0.038803 -0.296233
C12   C     C_R   0.446339 0.265698 0.500097 0.946188
C13   C     C_R   0.249405 0.491547 0.966933 -0.293619
C14   C     C_R   0.715426 0.686468 0.089107 -0.009943
C15   C     C_R   0.251703 0.458540 0.917591 -0.019705
C16   C     C_R   0.499248 0.498254 0.593921 0.949720
C17   C     C_R   0.501440 0.504301 0.406099 0.843213
C18   C     C_R   0.726455 0.576306 0.938123 -0.285629
C19   C     C_R   0.239857 0.586362 0.067509 -0.285992
C20   C     C_2   0.577345 0.869929 0.481475 -0.336763
C21   C     C_2   0.422059 0.129803 0.491018 -0.356703
C22   C     C_2   0.494320 0.929745 0.456908 -0.001346
C23   C     C_R   0.489167 0.519458 0.901679 -0.082987
C24   C     C_2   0.503726 0.069059 0.456264 0.004696
C25   C     C_2   0.923210 0.499683 0.508442 -0.056181
C26   C     C_2   0.068555 0.474850 0.502888 -0.067656
C27   C     C_R   0.608115 0.522392 0.817991 0.537945
C28   C     C_R   0.362712 0.602939 0.188113 0.538448
C29   C     C_R   0.373397 0.479360 0.832111 0.537443
C30   C     C_R   0.598851 0.630362 0.172917 0.543899
C31   C     C_R   0.538089 0.392478 0.721483 -0.167741
C32   C     C_R   0.551266 0.669523 0.282852 -0.134468
C33   C     C_R   0.539796 0.389155 0.670553 -0.053957
C34   C     C_R   0.478318 0.626673 0.104214 -0.084558
C35   C     C_R   0.566969 0.641861 0.331032 -0.078737
C36   C     C_R   0.450781 0.601600 0.675521 -0.068104
C37   C     C_R   0.438843 0.436798 0.325745 -0.066267
C38   C     C_R   0.448066 0.601039 0.726323 -0.116084
C39   C     C_R   0.431857 0.463484 0.276584 -0.103206
C40   C     C_R   0.491440 0.496891 0.749124 0.296800
C41   C     C_R   0.486367 0.580481 0.255280 0.267050
C42   C     C_1   0.409403 0.713549 0.653119 0.198837
C43   C     C_1   0.377437 0.316925 0.346943 0.169702
C44   C     C_1   0.104771 0.351119 0.483725 0.276827
C45   C     C_R   0.611342 0.527665 0.868996 -0.037495
C46   C     C_1   0.868972 0.570429 0.551444 0.292577
C47   C     C_1   0.133708 0.680199 0.526393 0.334348
C48   C     C_1   0.894287 0.412554 0.432324 0.354120
C49   C     C_2   0.863677 0.526101 0.860132 0.533145
C50   C     C_2   0.105591 0.624949 0.147575 0.552471
C51   C     C_2   0.646166 0.738791 0.355789 0.397436
C52   C     C_2   0.582774 0.270571 0.644471 0.421776
C53   C     C_2   0.836324 0.751393 0.103965 0.517870
C54   C     C_2   0.130263 0.388850 0.905189 0.539635
C55   C     C_2   0.600015 0.135852 0.416628 0.476511
C56   C     C_R   0.357283 0.614435 0.137311 -0.035135
C57   C     C_2   0.393876 0.862565 0.430254 0.446732
C58   C     C_R   0.731026 0.545883 0.888503 -0.014228
C59   C     C_R   0.236926 0.607126 0.117905 -0.026423
C60   C     C_R   0.369882 0.483699 0.883584 -0.040743
H1    H     H_    0.343561 0.076241 0.515482 0.187119
H2    H     H_    0.146121 0.582583 0.054184 0.121273
H3    H     H_    0.948746 0.587962 0.866583 0.032155
H4    H     H_    0.019009 0.567452 0.139802 0.043695
H5    H     H_    0.650973 0.838675 0.344734 0.125070
H6    H     H_    0.638815 0.205230 0.662064 0.079316
H7    H     H_    0.932203 0.740580 0.081611 0.002863
H8    H     H_    0.033826 0.413069 0.923922 0.002211
H9    H     H_    0.594753 0.236444 0.408794 0.065007
H10   H     H_    0.394960 0.761050 0.422759 0.076947
H11   H     H_    0.657400 0.924226 0.495689 0.180086
H12   H     H_    0.413722 0.682064 0.748370 0.147214
H13   H     H_    0.383607 0.393655 0.254735 0.163508
H14   H     H_    0.593606 0.759447 0.265775 0.170957
H15   H     H_    0.570643 0.312558 0.740247 0.146163
H16   H     H_    0.806050 0.698091 0.014420 0.135538
H17   H     H_    0.157899 0.468446 0.991583 0.133878
H18   H     H_    0.820059 0.585712 0.951516 0.122186
N1    N     N_R   0.490935 0.498296 0.801115 -0.363026
N2    N     N_1   0.936626 0.382459 0.392619 -0.153176
N3    N     N_R   0.482213 0.606674 0.204347 -0.359609
N4    N     N_2   0.842700 0.448890 0.480020 -0.170564
N5    N     N_2   0.157300 0.551110 0.519980 -0.168101
N6    N     N_1   0.376392 0.803084 0.635135 -0.166708
N7    N     N_1   0.328306 0.220883 0.363876 -0.119947
N8    N     N_1   0.130804 0.251370 0.468088 -0.151884
N9    N     N_1   0.828244 0.628323 0.585964 -0.190310
N10   N     N_1   0.114884 0.787629 0.531648 -0.189864
O1    O     O_R   0.431060 0.692470 0.504020 -0.637889
O2    O     O_2   0.250854 0.581250 0.220960 -0.497552
O3    O     O_2   0.714551 0.623926 0.189994 -0.505153
O4    O     O_2   0.260532 0.463232 0.812727 -0.491416
O5    O     O_2   0.880861 0.435319 0.832205 -0.471479
O6    O     O_2   0.091259 0.709803 0.178330 -0.451642
O7    O     O_2   0.712873 0.708584 0.386278 -0.514378
O8    O     O_2   0.552219 0.241100 0.604511 -0.569362
O9    O     O_2   0.829430 0.824145 0.139112 -0.485386
O10   O     O_2   0.136790 0.297575 0.877155 -0.483794
O11   O     O_2   0.685034 0.077418 0.391399 -0.551574
O12   O     O_R   0.568940 0.307530 0.495980 -0.600359
O13   O     O_2   0.309832 0.921885 0.415191 -0.528232
O14   O     O_R   0.651120 0.659650 0.491200 -0.560770
O15   O     O_R   0.348880 0.340350 0.508800 -0.598066
O16   O     O_R   0.389980 0.516390 0.577660 -0.603328
O17   O     O_R   0.610020 0.483610 0.422340 -0.580563
O18   O     O_R   0.610040 0.483570 0.564830 -0.591516
O19   O     O_R   0.389960 0.516430 0.435170 -0.635399
O20   O     O_2   0.719205 0.548735 0.785127 -0.504382
Zn1   Zn    Zn3+2 0.353060 0.521910 0.508560 0.981422
Zn2   Zn    Zn3+2 0.646940 0.478090 0.491440 1.024778

loop_
_geom_bond_atom_site_label_1
_geom_bond_atom_site_label_2
_ccdc_geom_bond_type
O17   Zn2   S    
O12   Zn2   S    
C26   N5    D    
C49   H3    S    
C50   H4    S    
C15   C60   A    
C36   C42   S    
C22   C57   S    
C28   C56   A    
C26   C44   S    
C39   C41   A    
C24   C55   S    
C34   C56   A    
C23   C45   A    
C50   C59   S    
N4    Zn2   S    
C5    C11   A    
C27   N1    A    
C11   H16   S    
C17   O19   A    
C32   H14   S    
O16   Zn1   S    
C11   C14   A    
C54   H8    S    
C3    C33   A    
C19   H2    S    
O1    Zn1   S    
C31   C40   A    
C51   H5    S    
C18   C58   A    
C32   C41   A    
N5    Zn1   S    
C20   H11   S    
C47   N5    S    
C57   H10   S    
C21   H1    S    
C16   O18   A    
C2    C34   A    
C4    C35   A    
O19   Zn1   S    
C44   N8    T    
C16   O16   A    
C13   H17   S    
C23   C60   A    
C38   H12   S    
C45   C58   A    
C43   N7    T    
C32   C35   A    
C42   N6    T    
C12   O15   A    
C50   O6    D    
C53   O9    D    
C25   C26   S    
C12   C21   S    
C8    C18   A    
C49   C58   S    
C33   C52   S    
C37   C43   S    
C15   C54   S    
C5    C9    A    
C17   O17   A    
C31   H15   S    
C29   N1    A    
C29   C60   A    
C18   H18   S    
C41   N3    S    
C31   C33   A    
C40   N1    S    
C55   H9    S    
C4    C17   S    
C3    C36   A    
C20   C22   D    
C7    C19   A    
C13   C15   A    
C35   C51   S    
C25   N4    D    
C22   C24   S    
O14   Zn2   S    
C52   H6    S    
C46   N9    T    
O18   Zn2   S    
C2    C14   A    
C7    C9    A    
C1    C20   S    
C1    O1    A    
C28   N3    A    
C30   O3    S    
C6    C10   A    
C5    C8    A    
C6    C7    A    
C10   C23   A    
C57   O13   D    
C56   C59   A    
C2    C30   A    
O15   Zn1   S    
C19   C59   A    
C47   N10   T    
C48   N2    T    
C30   N3    A    
C36   C38   A    
C37   C39   A    
C6    C13   A    
C38   C40   A    
C27   C45   A    
C9    C34   A    
C27   O20   S    
C1    O14   A    
C48   N4    S    
C52   O8    D    
C39   H13   S    
C53   H7    S    
C12   O12   A    
C14   C53   S    
C4    C37   A    
C8    C10   A    
C21   C24   D    
C55   O11   D    
C54   O10   D    
C28   O2    S    
C49   O5    D    
C25   C46   S    
C29   O4    S    
C3    C16   S    
C51   O7    D    
