data_mof_unit_34480.cif
_audit_creation_date              2012-12-10T19:05:50-0500
_audit_creation_method            fapswitch 2.2
_symmetry_space_group_name_H-M    P1
_symmetry_Int_Tables_number       1
_space_group_crystal_system       triclinic
_cell_length_a                    19.365978
_cell_length_b                    10.852121
_cell_length_c                    9.530023
_cell_angle_alpha                 90.237121
_cell_angle_beta                  89.910839
_cell_angle_gamma                 90.561805
_cell_volume                      2002.73235653

loop_
_atom_site_label
_atom_site_type_symbol
_atom_type_description
_atom_site_fract_x
_atom_site_fract_y
_atom_site_fract_z
_atom_type_partial_charge
C1    C     C_R   0.498890 0.262511 0.499951 0.813843
C2    C     C_R   0.291715 0.498367 0.500414 -0.174329
C3    C     C_R   0.930222 0.506877 0.508150 0.425497
C4    C     C_R   0.070412 0.508365 0.501280 0.459809
C5    C     C_R   0.815718 0.473681 0.632456 0.487245
C6    C     C_R   0.743446 0.464142 0.624015 -0.289630
C7    C     C_R   0.708395 0.496423 0.501388 -0.079586
C8    C     C_R   0.746285 0.530118 0.382456 -0.206578
C9    C     C_R   0.818009 0.532311 0.386098 -0.246085
C10   C     C_R   0.853752 0.504143 0.510085 -0.027061
C11   C     C_R   0.486804 0.064445 0.625255 -0.046573
C12   C     C_R   0.367537 0.499033 0.500262 0.836335
C13   C     C_R   0.492614 0.129866 0.499920 -0.070538
C14   C     C_R   0.488691 0.063907 0.372629 -0.215597
C15   C     C_R   0.488299 0.935197 0.372973 -0.187962
C16   C     C_R   0.491804 0.870654 0.500609 -0.115514
C17   C     C_R   0.486124 0.937929 0.625699 -0.094451
C18   C     C_3   0.519822 0.932922 0.769719 0.883994
C19   C     C_3   0.516278 0.076001 0.770753 -0.116697
C20   C     C_R   0.539682 0.583056 0.074234 0.286946
C21   C     C_R   0.457016 0.424491 0.074241 -0.099356
C22   C     C_R   0.456983 0.424502 0.925246 -0.099574
C23   C     C_R   0.498391 0.737699 0.500366 0.793199
C24   C     C_R   0.539697 0.583138 0.926425 0.335807
C25   C     C_3   0.616482 0.592207 0.921766 -0.509883
C26   C     C_3   0.616311 0.591989 0.080021 -0.536859
C27   C     C_R   0.632508 0.497532 0.499963 0.798891
C28   C     C_R   0.254017 0.443720 0.610609 0.455784
C29   C     C_R   0.181757 0.449723 0.609157 -0.344197
C30   C     C_R   0.146579 0.505203 0.497750 -0.079424
C31   C     C_R   0.184399 0.555721 0.384826 0.475800
C32   C     C_R   0.256809 0.553439 0.388696 -0.367194
Cu1   Cu    Cu3+1 0.500000 0.499980 0.640670 0.946786
Cu2   Cu    Cu3+1 0.500000 0.500020 0.359330 0.934194
H1    H     H_    0.488609 0.887024 0.273195 0.181361
H2    H     H_    0.475899 0.110380 0.843812 0.156199
H3    H     H_    0.423482 0.361418 0.130279 0.147789
H4    H     H_    0.423434 0.361365 0.868910 0.176159
H5    H     H_    0.640493 0.508477 0.877052 0.196714
H6    H     H_    0.635177 0.680542 0.877752 0.240901
H7    H     H_    0.639903 0.507279 0.122908 0.214362
H8    H     H_    0.152991 0.411121 0.696087 0.173611
H9    H     H_    0.634567 0.680325 0.127149 0.205225
H10   H     H_    0.285946 0.598378 0.306016 0.175302
H11   H     H_    0.714561 0.429717 0.712790 0.142940
H12   H     H_    0.720782 0.557112 0.287081 0.157803
H13   H     H_    0.845425 0.558112 0.291440 0.169759
H14   H     H_    0.489100 0.111070 0.272670 0.167462
N1    N     N_R   0.033412 0.520977 0.381611 -0.190793
N2    N     N_R   0.964785 0.520433 0.385021 -0.256902
N3    N     N_R   0.967334 0.494424 0.627773 -0.182321
N4    N     N_R   0.035972 0.495005 0.624479 -0.261591
N5    N     N_R   0.500440 0.500930 0.147930 -0.190682
N6    N     N_R   0.500440 0.500890 0.852020 -0.209093
O1    O     O_R   0.500000 0.319640 0.618810 -0.576978
O2    O     O_R   0.500010 0.319680 0.381230 -0.591435
O3    O     O_R   0.400140 0.499970 0.618830 -0.544781
O4    O     O_R   0.400150 0.500010 0.381250 -0.593674
O5    O     O_R   0.499990 0.680320 0.618770 -0.579121
O6    O     O_R   0.500000 0.680360 0.381190 -0.583033
O7    O     O_R   0.599850 0.499990 0.618750 -0.587904
O8    O     O_R   0.599860 0.500030 0.381170 -0.579681
O9    O     O_3   0.288528 0.394558 0.724719 -0.591152
C33   C     C_3   0.270283 0.269258 0.746504 0.057932
H15   H     H_    0.318309 0.214155 0.742394 0.159838
H16   H     H_    0.235448 0.228992 0.664689 0.092220
C34   C     C_3   0.236526 0.252997 0.890968 -0.343024
H17   H     H_    0.190672 0.313130 0.900136 0.209442
H18   H     H_    0.218700 0.155911 0.902172 0.179119
C35   C     C_3   0.286407 0.283266 0.010309 -0.818059
H19   H     H_    0.260191 0.268218 0.112599 0.229384
H20   H     H_    0.332217 0.222664 0.004713 0.223870
H21   H     H_    0.303333 0.381144 0.004819 0.266053
O10   O     O_3   0.479822 0.887934 0.885515 -0.632623
C36   C     C_3   0.416003 0.828899 0.853354 0.060691
H22   H     H_    0.408898 0.753754 0.931053 0.141548
H23   H     H_    0.414897 0.780639 0.751313 0.171795
C37   C     C_3   0.354895 0.917699 0.869848 -0.386855
H24   H     H_    0.318853 0.881152 0.950885 0.200672
H25   H     H_    0.372766 0.009660 0.906983 0.221856
C38   C     C_3   0.314592 0.932774 0.733241 -0.903782
H26   H     H_    0.345978 0.983407 0.654629 0.261111
H27   H     H_    0.266927 0.985786 0.753856 0.242397
H28   H     H_    0.299506 0.841498 0.689299 0.257137
O11   O     O_3   0.586641 0.876735 0.772222 -0.609421
C39   C     C_3   0.636086 0.918295 0.671917 -0.000818
H29   H     H_    0.674421 0.978083 0.726473 0.174734
H30   H     H_    0.614098 0.970432 0.583089 0.156628
C40   C     C_3   0.675912 0.809440 0.611653 -0.333049
H31   H     H_    0.701748 0.758813 0.697518 0.218599
H32   H     H_    0.639614 0.746037 0.557274 0.221311
C41   C     C_3   0.730805 0.853082 0.507437 -0.919603
H33   H     H_    0.706125 0.897733 0.415865 0.259370
H34   H     H_    0.761087 0.773453 0.469657 0.268494
H35   H     H_    0.766895 0.919528 0.558539 0.260371
C42   C     C_3   0.582907 0.152412 0.789291 -0.840903
H36   H     H_    0.615221 0.111967 0.873046 0.239861
H37   H     H_    0.612559 0.161993 0.690203 0.220012
H38   H     H_    0.569762 0.246705 0.825219 0.257490
O12   O     O_3   0.150553 0.621890 0.281929 -0.594414
C43   C     C_3   0.165855 0.576969 0.145683 0.070728
H39   H     H_    0.116962 0.541666 0.098869 0.178549
H40   H     H_    0.203078 0.499083 0.142401 0.124396
C44   C     C_3   0.193205 0.683230 0.055874 -0.360151
H41   H     H_    0.154910 0.758869 0.055569 0.239610
H42   H     H_    0.242178 0.719452 0.101410 0.207714
C45   C     C_3   0.206299 0.641877 0.905258 -0.890739
H43   H     H_    0.247116 0.570914 0.902654 0.287520
H44   H     H_    0.223661 0.721754 0.841766 0.261339
H45   H     H_    0.158129 0.603837 0.858308 0.266831
O13   O     O_3   0.849945 0.443998 0.755662 -0.600416
C46   C     C_3   0.828773 0.519934 0.869198 0.061037
H46   H     H_    0.852787 0.482954 0.965881 0.179517
H47   H     H_    0.772206 0.515446 0.887819 0.124797
C47   C     C_3   0.853174 0.654244 0.851725 -0.366555
H48   H     H_    0.910354 0.657205 0.842019 0.245469
H49   H     H_    0.830618 0.694275 0.755159 0.210544
C48   C     C_3   0.831297 0.732990 0.976859 -0.900497
H50   H     H_    0.774137 0.732212 0.987437 0.255665
H51   H     H_    0.849082 0.829517 0.961054 0.264487
H52   H     H_    0.854629 0.697644 0.074977 0.257287

loop_
_geom_bond_atom_site_label_1
_geom_bond_atom_site_label_2
_ccdc_geom_bond_type
Cu1   O1    S    
Cu2   O2    S    
C43   H39   S    
C6    H11   S    
C29   H8    S    
O13   C46   S    
C2    C12   S    
C44   H42   S    
C38   H26   S    
C7    C8    A    
C22   N6    A    
O11   C39   S    
C23   O5    A    
C11   C19   S    
C4    N4    A    
C41   H33   S    
C28   C29   A    
C1    O2    A    
C19   H2    S    
C25   H6    S    
C5    C6    A    
C39   H30   S    
C24   N6    A    
C15   C16   A    
C22   H4    S    
C42   H38   S    
Cu2   O8    S    
C7    C27   S    
C2    C32   A    
C18   C19   S    
C48   H50   S    
C46   H46   S    
C27   O7    A    
C20   C24   A    
C8    C9    A    
C47   H49   S    
C42   H37   S    
C45   H43   S    
C35   H19   S    
C40   H32   S    
C9    C10   A    
C12   O4    A    
C18   O10   S    
C21   C22   A    
Cu2   O6    S    
C45   H44   S    
C15   H1    S    
C44   H41   S    
C38   H27   S    
C3    N2    A    
C26   H9    S    
Cu1   Cu2   S    
C48   H51   S    
C23   O6    A    
C18   O11   S    
O10   C36   S    
N3    N4    A    
C33   C34   S    
C24   C25   S    
C3    N3    A    
C39   H29   S    
C16   C17   A    
C14   H14   S    
C5    O13   S    
C25   C26   S    
C41   H35   S    
C34   H17   S    
C34   H18   S    
C48   H52   S    
C33   H16   S    
C36   H22   S    
C29   C30   A    
C27   O8    A    
C31   C32   A    
C47   C48   S    
C42   H36   S    
C35   H21   S    
C41   H34   S    
C17   C18   S    
C32   H10   S    
C31   O12   S    
C40   C41   S    
C36   H23   S    
C12   O3    A    
Cu1   O7    S    
C9    H13   S    
C43   C44   S    
C45   H45   S    
C1    C13   S    
C38   H28   S    
C43   H40   S    
Cu1   N6    S    
C11   C17   A    
Cu1   O3    S    
C37   H24   S    
C20   N5    A    
C39   C40   S    
C35   H20   S    
C6    C7    A    
C16   C23   S    
C4    N1    A    
C34   C35   S    
C33   H15   S    
C1    O1    A    
C5    C10   A    
C3    C10   S    
C25   H5    S    
C21   N5    A    
C11   C13   A    
C37   C38   S    
C30   C31   A    
C20   C26   S    
O12   C43   S    
C37   H25   S    
C46   C47   S    
C36   C37   S    
C8    H12   S    
O9    C33   S    
C46   H47   S    
C28   O9    S    
C21   H3    S    
Cu2   N5    S    
Cu1   O5    S    
N1    N2    A    
Cu2   O4    S    
C14   C15   A    
C2    C28   A    
C40   H31   S    
C13   C14   A    
C44   C45   S    
C4    C30   S    
C19   C42   S    
C47   H48   S    
C26   H7    S    
