data_mof_unit_12613.cif
_audit_creation_date              2012-12-10T19:00:13-0500
_audit_creation_method            fapswitch 2.2
_symmetry_space_group_name_H-M    P1
_symmetry_Int_Tables_number       1
_space_group_crystal_system       triclinic
_cell_length_a                    9.550061
_cell_length_b                    10.84534
_cell_length_c                    13.509059
_cell_angle_alpha                 90.256341
_cell_angle_beta                  72.599033
_cell_angle_gamma                 90.837874
_cell_volume                      1335.00669674

loop_
_atom_site_label
_atom_site_type_symbol
_atom_type_description
_atom_site_fract_x
_atom_site_fract_y
_atom_site_fract_z
_atom_type_partial_charge
C1    C     C_R   0.500271 0.737545 0.501725 0.811216
C2    C     C_R   0.433955 0.488487 0.979045 0.086768
C3    C     C_R   0.470961 0.458629 0.872002 0.044317
C4    C     C_R   0.542392 0.475319 0.031320 0.048510
C5    C     C_R   0.682410 0.426909 0.977440 0.112876
C6    C     C_R   0.708876 0.383187 0.875958 0.098366
C7    C     C_R   0.602805 0.396023 0.825640 -0.236473
C8    C     C_R   0.516312 0.509030 0.135777 -0.238152
C9    C     C_R   0.761624 0.452441 0.130990 -0.209144
C10   C     C_R   0.373743 0.490467 0.814620 -0.081553
C11   C     C_R   0.370306 0.933231 0.515376 0.099637
C12   C     C_R   0.421429 0.494006 0.700007 0.791371
C13   C     C_R   0.497595 0.870383 0.511795 -0.110531
C14   C     C_R   0.618738 0.937566 0.522935 -0.192859
C15   C     C_R   0.616744 0.066234 0.523165 -0.181710
C16   C     C_R   0.493276 0.128733 0.513066 -0.147545
C17   C     C_R   0.365834 0.060054 0.518507 0.153391
C18   C     C_3   0.264864 0.061757 0.452249 -0.027995
C19   C     C_3   0.275196 0.922258 0.446326 -0.479236
C20   C     C_R   0.964072 0.479406 0.410509 0.245357
C21   C     C_R   0.890260 0.533621 0.585751 -0.045781
C22   C     C_R   0.038769 0.533102 0.585870 -0.019069
C23   C     C_R   0.498225 0.262134 0.502239 0.807552
C24   C     C_R   0.111548 0.481834 0.410061 0.244411
C25   C     C_3   0.148068 0.372709 0.340598 -0.470460
C26   C     C_3   0.987758 0.366257 0.344550 -0.471735
C27   C     C_R   0.578270 0.500941 0.300165 0.792113
C28   C     C_R   0.791922 0.420412 0.027343 -0.169272
C29   C     C_R   0.621829 0.491131 0.186878 -0.040959
C30   C     C_R   0.232381 0.531452 0.867477 -0.156750
C31   C     C_R   0.190240 0.548291 0.974057 -0.153303
C32   C     C_R   0.289898 0.530008 0.029250 -0.171363
Cu1   Cu    Cu3+1 0.359330 0.500020 0.500010 0.967767
Cu2   Cu    Cu3+1 0.640670 0.499980 0.499990 0.952880
H1    H     H_    0.846119 0.442549 0.167972 0.143597
H2    H     H_    0.714306 0.116168 0.526234 0.200884
H3    H     H_    0.314054 0.107968 0.376236 0.129500
H4    H     H_    0.170879 0.871915 0.484372 0.225439
H5    H     H_    0.335729 0.888014 0.367637 0.176985
H6    H     H_    0.806828 0.559971 0.655796 0.155333
H7    H     H_    0.064677 0.558214 0.655936 0.144181
H8    H     H_    0.221942 0.397067 0.262513 0.183534
H9    H     H_    0.185151 0.293793 0.377052 0.237519
H10   H     H_    0.973215 0.382319 0.267623 0.180264
H11   H     H_    0.928004 0.284184 0.386497 0.235108
H12   H     H_    0.900890 0.388035 0.988069 0.174776
H13   H     H_    0.413874 0.547995 0.180268 0.139714
H14   H     H_    0.154959 0.553913 0.826052 0.157354
H15   H     H_    0.249260 0.547896 0.111218 0.117458
H16   H     H_    0.080799 0.579999 0.013876 0.145662
H17   H     H_    0.624639 0.353362 0.750308 0.200329
H18   H     H_    0.717181 0.891567 0.526180 0.181889
N1    N     N_R   0.852320 0.499070 0.499340 -0.185692
N2    N     N_R   0.148230 0.499110 0.499340 -0.178615
O1    O     O_R   0.381190 0.680360 0.500000 -0.581101
O2    O     O_R   0.618780 0.680320 0.499990 -0.584256
O3    O     O_R   0.323230 0.500000 0.650990 -0.575863
O4    O     O_R   0.560820 0.499960 0.650980 -0.597246
O5    O     O_R   0.381220 0.319680 0.500010 -0.555167
O6    O     O_R   0.618810 0.319640 0.500000 -0.580807
O7    O     O_R   0.439180 0.500040 0.349020 -0.592165
O8    O     O_R   0.676770 0.500000 0.349010 -0.584390
I1    I     I_    0.048021 0.115748 0.538975 -0.390872
I2    I     I_    0.905270 0.292822 0.793567 -0.375995

loop_
_geom_bond_atom_site_label_1
_geom_bond_atom_site_label_2
_ccdc_geom_bond_type
C25   H8    S    
Cu1   O1    S    
C2    C4    A    
Cu2   O2    S    
C6    C7    A    
C27   O8    A    
C27   C29   S    
C5    C28   A    
C10   C30   A    
C3    C7    A    
C31   C32   A    
Cu2   O6    S    
C17   C18   S    
C9    C29   A    
C30   C31   A    
C4    C8    A    
C12   O4    A    
C25   H9    S    
C2    C3    A    
C1    O1    A    
C8    H13   S    
C7    H17   S    
Cu1   O5    S    
C3    C10   A    
C13   C14   A    
C23   O5    A    
C11   C13   A    
C11   C19   S    
C5    C6    A    
C21   H6    S    
C19   H5    S    
C12   O3    A    
C21   N1    A    
C2    C32   A    
C30   H14   S    
C19   H4    S    
C18   H3    S    
Cu1   Cu2   S    
C16   C23   S    
C10   C12   S    
C22   N2    A    
C23   O6    A    
C18   I1    S    
Cu2   O4    S    
C14   H18   S    
C32   H15   S    
C22   H7    S    
C1    C13   S    
C8    C29   A    
C31   H16   S    
C26   H10   S    
C15   C16   A    
C16   C17   A    
C15   H2    S    
Cu2   O8    S    
C24   C25   S    
Cu2   N1    S    
Cu1   O7    S    
C18   C19   S    
C6    I2    S    
Cu1   N2    S    
C9    H1    S    
C28   H12   S    
C14   C15   A    
C4    C5    A    
Cu1   O3    S    
C27   O7    A    
C26   H11   S    
C25   C26   S    
C21   C22   A    
C24   N2    A    
C1    O2    A    
C11   C17   A    
C20   C24   A    
C9    C28   A    
C20   N1    A    
C20   C26   S    
