data_mof_unit_54066.cif
_audit_creation_date              2012-12-10T19:46:41-0500
_audit_creation_method            fapswitch 2.2
_symmetry_space_group_name_H-M    P1
_symmetry_Int_Tables_number       1
_space_group_crystal_system       triclinic
_cell_length_a                    12.882439
_cell_length_b                    14.93846
_cell_length_c                    14.191967
_cell_angle_alpha                 89.333042
_cell_angle_beta                  96.703383
_cell_angle_gamma                 90.191606
_cell_volume                      2712.29601966

loop_
_atom_site_label
_atom_site_type_symbol
_atom_type_description
_atom_site_fract_x
_atom_site_fract_y
_atom_site_fract_z
_atom_type_partial_charge
C1    C     C_R   0.500752 0.327714 0.500634 0.866767
C2    C     C_R   0.520027 0.951395 0.505088 0.051402
C3    C     C_R   0.402198 0.476767 0.097518 0.101315
C4    C     C_R   0.515079 0.583795 0.894307 0.102201
C5    C     C_R   0.410619 0.474648 0.198065 -0.162322
C6    C     C_R   0.520644 0.577962 0.795380 -0.167457
C7    C     C_R   0.584508 0.528281 0.209859 0.619486
C8    C     C_R   0.472792 0.425093 0.795484 0.609487
C9    C     C_R   0.582257 0.525426 0.110382 -0.431217
C10   C     C_R   0.474292 0.425823 0.894948 -0.426227
C11   C     C_R   0.490682 0.503090 0.052223 0.098512
C12   C     C_R   0.499972 0.672083 0.499592 0.865570
C13   C     C_R   0.492003 0.505267 0.945904 0.097082
C14   C     C_R   0.298269 0.500033 0.481681 0.905540
C15   C     C_R   0.701818 0.499754 0.518280 0.906984
C16   C     C_R   0.813749 0.501709 0.529003 -0.160766
C17   C     C_R   0.186454 0.499878 0.470369 -0.118337
C18   C     C_R   0.021857 0.474018 0.374082 0.493457
C19   C     C_R   0.977489 0.534408 0.622082 0.484959
C20   C     C_R   0.130835 0.476746 0.383642 -0.330693
C21   C     C_R   0.869666 0.525998 0.615237 -0.303659
C22   C     C_R   0.135781 0.520695 0.548431 -0.264215
C23   C     C_R   0.506085 0.231748 0.502790 -0.072991
C24   C     C_R   0.864279 0.482885 0.450061 -0.208747
C25   C     C_R   0.028560 0.515448 0.542257 0.000709
C26   C     C_R   0.971401 0.490385 0.455017 0.006584
C27   C     C_R   0.562681 0.095477 0.586577 0.173873
C28   C     C_R   0.582957 0.903879 0.447870 0.192594
C29   C     C_R   0.554822 0.188248 0.583842 -0.189400
C30   C     C_R   0.573512 0.811255 0.445421 -0.231970
C31   C     C_3   0.691340 0.647127 0.250160 0.088943
C32   C     C_3   0.783034 0.678287 0.319442 -0.840834
C33   C     C_3   0.339177 0.330802 0.745616 0.104229
C34   C     C_R   0.504695 0.767683 0.499633 -0.054435
C35   C     C_3   0.307005 0.254789 0.677864 -0.793981
C36   C     C_3   0.994862 0.495394 0.210940 0.096958
C37   C     C_3   0.906513 0.493118 0.130021 -0.809018
C38   C     C_3   0.033165 0.650717 0.716441 0.078502
C39   C     C_3   0.103986 0.676827 0.805223 -0.841836
C40   C     C_3   0.619271 0.050720 0.674189 -0.438043
C41   C     C_3   0.556503 0.057412 0.758718 -0.859115
C42   C     C_3   0.662564 0.948641 0.392128 -0.432922
C43   C     C_3   0.629973 0.943013 0.285395 -0.865047
C44   C     C_3   0.298399 0.450921 0.042718 -0.408082
C45   C     C_R   0.464400 0.183606 0.423586 -0.210459
C46   C     C_3   0.243398 0.530819 0.991132 -0.867236
C47   C     C_3   0.532613 0.674509 0.940620 -0.407133
C48   C     C_3   0.432529 0.711819 0.972802 -0.868909
C49   C     C_R   0.444148 0.815118 0.557085 -0.218364
C50   C     C_R   0.470447 0.091530 0.425655 -0.187309
C51   C     C_R   0.450762 0.907207 0.558720 -0.188306
C52   C     C_R   0.519799 0.047672 0.506075 0.051415
H1    H     H_    0.819601 0.462900 0.384204 0.252384
H2    H     H_    0.390960 0.780968 0.599288 0.148058
H3    H     H_    0.435978 0.054125 0.364852 0.149556
H4    H     H_    0.401461 0.944316 0.601209 0.148688
H5    H     H_    0.344368 0.453774 0.233226 0.151461
H6    H     H_    0.539545 0.636993 0.756043 0.163898
H7    H     H_    0.621063 0.686806 0.262137 0.138152
H8    H     H_    0.711023 0.660774 0.177086 0.118967
H9    H     H_    0.796015 0.751135 0.309428 0.203146
H10   H     H_    0.766708 0.665694 0.393548 0.253573
H11   H     H_    0.854987 0.641705 0.306987 0.260722
H12   H     H_    0.180375 0.539848 0.614709 0.204820
H13   H     H_    0.291990 0.390952 0.720989 0.155565
H14   H     H_    0.320690 0.310416 0.817489 0.123055
H15   H     H_    0.354755 0.194329 0.698277 0.254090
H16   H     H_    0.223264 0.238312 0.680440 0.202326
H17   H     H_    0.317983 0.275034 0.604174 0.252789
H18   H     H_    0.064064 0.462669 0.186297 0.143166
H19   H     H_    0.013155 0.567003 0.227356 0.125765
H20   H     H_    0.836493 0.526490 0.151766 0.268905
H21   H     H_    0.930689 0.528757 0.066994 0.199410
H22   H     H_    0.886577 0.422771 0.110783 0.262954
H23   H     H_    0.652523 0.541091 0.078458 0.154321
H24   H     H_    0.952912 0.675607 0.722853 0.140320
H25   H     H_    0.063477 0.683964 0.654346 0.132601
H26   H     H_    0.184798 0.652953 0.800624 0.252493
H27   H     H_    0.105359 0.750794 0.812221 0.205970
H28   H     H_    0.074585 0.646719 0.868954 0.259331
H29   H     H_    0.546221 0.128487 0.777723 0.270469
H30   H     H_    0.598706 0.022117 0.820956 0.248541
H31   H     H_    0.478471 0.025903 0.742022 0.252325
H32   H     H_    0.635395 0.979080 0.662247 0.213771
H33   H     H_    0.696500 0.083554 0.692062 0.203869
H34   H     H_    0.461062 0.363863 0.932083 0.159388
H35   H     H_    0.552847 0.975395 0.266259 0.258242
H36   H     H_    0.688695 0.978056 0.246860 0.251756
H37   H     H_    0.625284 0.872163 0.262401 0.248851
H38   H     H_    0.674622 0.020052 0.411199 0.217780
H39   H     H_    0.739437 0.915166 0.409720 0.199002
H40   H     H_    0.234726 0.585819 0.041615 0.253149
H41   H     H_    0.287357 0.555376 0.933340 0.272837
H42   H     H_    0.164373 0.510106 0.959001 0.260161
H43   H     H_    0.308809 0.397258 0.991540 0.201127
H44   H     H_    0.244936 0.422779 0.091669 0.190544
H45   H     H_    0.829997 0.540189 0.676631 0.177844
H46   H     H_    0.368745 0.712653 0.912921 0.257654
H47   H     H_    0.408006 0.671491 0.032438 0.269514
H48   H     H_    0.446584 0.781449 0.997797 0.244961
H49   H     H_    0.594755 0.671114 0.001388 0.196138
H50   H     H_    0.560589 0.723720 0.889830 0.197357
H51   H     H_    0.172312 0.458541 0.324668 0.149595
H52   H     H_    0.588566 0.226641 0.644253 0.184265
H53   H     H_    0.622032 0.772889 0.403631 0.150892
H54   H     H_    0.426010 0.217074 0.360916 0.158102
N1    N     N_R   0.500000 0.499980 0.252470 -0.134370
N2    N     N_R   0.500000 0.500020 0.747530 -0.135665
O1    O     O_R   0.500010 0.369070 0.579480 -0.559846
O2    O     O_3   0.447414 0.347248 0.746644 -0.600848
O3    O     O_3   0.963585 0.448142 0.289927 -0.615663
O4    O     O_3   0.033097 0.556635 0.707991 -0.619320
O5    O     O_R   0.499990 0.630930 0.420520 -0.614949
O6    O     O_R   0.500010 0.369060 0.420520 -0.623968
O7    O     O_R   0.499990 0.630940 0.579480 -0.637169
O8    O     O_R   0.346360 0.499990 0.566340 -0.627104
O9    O     O_R   0.653640 0.500010 0.433660 -0.564477
O10   O     O_R   0.346360 0.499980 0.407390 -0.638061
O11   O     O_R   0.653640 0.500020 0.592610 -0.626299
O12   O     O_3   0.674562 0.554763 0.264867 -0.592646
Zn1   Zn    Zn3+2 0.500000 0.500010 0.606140 0.966829
Zn2   Zn    Zn3+2 0.500000 0.499990 0.393860 0.971401

loop_
_geom_bond_atom_site_label_1
_geom_bond_atom_site_label_2
_ccdc_geom_bond_type
C40   H33   S    
C37   H22   S    
C16   C21   A    
C23   C45   A    
C27   C29   A    
C40   H32   S    
C18   C26   A    
N2    Zn1   S    
C33   H13   S    
C20   H51   S    
C38   H24   S    
C19   O4    S    
C27   C52   A    
C43   H37   S    
C47   H49   S    
C43   H36   S    
C23   C29   A    
C36   C37   S    
C19   C21   A    
C24   C26   A    
C32   H9    S    
C51   H4    S    
C38   C39   S    
C46   H40   S    
C49   H2    S    
C41   H31   S    
C17   C20   A    
C35   H16   S    
C42   H39   S    
O10   Zn2   S    
C31   H7    S    
C4    C13   A    
C6    H6    S    
C1    O1    A    
O5    Zn2   S    
C31   C32   S    
C44   C46   S    
C49   C51   A    
C22   C25   A    
C50   C52   A    
C36   H19   S    
C12   O7    A    
C16   C24   A    
C47   H50   S    
C14   C17   S    
C8    N2    A    
C36   H18   S    
C33   H14   S    
O11   Zn1   S    
C48   H48   S    
C3    C44   S    
O8    Zn1   S    
C30   C34   A    
C39   H26   S    
C18   O3    S    
C4    C6    A    
C14   O10   A    
C25   C26   A    
C15   O9    A    
C29   H52   S    
C42   H38   S    
C39   H27   S    
C31   H8    S    
O9    Zn2   S    
C44   H44   S    
C8    O2    S    
C21   H45   S    
C47   C48   S    
C46   H42   S    
C35   H15   S    
C27   C40   S    
C41   H29   S    
C36   O3    S    
C9    C11   A    
C2    C52   S    
C40   C41   S    
C1    C23   S    
C30   H53   S    
C7    N1    A    
C1    O6    A    
C12   C34   S    
C45   H54   S    
C12   O5    A    
C5    N1    A    
C7    C9    A    
C48   H47   S    
C37   H21   S    
C10   H34   S    
C34   C49   A    
C7    O12   S    
C50   H3    S    
C32   H11   S    
C3    C5    A    
C10   C13   A    
C38   H25   S    
C48   H46   S    
C17   C22   A    
C5    H5    S    
C43   H35   S    
C39   H28   S    
C28   C30   A    
C24   H1    S    
C32   H10   S    
C44   H43   S    
C11   C13   S    
O1    Zn1   S    
C46   H41   S    
C45   C50   A    
C14   O8    A    
C41   H30   S    
C28   C42   S    
C33   C35   S    
C15   O11   A    
C18   C20   A    
C19   C25   A    
C31   O12   S    
C3    C11   A    
C2    C51   A    
C22   H12   S    
O6    Zn2   S    
C35   H17   S    
C8    C10   A    
C42   C43   S    
C37   H20   S    
O7    Zn1   S    
C6    N2    A    
C2    C28   A    
C33   O2    S    
C9    H23   S    
N1    Zn2   S    
C38   O4    S    
C15   C16   S    
C4    C47   S    
