data_mof_unit_59073.cif
_audit_creation_date              2012-10-26T19:22:52-0400
_audit_creation_method            fapswitch 2.2
_symmetry_space_group_name_H-M    P1
_symmetry_Int_Tables_number       1
_space_group_crystal_system       triclinic
_cell_length_a                    17.275007
_cell_length_b                    13.038794
_cell_length_c                    11.771107
_cell_angle_alpha                 101.387458
_cell_angle_beta                  87.94027
_cell_angle_gamma                 92.753455
_cell_volume                      2595.2433484

loop_
_atom_site_label
_atom_site_type_symbol
_atom_type_description
_atom_site_fract_x
_atom_site_fract_y
_atom_site_fract_z
_atom_type_partial_charge
C1    C     C_R   0.498550 0.298453 0.476520 0.544957
C2    C     C_R   0.492736 0.858589 0.440925 -0.168435
C3    C     C_R   0.507851 0.034053 0.552810 -0.016700
C4    C     C_R   0.494768 0.965957 0.446756 -0.018151
C5    C     C_R   0.411377 0.427762 0.038687 -0.147023
C6    C     C_R   0.588691 0.571964 0.961167 -0.146004
C7    C     C_R   0.421471 0.432265 0.157235 0.076562
C8    C     C_R   0.578772 0.567225 0.842563 0.066807
C9    C     C_R   0.541207 0.527528 0.147454 0.252532
C10   C     C_R   0.458632 0.472609 0.852462 0.249516
C11   C     C_R   0.532655 0.525393 0.027526 0.031153
C12   C     C_R   0.502822 0.701527 0.523182 0.557437
C13   C     C_R   0.467179 0.474767 0.972401 0.028489
C14   C     C_R   0.350842 0.498380 0.516483 0.552375
C15   C     C_R   0.648961 0.496679 0.483108 0.541497
C16   C     C_R   0.266360 0.493101 0.527967 0.044357
C17   C     C_R   0.733048 0.491268 0.471383 0.034577
C18   C     C_R   0.221667 0.430224 0.440522 0.090638
C19   C     C_R   0.773917 0.431516 0.535679 0.092673
C20   C     C_R   0.141039 0.433530 0.448965 -0.082089
C21   C     C_R   0.854412 0.434156 0.528718 -0.047997
C22   C     C_R   0.104820 0.497174 0.543900 0.020506
C23   C     C_R   0.505634 0.816758 0.539330 -0.013440
C24   C     C_R   0.894882 0.495532 0.459184 0.009076
C25   C     C_R   0.149173 0.553951 0.633986 -0.116765
C26   C     C_R   0.854366 0.550312 0.391271 -0.112164
C27   C     C_R   0.229728 0.552486 0.625765 -0.154759
C28   C     C_R   0.773741 0.548823 0.397964 -0.140877
C29   C     C_2   0.020316 0.502265 0.550456 -0.135930
C30   C     C_2   0.979659 0.500822 0.455229 -0.138126
C31   C     C_R   0.497747 0.183217 0.459767 -0.018111
C32   C     C_R   0.484191 0.005601 0.347123 -0.088555
C33   C     C_R   0.520547 0.994284 0.651784 -0.087479
C34   C     C_R   0.486076 0.113419 0.350980 0.260227
C35   C     C_R   0.521149 0.886400 0.646859 0.261914
C36   C     C_R   0.508979 0.141445 0.558814 -0.170679
Cu1   Cu    Cu3+1 0.505800 0.507690 0.615350 0.997654
Cu2   Cu    Cu3+1 0.494200 0.492310 0.384650 1.020897
H1    H     H_    0.623676 0.600826 0.793457 0.178691
H2    H     H_    0.885197 0.596678 0.335894 0.122502
H3    H     H_    0.885355 0.387656 0.577536 0.137948
H4    H     H_    0.106440 0.385174 0.382235 0.110079
H5    H     H_    0.481415 0.807496 0.358150 0.146475
H6    H     H_    0.518984 0.192586 0.641983 0.145792
H7    H     H_    0.474490 0.951549 0.265919 0.176912
H8    H     H_    0.531538 0.048187 0.732688 0.175211
H9    H     H_    0.217243 0.324685 0.285750 0.228942
H10   H     H_    0.282585 0.302298 0.379046 0.255681
H11   H     H_    0.708913 0.412455 0.677846 0.253152
H12   H     H_    0.377038 0.397745 0.206059 0.199302
H13   H     H_    0.693259 0.317929 0.557443 0.245418
H14   H     H_    0.582086 0.920373 0.947739 0.386727
H15   H     H_    0.452808 0.077974 0.039279 0.387768
H16   H     H_    0.402648 0.369438 0.723927 0.274137
H17   H     H_    0.351077 0.477319 0.790114 0.251844
H18   H     H_    0.597896 0.629426 0.276005 0.270877
H19   H     H_    0.648373 0.520789 0.208587 0.254327
H20   H     H_    0.359432 0.388073 0.000037 0.147715
H21   H     H_    0.640769 0.611287 0.999764 0.146631
H22   H     H_    0.743363 0.595447 0.348822 0.120884
H23   H     H_    0.263474 0.599927 0.694200 0.135102
H24   H     H_    0.009198 0.505735 0.373242 0.129876
H25   H     H_    0.991184 0.509150 0.634859 0.127518
H26   H     H_    0.121534 0.601695 0.708846 0.123633
N1    N     N_R   0.514530 0.519260 0.788680 -0.212375
N2    N     N_R   0.485470 0.480740 0.211320 -0.212622
N3    N     N_3   0.258227 0.361438 0.345347 -0.606584
N4    N     N_3   0.735495 0.365572 0.606228 -0.623871
N5    N     N_3   0.389829 0.421222 0.800756 -0.640208
N6    N     N_3   0.610316 0.577955 0.198764 -0.646050
O1    O     O_R   0.504120 0.354440 0.581590 -0.546245
O2    O     O_2   0.617158 0.780820 0.749212 -0.306783
O3    O     O_3   0.568802 0.950342 0.880218 -0.520726
O4    O     O_2   0.398175 0.212202 0.228416 -0.318863
O5    O     O_2   0.538901 0.221418 0.189224 -0.257219
O6    O     O_3   0.462170 0.048468 0.108695 -0.518948
O7    O     O_R   0.495880 0.645560 0.418410 -0.541610
O8    O     O_R   0.494320 0.341440 0.386760 -0.409035
O9    O     O_R   0.505680 0.658560 0.613240 -0.407878
O10   O     O_R   0.391870 0.507230 0.608700 -0.532201
O11   O     O_R   0.608130 0.492770 0.391300 -0.519512
O12   O     O_R   0.382070 0.494240 0.413880 -0.481411
O13   O     O_R   0.617930 0.505760 0.586120 -0.519560
O14   O     O_2   0.480944 0.783395 0.818196 -0.265411
S1    S     S_3+6 0.547068 0.846172 0.775370 0.012197
S2    S     S_3+6 0.471330 0.152988 0.217691 0.011212

loop_
_geom_bond_atom_site_label_1
_geom_bond_atom_site_label_2
_ccdc_geom_bond_type
C29   H25   S    
C33   H8    S    
H11   N4    S    
C11   C13   A    
C32   H7    S    
O2    S1    D    
C15   O11   A    
Cu1   O9    S    
C12   C23   S    
Cu1   Cu2   S    
C5    H20   S    
C22   C29   S    
C24   C26   A    
C3    C33   A    
C12   O9    A    
C1    C31   S    
C34   S2    S    
C9    N2    A    
C27   H23   S    
C17   C19   A    
Cu2   N2    S    
C22   C25   A    
Cu1   N1    S    
C8    H1    S    
C14   O10   A    
H19   N6    S    
C5    C13   A    
C16   C27   A    
C8    N1    A    
Cu2   O12   S    
C1    O8    A    
H9    N3    S    
C28   H22   S    
Cu1   O10   S    
C9    N6    S    
H14   O3    S    
C6    C11   A    
C5    C7    A    
C6    C8    A    
Cu2   O8    S    
C18   N3    S    
O4    S2    D    
C25   H26   S    
C32   C34   A    
C2    C4    A    
C29   C30   D    
O5    S2    D    
C2    H5    S    
C12   O7    A    
C31   C34   A    
C19   N4    S    
H17   N5    S    
O14   S1    D    
C9    C11   A    
O3    S1    S    
C4    C32   A    
C21   H3    S    
C20   C22   A    
H18   N6    S    
C30   H24   S    
Cu2   O11   S    
C14   C16   S    
C36   H6    S    
H15   O6    S    
C14   O12   A    
C3    C4    A    
O6    S2    S    
C10   N1    A    
C15   C17   S    
C19   C21   A    
C17   C28   A    
C26   C28   A    
C6    H21   S    
C7    H12   S    
C10   C13   A    
C20   H4    S    
Cu2   O7    S    
C25   C27   A    
C23   C35   A    
Cu1   O1    S    
C7    N2    A    
C35   S1    S    
C26   H2    S    
H16   N5    S    
C3    C36   A    
C1    O1    A    
C15   O13   A    
C33   C35   A    
C18   C20   A    
H13   N4    S    
H10   N3    S    
C24   C30   S    
C10   N5    S    
C16   C18   A    
C21   C24   A    
C2    C23   A    
C31   C36   A    
Cu1   O13   S    
