data_mof_unit_32838.cif
_audit_creation_date              2012-12-10T17:58:59-0500
_audit_creation_method            fapswitch 2.2
_symmetry_space_group_name_H-M    P1
_symmetry_Int_Tables_number       1
_space_group_crystal_system       triclinic
_cell_length_a                    9.573706
_cell_length_b                    10.833211
_cell_length_c                    13.954982
_cell_angle_alpha                 90.259829
_cell_angle_beta                  86.981265
_cell_angle_gamma                 89.707404
_cell_volume                      1445.28275842

loop_
_atom_site_label
_atom_site_type_symbol
_atom_type_description
_atom_site_fract_x
_atom_site_fract_y
_atom_site_fract_z
_atom_type_partial_charge
C1    C     C_R   0.499791 0.737361 0.499136 0.839296
C2    C     C_R   0.501033 0.262009 0.499611 0.833093
C3    C     C_R   0.504805 0.127524 0.497086 -0.201271
C4    C     C_R   0.499956 0.870724 0.497469 -0.189003
C5    C     C_R   0.479993 0.499599 0.682367 0.830819
C6    C     C_R   0.519900 0.499438 0.317763 0.812340
C7    C     C_R   0.920200 0.564854 0.567609 -0.006894
C8    C     C_R   0.079906 0.436473 0.431634 -0.025844
C9    C     C_R   0.068625 0.565560 0.567121 -0.005462
C10   C     C_R   0.931598 0.437449 0.431147 -0.056573
C11   C     C_1   0.526069 0.498109 0.216065 -0.190268
C12   C     C_1   0.473222 0.496661 0.784297 -0.174433
C13   C     C_2   0.555793 0.498741 0.026815 0.375629
C14   C     C_2   0.443082 0.489228 0.973764 0.375399
C15   C     C_1   0.463826 0.493420 0.870218 -0.047900
C16   C     C_1   0.534686 0.497624 0.130232 -0.065966
C17   C     C_R   0.607279 0.932899 0.540613 -0.334162
C18   C     C_R   0.397528 0.064645 0.453278 -0.339455
C19   C     C_R   0.616565 0.060175 0.534689 0.475520
C20   C     C_R   0.398873 0.936186 0.448770 0.463793
Cu1   Cu    Cu3+1 0.359340 0.499980 0.500000 0.955836
Cu2   Cu    Cu3+1 0.640660 0.500020 0.500000 0.948192
H1    H     H_    0.860251 0.617102 0.621864 0.120082
H2    H     H_    0.139875 0.384793 0.377055 0.119784
H3    H     H_    0.119700 0.619204 0.620482 0.126174
H4    H     H_    0.880927 0.386440 0.376082 0.111894
H5    H     H_    0.687675 0.882309 0.576057 0.180006
H6    H     H_    0.316833 0.115161 0.418507 0.174768
N1    N     N_R   0.147930 0.499970 0.499980 -0.156216
N2    N     N_R   0.852070 0.500030 0.500020 -0.155843
O1    O     O_R   0.381260 0.680340 0.500000 -0.538417
O2    O     O_R   0.618740 0.319660 0.500000 -0.570615
O3    O     O_R   0.618830 0.680370 0.500010 -0.597511
O4    O     O_R   0.381170 0.319630 0.499990 -0.584652
O5    O     O_R   0.364420 0.499960 0.637840 -0.593475
O6    O     O_R   0.635580 0.500040 0.362160 -0.590274
O7    O     O_R   0.601990 0.499990 0.637850 -0.566826
O8    O     O_R   0.398010 0.500010 0.362150 -0.582800
O9    O     O_3   0.309945 0.481314 0.020159 -0.640285
C21   C     C_3   0.204587 0.445384 0.958240 0.054808
H7    H     H_    0.119165 0.402476 0.003095 0.143287
H8    H     H_    0.241136 0.371466 0.906883 0.147193
C22   C     C_3   0.144835 0.557740 0.906713 -0.370273
H9    H     H_    0.078608 0.613137 0.958376 0.212904
H10   H     H_    0.229438 0.619673 0.879112 0.226736
C23   C     C_3   0.059519 0.518205 0.822512 -0.886025
H11   H     H_    0.128949 0.473540 0.766171 0.266023
H12   H     H_    0.009468 0.600513 0.791547 0.246590
H13   H     H_    0.976686 0.451871 0.845558 0.263812
O10   O     O_3   0.688327 0.512948 0.980711 -0.630030
C24   C     C_3   0.799206 0.504692 0.043885 0.069501
H14   H     H_    0.893504 0.475246 0.001207 0.159848
H15   H     H_    0.783177 0.430590 0.098407 0.131826
C25   C     C_3   0.828124 0.630580 0.089787 -0.351761
H16   H     H_    0.868665 0.695337 0.033581 0.214735
H17   H     H_    0.730392 0.671517 0.122647 0.218892
C26   C     C_3   0.933798 0.618644 0.167378 -0.918201
H18   H     H_    0.892550 0.557053 0.225549 0.266214
H19   H     H_    0.952577 0.710960 0.198737 0.255100
H20   H     H_    0.034488 0.580648 0.136735 0.267725
O11   O     O_3   0.733424 0.116257 0.569270 -0.596277
C27   C     C_3   0.831483 0.139565 0.491732 0.100166
H21   H     H_    0.900648 0.214657 0.514789 0.176414
H22   H     H_    0.781029 0.172562 0.426212 0.133279
C28   C     C_3   0.923992 0.027566 0.465226 -0.381844
H23   H     H_    0.992086 0.005986 0.525096 0.237037
H24   H     H_    0.859457 0.945523 0.450866 0.223173
C29   C     C_3   0.013886 0.054659 0.374389 -0.917353
H25   H     H_    0.946825 0.072378 0.313270 0.239778
H26   H     H_    0.080604 0.973885 0.355904 0.300135
H27   H     H_    0.080595 0.136487 0.385191 0.244934
O12   O     O_3   0.303752 0.874573 0.395070 -0.600707
C30   C     C_3   0.358248 0.868586 0.298954 0.026221
H28   H     H_    0.466328 0.828994 0.294492 0.126347
H29   H     H_    0.360034 0.962625 0.266875 0.142794
C31   C     C_3   0.265579 0.785587 0.240605 -0.311500
H30   H     H_    0.265979 0.690584 0.270247 0.248125
H31   H     H_    0.156534 0.821001 0.245742 0.210235
C32   C     C_3   0.316319 0.781445 0.135095 -0.901716
H32   H     H_    0.310278 0.874871 0.103077 0.246893
H33   H     H_    0.249237 0.718221 0.095119 0.280709
H34   H     H_    0.426036 0.747672 0.127602 0.255772

loop_
_geom_bond_atom_site_label_1
_geom_bond_atom_site_label_2
_ccdc_geom_bond_type
C5    O7    A    
C30   H28   S    
C31   C32   S    
C1    O3    A    
Cu1   O1    S    
C23   H13   S    
Cu2   O2    S    
C8    N1    A    
C31   H31   S    
C26   H19   S    
C1    O1    A    
C3    C18   A    
C2    O2    A    
C27   H22   S    
C17   C19   A    
C14   O9    S    
C23   H11   S    
C21   C22   S    
Cu1   O8    S    
C29   H25   S    
C28   H24   S    
C6    O8    A    
C3    C19   A    
C9    N1    A    
C2    O4    A    
C21   H8    S    
C7    N2    A    
Cu1   Cu2   S    
C30   H29   S    
C23   H12   S    
C25   H17   S    
C9    H3    S    
C24   H14   S    
C17   H5    S    
C18   H6    S    
C31   H30   S    
C5    C12   S    
C6    C11   S    
C32   H33   S    
C26   H20   S    
Cu1   O4    S    
Cu2   O7    S    
Cu1   N1    S    
C13   O10   S    
C24   H15   S    
C22   H9    S    
C27   H21   S    
C11   C16   T    
C10   N2    A    
C12   C15   T    
C28   C29   S    
O10   C24   S    
C22   H10   S    
C4    C17   A    
C8    C10   A    
C21   H7    S    
C30   C31   S    
O9    C21   S    
C7    C9    A    
Cu2   O3    S    
C25   H16   S    
Cu2   N2    S    
C27   C28   S    
O12   C30   S    
C32   H34   S    
Cu1   O5    S    
Cu2   O6    S    
C24   C25   S    
C1    C4    S    
C2    C3    S    
C10   H4    S    
C26   H18   S    
C19   O11   S    
C29   H27   S    
C7    H1    S    
C5    O5    A    
C8    H2    S    
C6    O6    A    
C18   C20   A    
O11   C27   S    
C22   C23   S    
C32   H32   S    
C4    C20   A    
C29   H26   S    
C28   H23   S    
C13   C16   S    
C14   C15   S    
C20   O12   S    
C13   C14   D    
C25   C26   S    
