data_mof_unit_29405.cif
_audit_creation_date              2012-12-11T14:56:38-0500
_audit_creation_method            fapswitch 2.2
_symmetry_space_group_name_H-M    P1
_symmetry_Int_Tables_number       1
_space_group_crystal_system       triclinic
_cell_length_a                    10.500637
_cell_length_b                    10.617634
_cell_length_c                    17.063196
_cell_angle_alpha                 80.536059
_cell_angle_beta                  90.000355
_cell_angle_gamma                 118.862042
_cell_volume                      1636.4730732

loop_
_atom_site_label
_atom_site_type_symbol
_atom_type_description
_atom_site_fract_x
_atom_site_fract_y
_atom_site_fract_z
_atom_type_partial_charge
C1    C     C_R   0.278624 0.888563 0.133042 0.562968
C2    C     C_R   0.826469 0.464954 0.251860 -0.135583
C3    C     C_R   0.806138 0.428445 0.176869 -0.118504
C4    C     C_R   0.665013 0.362081 0.151337 0.023361
C5    C     C_1   0.669272 0.848710 0.205368 -0.029276
C6    C     C_1   0.679792 0.838851 0.274967 -0.031634
C7    C     C_1   0.226864 0.853409 0.215578 -0.045123
C8    C     C_1   0.178204 0.833390 0.283135 -0.048573
C9    C     C_1   0.660504 0.357287 0.780489 -0.057018
C10   C     C_1   0.683676 0.401519 0.710055 -0.054959
C11   C     C_R   0.536138 0.735886 0.782293 0.003080
C12   C     C_R   0.638029 0.282480 0.085873 0.538781
C13   C     C_R   0.527519 0.758102 0.700967 -0.104589
C14   C     C_R   0.651991 0.856453 0.651149 0.010665
C15   C     C_R   0.770781 0.966965 0.680603 -0.121824
C16   C     C_R   0.769264 0.967458 0.761705 -0.146243
C17   C     C_R   0.655034 0.851151 0.813756 0.025074
C18   C     C_R   0.251451 0.969292 0.758426 -0.126042
C19   C     C_R   0.237488 0.956090 0.679746 -0.129095
C20   C     C_R   0.164331 0.816951 0.660592 0.027006
C21   C     C_R   0.119263 0.690998 0.719822 -0.144627
C22   C     C_R   0.134549 0.704473 0.799063 -0.149803
C23   C     C_R   0.641088 0.858217 0.125182 0.549643
C24   C     C_R   0.195033 0.843447 0.818415 0.035575
C25   C     C_R   0.686073 0.809910 0.357366 0.544411
C26   C     C_R   0.727193 0.460373 0.383180 0.566185
C27   C     C_R   0.108116 0.812008 0.359898 0.544780
C28   C     C_R   0.674304 0.807787 0.580743 0.540515
C29   C     C_R   0.717090 0.446206 0.626249 0.569860
C30   C     C_R   0.102236 0.802567 0.585260 0.544417
C31   C     C_R   0.224451 0.863928 0.898771 0.556207
C32   C     C_R   0.639660 0.290387 0.861825 0.550386
C33   C     C_R   0.639649 0.867163 0.895988 0.545668
C34   C     C_R   0.547768 0.350032 0.197184 -0.133816
C35   C     C_R   0.568624 0.388652 0.271908 -0.121517
C36   C     C_R   0.706568 0.437871 0.301297 0.019597
Cr1   Cr    Cr6+3 0.402240 0.783890 0.019450 1.007906
Cr2   Cr    Cr6+3 0.382360 0.097900 0.991800 0.994348
Cr3   Cr    Cr6+3 0.715380 0.118170 0.988700 1.016144
Cr4   Cr    Cr6+3 0.936650 0.882420 0.465510 1.022285
Cr5   Cr    Cr6+3 0.605770 0.565620 0.493360 1.014138
Cr6   Cr    Cr6+3 0.921340 0.550490 0.496380 1.013144
H1    H     H_    0.438444 0.300955 0.178115 0.136481
H2    H     H_    0.274835 0.054097 0.634472 0.140151
H3    H     H_    0.062616 0.582183 0.705779 0.134529
H4    H     H_    0.096330 0.607364 0.845038 0.117527
H5    H     H_    0.475047 0.371474 0.308224 0.146006
H6    H     H_    0.934569 0.508460 0.272579 0.133006
H7    H     H_    0.899205 0.442445 0.141388 0.143672
H8    H     H_    0.432942 0.682978 0.675316 0.137356
H9    H     H_    0.867440 0.047349 0.641875 0.140803
H10   H     H_    0.858794 0.055946 0.783896 0.130473
H11   H     H_    0.306863 0.078399 0.772228 0.138310
O1    O     O_R   0.521780 0.757110 0.108900 -0.514591
O2    O     O_R   0.513330 0.228330 0.898660 -0.515541
O3    O     O_R   0.739230 0.266130 0.888050 -0.511889
O4    O     O_R   0.712580 0.991850 0.918770 -0.495597
O5    O     O_3   0.499990 0.999980 0.999980 -0.260401
O6    O     O_R   0.083770 0.911170 0.376030 -0.500324
O7    O     O_R   0.808770 0.880340 0.383890 -0.492954
O8    O     O_R   0.584340 0.689460 0.394160 -0.519638
O9    O     O_R   0.614320 0.443940 0.423590 -0.497771
O10   O     O_R   0.805020 0.410040 0.421340 -0.500716
O11   O     O_R   0.049240 0.685450 0.403290 -0.518461
O12   O     O_R   0.275160 0.783810 0.101120 -0.492458
O13   O     O_R   0.077520 0.903010 0.551800 -0.514874
O14   O     O_R   0.802980 0.872780 0.546830 -0.499733
O15   O     O_R   0.578090 0.681300 0.569920 -0.532526
O16   O     O_R   0.608530 0.436370 0.586530 -0.490301
O17   O     O_R   0.798770 0.401880 0.597100 -0.502693
O18   O     O_R   0.043450 0.677890 0.566230 -0.524044
O19   O     O_3   0.821250 0.666180 0.485090 -0.291431
O20   O     O_R   0.237900 0.972600 0.090980 -0.503742
O21   O     O_R   0.511190 0.220540 0.061620 -0.522242
O22   O     O_R   0.736920 0.257720 0.063840 -0.519077
O23   O     O_R   0.710450 0.984050 0.081720 -0.493240
O24   O     O_R   0.524090 0.765520 0.933110 -0.541165
O25   O     O_R   0.277300 0.791600 0.938160 -0.506059
O26   O     O_R   0.240210 0.981010 0.915190 -0.526497
C37   C     C_3   0.419836 0.590084 0.833139 -0.235143
C38   C     C_3   0.337862 0.460553 0.789510 -0.336174
C39   C     C_3   0.238683 0.319557 0.848311 -0.432577
H12   H     H_    0.302705 0.293019 0.893194 0.186262
H13   H     H_    0.153394 0.331460 0.879596 0.141769
H14   H     H_    0.184117 0.227542 0.815597 0.149219
H15   H     H_    0.266426 0.481728 0.747663 0.156504
H16   H     H_    0.417466 0.444032 0.755772 0.179853
H17   H     H_    0.475553 0.554023 0.879761 0.167359
H18   H     H_    0.336541 0.607823 0.861965 0.184661

loop_
_geom_bond_atom_site_label_1
_geom_bond_atom_site_label_2
_ccdc_geom_bond_type
Cr4   O7    S    
C12   O21   A    
C19   C20   A    
Cr5   O8    S    
C23   O23   A    
C35   H5    S    
C30   O18   A    
C3    H7    S    
C7    C8    T    
C20   C30   S    
C23   O1    A    
C18   C24   A    
C28   O15   A    
C18   C19   A    
C5    C6    T    
C6    C25   S    
Cr2   O26   S    
C15   C16   A    
Cr3   O4    S    
Cr6   O17   S    
C34   C35   A    
C37   H18   S    
C9    C32   S    
Cr2   O5    S    
Cr2   O2    S    
C35   C36   A    
C16   C17   A    
Cr4   O14   S    
Cr1   O12   S    
C1    O12   A    
C25   O7    A    
C15   H9    S    
C4    C12   S    
C9    C10   T    
C32   O2    A    
C21   H3    S    
Cr1   O5    S    
C18   H11   S    
Cr4   O6    S    
Cr4   O13   S    
C21   C22   A    
C17   C33   S    
Cr5   O9    S    
C30   O13   A    
C38   C39   S    
Cr5   O15   S    
C29   O16   A    
C4    C34   A    
C28   O14   A    
C11   C37   S    
C2    H6    S    
Cr3   O5    S    
Cr1   O24   S    
C26   O10   A    
Cr3   O3    S    
C5    C23   S    
Cr6   O19   S    
C38   H15   S    
C25   O8    A    
Cr3   O23   S    
C38   H16   S    
Cr5   O19   S    
Cr1   O1    S    
C26   C36   S    
C22   H4    S    
Cr3   O22   S    
C22   C24   A    
C3    C4    A    
Cr6   O11   S    
C19   H2    S    
C31   O25   A    
Cr5   O16   S    
C29   O17   A    
Cr2   O21   S    
C2    C36   A    
C11   C17   A    
C33   O4    A    
Cr4   O19   S    
C1    C7    S    
C34   H1    S    
C16   H10   S    
C37   C38   S    
C31   O26   A    
C39   H14   S    
Cr1   O25   S    
C39   H13   S    
C1    O20   A    
C2    C3    A    
C26   O9    A    
C24   C31   S    
C37   H17   S    
C27   O6    A    
C11   C13   A    
C10   C29   S    
C33   O24   A    
Cr6   O18   S    
C27   O11   A    
C13   H8    S    
C20   C21   A    
C39   H12   S    
C12   O22   A    
C8    C27   S    
C14   C15   A    
C14   C28   S    
C13   C14   A    
Cr6   O10   S    
C32   O3    A    
Cr2   O20   S    
