data_mof_unit_65015.cif
_audit_creation_date              2013-03-05T16:44:31-0500
_audit_creation_method            fapswitch 2.2
_symmetry_space_group_name_H-M    P1
_symmetry_Int_Tables_number       1
_space_group_crystal_system       triclinic
_cell_length_a                    15.593637
_cell_length_b                    19.187894
_cell_length_c                    19.172797
_cell_angle_alpha                 94.652503
_cell_angle_beta                  101.841193
_cell_angle_gamma                 97.706742
_cell_volume                      5528.87523955

loop_
_atom_site_label
_atom_site_type_symbol
_atom_site_description
_atom_site_fract_x
_atom_site_fract_y
_atom_site_fract_z
_atom_type_partial_charge
Zn1   Zn    Zn3+2 0.425320 0.550450 0.550460 0.963676
Zn2   Zn    Zn3+2 0.580410 0.455020 0.567370 1.032625
Zn3   Zn    Zn3+2 0.568940 0.565780 0.453410 1.069209
Zn4   Zn    Zn3+2 0.425330 0.428750 0.428760 1.060687
O1    O     O_3   0.500000 0.500000 0.500000 -0.512919
O2    O     O_R   0.453390 0.335660 0.446330 -0.623984
O3    O     O_R   0.442080 0.649780 0.539130 -0.653909
O4    O     O_R   0.561920 0.473910 0.663190 -0.647344
O5    O     O_R   0.542610 0.540650 0.351350 -0.584973
O6    O     O_R   0.703360 0.489010 0.567610 -0.607938
O7    O     O_R   0.300660 0.429640 0.429680 -0.637377
O8    O     O_R   0.695340 0.566530 0.487850 -0.624907
O9    O     O_R   0.300650 0.514820 0.514850 -0.648993
O10   O     O_R   0.453370 0.540700 0.651360 -0.646247
O11   O     O_R   0.442100 0.444740 0.334100 -0.613929
O12   O     O_R   0.561930 0.354050 0.543340 -0.630000
O13   O     O_R   0.542600 0.660510 0.471200 -0.631830
C1    C     C_R   0.509097 0.311500 0.493380 0.881983
C2    C     C_R   0.490322 0.688170 0.505302 0.822800
C3    C     C_R   0.509609 0.509024 0.690888 0.813622
C4    C     C_R   0.490853 0.490809 0.309041 0.948891
C5    C     C_R   0.740777 0.535125 0.534675 0.874180
C6    C     C_R   0.258223 0.466564 0.465087 0.811741
C7    C     C_R   0.968541 0.634118 0.572704 -0.156205
H1    H     H_    0.848248 0.649684 0.604190 0.157161
H2    H     H_    0.124820 0.667956 0.540834 0.153834
H3    H     H_    0.001004 0.687102 0.594980 0.158683
C8    C     C_R   0.836169 0.547376 0.544173 -0.100243
C9    C     C_R   0.126484 0.374628 0.437831 -0.245762
C10   C     C_R   0.042435 0.348322 0.447675 0.333243
C11   C     C_R   0.992877 0.395244 0.474902 -0.178856
C12   C     C_R   0.021846 0.469164 0.485676 0.044220
C13   C     C_R   0.108311 0.494860 0.477096 0.085819
C14   C     C_R   0.970119 0.517905 0.510167 0.004607
C15   C     C_R   0.011976 0.588147 0.537184 0.128566
C16   C     C_R   0.095239 0.612981 0.525466 -0.199821
C17   C     C_R   0.140105 0.568058 0.491547 -0.147397
C18   C     C_R   0.878036 0.500484 0.507388 0.215523
C19   C     C_R   0.881923 0.612853 0.578128 -0.236133
C20   C     C_R   0.161895 0.446484 0.456346 -0.127994
H4    H     H_    0.167270 0.337917 0.420948 0.211899
H5    H     H_    0.933614 0.372607 0.490472 0.215661
H6    H     H_    0.200963 0.591514 0.478522 0.170656
C21   C     C_R   0.481529 0.763254 0.500960 -0.064076
C22   C     C_R   0.524449 0.801799 0.455358 -0.238632
C23   C     C_R   0.512653 0.871839 0.446562 0.295584
C24   C     C_R   0.459652 0.904948 0.487073 0.232388
C25   C     C_R   0.415511 0.865862 0.531256 -0.209576
C26   C     C_R   0.426320 0.795652 0.538360 -0.205084
C27   C     C_R   0.448181 0.114041 0.441237 0.424943
C28   C     C_R   0.446555 0.186776 0.442798 -0.227225
C29   C     C_R   0.516255 0.088900 0.489075 0.239972
N1    N     N_2   0.450853 0.977412 0.486015 -0.106678
N2    N     N_2   0.523127 0.016152 0.490685 -0.125804
C30   C     C_R   0.512024 0.235048 0.490801 -0.085532
H7    H     H_    0.393998 0.205495 0.406316 0.214668
H8    H     H_    0.373888 0.890526 0.561491 0.176642
H9    H     H_    0.391527 0.766814 0.573144 0.179309
C31   C     C_R   0.580513 0.209784 0.536550 -0.157299
C32   C     C_R   0.582836 0.137440 0.535043 -0.212432
H10   H     H_    0.632534 0.245918 0.573479 0.197696
H11   H     H_    0.636261 0.118881 0.570723 0.184717
H12   H     H_    0.564728 0.776568 0.424229 0.225805
C33   C     C_R   0.489982 0.485771 0.232033 -0.237090
C34   C     C_R   0.485415 0.546929 0.196126 0.335960
C35   C     C_R   0.487603 0.543518 0.123749 -0.181986
C36   C     C_R   0.494000 0.479304 0.085487 0.220519
C37   C     C_R   0.495128 0.418204 0.120320 -0.191091
C38   C     C_R   0.494772 0.420604 0.193566 0.232692
C39   C     C_R   0.572834 0.480940 0.887342 0.307719
C40   C     C_R   0.567718 0.474959 0.813019 -0.270349
C41   C     C_R   0.521423 0.526317 0.916788 0.219475
N3    N     N_2   0.499150 0.474009 0.012110 -0.110173
N4    N     N_2   0.518228 0.532278 0.990110 -0.142877
C42   C     C_R   0.514540 0.514578 0.768720 -0.060090
H13   H     H_    0.606470 0.440284 0.789964 0.210849
H14   H     H_    0.500081 0.368897 0.090706 0.212787
C43   C     C_R   0.466757 0.561026 0.799375 -0.192294
C44   C     C_R   0.470816 0.567050 0.872695 -0.216527
H15   H     H_    0.425999 0.592886 0.766707 0.184066
H16   H     H_    0.483841 0.591264 0.097518 0.201509
H17   H     H_    0.432580 0.602557 0.895249 0.176849
Cl1   Cl    Cl    0.366610 0.057608 0.376126 -0.451189
N5    N     N_R   0.551313 0.907169 0.394435 0.227341
O14   O     O_R   0.506604 0.946541 0.353224 -0.272507
O15   O     O_R   0.625770 0.892313 0.381064 -0.328706
N6    N     N_R   0.632188 0.443086 0.931933 0.220333
O16   O     O_R   0.674276 0.471137 0.995934 -0.324126
O17   O     O_R   0.652721 0.384417 0.905684 -0.349416
N7    N     N_R   0.503561 0.357421 0.228308 0.237159
O18   O     O_R   0.468173 0.295849 0.193422 -0.319251
O19   O     O_R   0.557605 0.360069 0.290316 -0.331026
Cl2   Cl    Cl    0.473963 0.628912 0.239215 -0.536299
N8    N     N_R   0.823925 0.444256 0.456560 0.183597
O20   O     O_R   0.768275 0.397347 0.476575 -0.364886
O21   O     O_R   0.829288 0.440668 0.389550 -0.318161
N9    N     N_R   0.009293 0.273581 0.433579 0.231344
O22   O     O_R   0.056997 0.229490 0.411185 -0.334873
O23   O     O_R   0.930348 0.249014 0.441563 -0.311189

loop_
_geom_bond_atom_site_label_1
_geom_bond_atom_site_label_2
_geom_bond_distance
_ccdc_geom_bond_type
C21   C26   1.402266 A    
N6    O16   1.301440 A    
C11   H5    1.076285 S    
C30   C31   1.402973 A    
N3    N4    1.247089 D    
C15   C16   1.390844 A    
C7    H3    1.083986 S    
N9    O22   1.301686 A    
C25   H8    1.083310 S    
N1    N2    1.246535 D    
C2    C21   1.472789 S    
C10   N9    1.441475 S    
O4    C3    1.291715 A    
Zn1   O1    1.960098 S    
C16   C17   1.383098 A    
N5    O15   1.301581 A    
C28   H7    1.083683 S    
C41   C44   1.395395 A    
C10   C11   1.398658 A    
C43   H15   1.083009 S    
C6    C20   1.470996 S    
O8    C5    1.269777 A    
C7    C19   1.385046 A    
O9    C6    1.280117 A    
C32   H11   1.083528 S    
C14   C15   1.422292 A    
C4    C33   1.468929 S    
Zn3   O8    1.943686 S    
C29   C32   1.397908 A    
Zn1   O3    1.924822 S    
C24   C25   1.399208 A    
C37   C38   1.402522 A    
C27   C29   1.417849 A    
C39   C40   1.405171 A    
C36   N3    1.421749 S    
Zn2   O12   1.923486 S    
C24   N1    1.416727 S    
C34   Cl2   1.764662 S    
C35   C36   1.408042 A    
C31   C32   1.391560 A    
C5    C8    1.445411 S    
C39   N6    1.439223 S    
N9    O23   1.301721 A    
C29   N2    1.416558 S    
C27   Cl1   1.763098 S    
O2    C1    1.279654 A    
C31   H10   1.083449 S    
C13   C20   1.415142 A    
C36   C37   1.395896 A    
C7    C15   1.397404 A    
O10   C3    1.287547 A    
N5    O14   1.301200 A    
C41   N4    1.412795 S    
C43   C44   1.388773 A    
C8    C19   1.395566 A    
C22   C23   1.399544 A    
C22   H12   1.083340 S    
C13   C17   1.410312 A    
C26   H9    1.083116 S    
C3    C42   1.472740 S    
C12   C14   1.425573 A    
C17   H6    1.080014 S    
C9    C10   1.395592 A    
Zn3   O5    1.922022 S    
N7    O19   1.301441 A    
C11   C12   1.414512 A    
C8    C18   1.405975 A    
C18   N8    1.439958 S    
C27   C28   1.397282 A    
C33   C38   1.418137 A    
Zn4   O7    1.950100 S    
N8    O21   1.301411 A    
C1    C30   1.470919 S    
C23   N5    1.438529 S    
Zn4   O2    1.934472 S    
C25   C26   1.393938 A    
O3    C2    1.287758 A    
N6    O17   1.301536 A    
Zn2   O1    1.947292 S    
Zn1   O9    1.932871 S    
C38   N7    1.438875 S    
Zn2   O6    1.939513 S    
C21   C22   1.404163 A    
H2    C16   1.084262 S    
C37   H14   1.083469 S    
C23   C24   1.419214 A    
C9    H4    1.083109 S    
C14   C18   1.418950 A    
Zn2   O4    1.930535 S    
Zn4   O1    1.925585 S    
Zn3   O1    1.939012 S    
C44   H17   1.083337 S    
O6    C5    1.274956 A    
C33   C34   1.410483 A    
Zn4   O11   1.928722 S    
C12   C13   1.419148 A    
C35   H16   1.082938 S    
C40   C42   1.404178 A    
O5    C4    1.273742 A    
N7    O18   1.301215 A    
C40   H13   1.083032 S    
C9    C20   1.402810 A    
O7    C6    1.277803 A    
O13   C2    1.285388 A    
Zn3   O13   1.935492 S    
C28   C30   1.403447 A    
N8    O20   1.301402 A    
C42   C43   1.402771 A    
O11   C4    1.276227 A    
O12   C1    1.277384 A    
C34   C35   1.391537 A    
C39   C41   1.418712 A    
Zn1   O10   1.924096 S    
H1    C19   1.083880 S    
