data_mof_unit_19810.cif
_audit_creation_date              2012-12-10T19:48:01-0500
_audit_creation_method            fapswitch 2.2
_symmetry_space_group_name_H-M    P1
_symmetry_Int_Tables_number       1
_space_group_crystal_system       triclinic
_cell_length_a                    14.917455
_cell_length_b                    14.340428
_cell_length_c                    10.785203
_cell_angle_alpha                 87.966835
_cell_angle_beta                  90.926858
_cell_angle_gamma                 87.877849
_cell_volume                      2303.81239308

loop_
_atom_site_label
_atom_site_type_symbol
_atom_type_description
_atom_site_fract_x
_atom_site_fract_y
_atom_site_fract_z
_atom_type_partial_charge
C1    C     C_R   0.328227 0.501631 0.498844 0.946260
C2    C     C_R   0.571152 0.794775 0.547936 0.162250
C3    C     C_R   0.565456 0.196768 0.561593 0.147022
C4    C     C_R   0.423461 0.799802 0.464432 0.141235
C5    C     C_R   0.487695 0.053481 0.520645 0.123575
C6    C     C_R   0.491328 0.947222 0.516321 0.126634
C7    C     C_R   0.512137 0.501985 0.261395 0.918533
C8    C     C_R   0.498626 0.498763 0.741298 0.982458
C9    C     C_R   0.535266 0.681596 0.096191 0.415793
C10   C     C_R   0.605768 0.351035 0.883879 0.412013
C11   C     C_R   0.423946 0.654619 0.891467 0.411223
C12   C     C_R   0.672393 0.498926 0.497863 1.038312
C13   C     C_R   0.627223 0.362281 0.134443 0.389393
C14   C     C_R   0.492701 0.758204 0.033435 -0.313409
C15   C     C_R   0.636275 0.271943 0.953662 -0.221084
C16   C     C_R   0.431419 0.743780 0.938146 -0.274909
C17   C     C_R   0.649127 0.278391 0.080118 -0.260669
C18   C     C_R   0.479904 0.579209 0.941010 -0.076589
C19   C     C_R   0.569829 0.428965 0.071490 -0.035090
C20   C     C_R   0.517962 0.590196 0.058583 -0.051359
C21   C     C_R   0.557710 0.424077 0.942158 -0.051113
C22   C     C_R   0.506477 0.497386 0.876979 -0.160095
C23   C     C_R   0.048433 0.516005 0.464306 -0.019805
C24   C     C_R   0.538546 0.508608 0.130682 -0.083339
C25   C     C_R   0.100099 0.496625 0.360019 0.395204
C26   C     C_R   0.915750 0.428434 0.518789 0.410696
C27   C     C_R   0.896993 0.577988 0.404302 0.403388
C28   C     C_R   0.089438 0.534454 0.578697 0.405050
C29   C     C_R   0.192821 0.493338 0.372048 -0.280352
C30   C     C_R   0.823568 0.424706 0.529152 -0.148552
C31   C     C_R   0.805090 0.572736 0.414351 -0.173799
C32   C     C_R   0.181755 0.527239 0.590243 -0.195009
C33   C     C_R   0.232764 0.506227 0.487527 -0.135355
C34   C     C_R   0.952438 0.506582 0.459162 -0.000879
C35   C     C_R   0.768477 0.498491 0.481563 -0.127858
C36   C     C_R   0.369606 0.256161 0.350352 0.166502
C37   C     C_R   0.397889 0.276229 0.229093 -0.121966
C38   C     C_R   0.335740 0.305892 0.136291 -0.174901
C39   C     C_R   0.244254 0.310411 0.162140 -0.086544
C40   C     C_R   0.215076 0.286162 0.281123 -0.124714
C41   C     C_R   0.277440 0.259986 0.375258 -0.160576
C42   C     C_R   0.648342 0.746795 0.612943 0.142286
C43   C     C_R   0.638131 0.709124 0.733357 -0.123374
C44   C     C_R   0.711970 0.670800 0.801134 -0.112179
C45   C     C_R   0.427801 0.109202 0.445970 -0.300562
C46   C     C_R   0.797653 0.674367 0.751475 -0.041736
C47   C     C_R   0.809427 0.717106 0.634695 -0.141045
C48   C     C_R   0.735086 0.753392 0.565493 -0.179237
C49   C     C_R   0.661820 0.213085 0.543171 0.152116
C50   C     C_R   0.691030 0.222726 0.420652 -0.082126
C51   C     C_R   0.781659 0.208769 0.392317 -0.116582
C52   C     C_R   0.844143 0.183236 0.485990 -0.092428
C53   C     C_R   0.816315 0.172383 0.608311 -0.093513
C54   C     C_R   0.725775 0.186027 0.636374 -0.154289
C55   C     C_R   0.343184 0.758266 0.411799 0.150543
C56   C     C_R   0.568938 0.893260 0.550289 -0.290484
C57   C     C_R   0.344520 0.726763 0.290674 -0.122433
C58   C     C_R   0.265605 0.701565 0.231413 -0.176327
C59   C     C_R   0.184075 0.709373 0.292598 -0.066789
C60   C     C_R   0.181792 0.740135 0.414123 -0.121899
C61   C     C_R   0.261002 0.764940 0.473562 -0.132396
C62   C     C_R   0.550932 0.101281 0.588578 -0.297209
C63   C     C_R   0.418112 0.897808 0.475012 -0.301084
C64   C     C_R   0.432296 0.207630 0.439766 0.107813
Cl1   Cl    Cl    0.619209 0.704121 0.206964 -0.619643
Cl2   Cl    Cl    0.676536 0.379460 0.762132 -0.658254
Cl3   Cl    Cl    0.336013 0.640174 0.784627 -0.672232
Cl4   Cl    Cl    0.704539 0.400030 0.243101 -0.634536
Cl5   Cl    Cl    0.050848 0.474207 0.215000 -0.549106
Cl6   Cl    Cl    0.984222 0.337228 0.587589 -0.610095
Cl7   Cl    Cl    0.939959 0.677670 0.330056 -0.620047
Cl8   Cl    Cl    0.027068 0.563215 0.710298 -0.572088
H1    H     H_    0.690916 0.225514 0.129209 0.169023
H2    H     H_    0.628569 0.926190 0.582342 0.142381
H3    H     H_    0.599237 0.062000 0.647025 0.135414
H4    H     H_    0.355554 0.934703 0.449862 0.143292
H5    H     H_    0.467806 0.266408 0.205751 0.132217
H6    H     H_    0.358310 0.322670 0.043527 0.153225
H7    H     H_    0.195926 0.331637 0.089719 0.195035
H8    H     H_    0.144110 0.287817 0.300604 0.194746
H9    H     H_    0.253859 0.239632 0.466387 0.159119
H10   H     H_    0.573444 0.712325 0.776117 0.157848
H11   H     H_    0.702971 0.640509 0.893278 0.188159
H12   H     H_    0.391706 0.802345 0.898055 0.200655
H13   H     H_    0.855016 0.645965 0.804728 0.214279
H14   H     H_    0.876165 0.722123 0.597818 0.196824
H15   H     H_    0.745080 0.787144 0.475598 0.180400
H16   H     H_    0.642240 0.234125 0.345963 0.139186
H17   H     H_    0.803181 0.214855 0.297190 0.177510
H18   H     H_    0.913880 0.170648 0.463494 0.181048
H19   H     H_    0.864382 0.150545 0.680798 0.177987
H20   H     H_    0.704656 0.168701 0.728880 0.135145
H21   H     H_    0.406152 0.725332 0.241220 0.163918
H22   H     H_    0.267455 0.677780 0.137310 0.180087
H23   H     H_    0.669363 0.214051 0.910193 0.167147
H24   H     H_    0.122921 0.690956 0.245891 0.220891
H25   H     H_    0.118622 0.745638 0.461759 0.185124
H26   H     H_    0.258159 0.791296 0.566347 0.168951
H27   H     H_    0.503881 0.828413 0.062391 0.199443
H28   H     H_    0.233849 0.480714 0.291971 0.183296
H29   H     H_    0.795525 0.365795 0.576985 0.234790
H30   H     H_    0.762312 0.627995 0.372173 0.233217
H31   H     H_    0.213219 0.536206 0.679499 0.229577
H32   H     H_    0.379149 0.077172 0.387241 0.148971
N1    N     N_R   0.500000 0.252470 0.500000 -0.133514
N2    N     N_R   0.500000 0.747530 0.500000 -0.109128
O1    O     O_R   0.369060 0.579480 0.500010 -0.586571
O2    O     O_R   0.630940 0.420520 0.499990 -0.568821
O3    O     O_R   0.630940 0.579480 0.499990 -0.619419
O4    O     O_R   0.369060 0.420520 0.500010 -0.622804
O5    O     O_R   0.499990 0.579480 0.316780 -0.603813
O6    O     O_R   0.500010 0.420520 0.683220 -0.598723
O7    O     O_R   0.500010 0.579480 0.683220 -0.606908
O8    O     O_R   0.499990 0.420520 0.316780 -0.635470
Zn1   Zn    Zn3+2 0.500000 0.606140 0.500000 1.013445
Zn2   Zn    Zn3+2 0.500000 0.393860 0.500000 0.994176

loop_
_geom_bond_atom_site_label_1
_geom_bond_atom_site_label_2
_ccdc_geom_bond_type
C11   C18   A    
N1    Zn2   S    
C52   H18   S    
C61   H26   S    
C43   C44   A    
C44   H11   S    
C3    C49   S    
C1    C33   S    
C64   N1    A    
C53   C54   A    
C3    N1    A    
C4    C63   A    
C30   C35   A    
C7    O8    A    
C36   C37   A    
C19   C21   A    
C10   C15   A    
C8    O6    A    
C15   H23   S    
C38   C39   A    
C63   H4    S    
C7    C24   S    
C29   C33   A    
C16   H12   S    
C26   C34   A    
C20   C24   A    
C44   C46   A    
C53   H19   S    
C8    C22   S    
C40   H8    S    
C18   C20   A    
C50   H16   S    
C46   H13   S    
C59   C60   A    
C10   C21   A    
C57   H21   S    
C21   C22   A    
C17   H1    S    
C36   C41   A    
C28   Cl8   S    
C12   O3    A    
C11   Cl3   S    
C10   Cl2   S    
C27   C34   A    
C25   C29   A    
C48   H15   S    
C56   H2    S    
C13   C19   A    
C27   C31   A    
C51   C52   A    
C31   H30   S    
C4    N2    A    
C28   C32   A    
C60   H25   S    
C39   C40   A    
C12   O2    A    
C38   H6    S    
C58   C59   A    
C5    C45   A    
C2    N2    A    
C60   C61   A    
C39   H7    S    
C6    C63   A    
C9    C14   A    
C47   H14   S    
C54   H20   S    
C37   C38   A    
C45   H32   S    
C1    O4    A    
C11   C16   A    
C9    C20   A    
C47   C48   A    
C23   C34   S    
C41   H9    S    
C50   C51   A    
C32   H31   S    
C42   C48   A    
C23   C28   A    
C12   C35   S    
O1    Zn1   S    
C8    O7    A    
C1    O1    A    
C40   C41   A    
C26   C30   A    
C55   C57   A    
C4    C55   S    
C26   Cl6   S    
C14   C16   A    
C62   H3    S    
C25   Cl5   S    
C59   H24   S    
O4    Zn2   S    
O6    Zn2   S    
C27   Cl7   S    
C52   C53   A    
C3    C62   A    
C15   C17   A    
C46   C47   A    
C29   H28   S    
C18   C22   A    
C6    C56   A    
O8    Zn2   S    
C45   C64   A    
C13   C17   A    
N2    Zn1   S    
C32   C33   A    
O2    Zn2   S    
C19   C24   A    
C58   H22   S    
C2    C56   A    
C51   H17   S    
C14   H27   S    
C57   C58   A    
C5    C6    S    
C37   H5    S    
C2    C42   S    
C55   C61   A    
C30   H29   S    
C7    O5    A    
C5    C62   A    
C31   C35   A    
C23   C25   A    
C9    Cl1   S    
O3    Zn1   S    
C49   C50   A    
C42   C43   A    
C43   H10   S    
O5    Zn1   S    
C36   C64   S    
C49   C54   A    
O7    Zn1   S    
C13   Cl4   S    
