data_mof_unit_56559.cif
_audit_creation_date              2012-12-10T18:00:45-0500
_audit_creation_method            fapswitch 2.2
_symmetry_space_group_name_H-M    P1
_symmetry_Int_Tables_number       1
_space_group_crystal_system       triclinic
_cell_length_a                    15.842587
_cell_length_b                    10.870282
_cell_length_c                    9.681184
_cell_angle_alpha                 90.832057
_cell_angle_beta                  90.066123
_cell_angle_gamma                 97.310307
_cell_volume                      1653.49559398

loop_
_atom_site_label
_atom_site_type_symbol
_atom_type_description
_atom_site_fract_x
_atom_site_fract_y
_atom_site_fract_z
_atom_type_partial_charge
C1    C     C_R   0.507518 0.263991 0.499404 0.832511
C2    C     C_R   0.493046 0.736225 0.501344 0.845609
C3    C     C_R   0.482099 0.933475 0.378481 0.156030
C4    C     C_R   0.518597 0.067850 0.627174 0.163425
C5    C     C_R   0.486319 0.870442 0.504417 -0.128812
C6    C     C_R   0.515702 0.130159 0.499829 -0.122446
C7    C     C_R   0.440042 0.422996 0.074078 0.047792
C8    C     C_R   0.561947 0.573720 0.926157 0.057808
C9    C     C_R   0.436572 0.425681 0.925321 0.448102
C10   C     C_R   0.560537 0.578753 0.075352 0.460850
C11   C     C_R   0.340131 0.499714 0.499789 0.813740
C12   C     C_R   0.659851 0.499843 0.500178 0.837336
C13   C     C_3   0.962102 0.386956 0.523768 0.428767
C14   C     C_3   0.037967 0.613037 0.476125 0.506064
C15   C     C_3   0.020985 0.421507 0.399865 -0.263036
C16   C     C_3   0.979074 0.578491 0.600035 -0.226438
C17   C     C_1   0.250374 0.499163 0.499482 -0.095257
C18   C     C_1   0.749631 0.500571 0.500336 -0.106554
C19   C     C_3   0.025035 0.462337 0.624185 -0.276815
C20   C     C_3   0.975031 0.537668 0.375712 -0.227406
C21   C     C_3   0.083057 0.498818 0.499866 -0.015742
C22   C     C_3   0.916994 0.501162 0.500034 -0.001606
C23   C     C_1   0.174753 0.498707 0.499596 0.090474
C24   C     C_1   0.825272 0.501158 0.500246 0.091440
C25   C     C_R   0.508634 0.060938 0.374837 0.114865
C26   C     C_R   0.495426 0.939036 0.630629 0.116742
Cu1   Cu    Cu3+1 0.500000 0.500020 0.640660 1.008813
Cu2   Cu    Cu3+1 0.500000 0.499980 0.359340 1.008341
H1    H     H_    0.038775 0.356019 0.319144 0.200373
H2    H     H_    0.961288 0.643959 0.680782 0.202687
H3    H     H_    0.953949 0.570065 0.274630 0.207321
H4    H     H_    0.046157 0.429981 0.725264 0.200763
N1    N     N_R   0.500020 0.500030 0.852070 -0.249730
N2    N     N_R   0.499980 0.499970 0.147930 -0.252848
O1    O     O_R   0.500000 0.319660 0.618740 -0.520900
O2    O     O_R   0.500000 0.680340 0.381260 -0.512430
O3    O     O_R   0.499990 0.319630 0.381170 -0.610302
O4    O     O_R   0.500010 0.680370 0.618830 -0.608405
O5    O     O_R   0.379080 0.500000 0.618760 -0.480803
O6    O     O_R   0.620920 0.500000 0.381240 -0.498324
O7    O     O_R   0.379080 0.499970 0.381190 -0.607697
O8    O     O_R   0.620920 0.500030 0.618810 -0.611345
S1    S     S_3+6 0.910417 0.234759 0.555795 0.044707
O9    O     O_2   0.858719 0.235698 0.685754 -0.271564
O10   O     O_2   0.852655 0.192601 0.436486 -0.234643
O11   O     O_3   0.983528 0.136637 0.572736 -0.470668
H5    H     H_    0.022156 0.173662 0.646978 0.351497
S2    S     S_3+6 0.089760 0.765062 0.444053 0.031542
O12   O     O_2   0.145775 0.808820 0.564969 -0.269483
O13   O     O_2   0.142904 0.762378 0.315826 -0.285394
O14   O     O_3   0.015937 0.861336 0.422152 -0.469606
H6    H     H_    0.048701 0.942566 0.400680 0.402734
C27   C     C_3   0.540514 0.116936 0.239266 -0.746246
H7    H     H_    0.594104 0.191964 0.256486 0.248251
H8    H     H_    0.566255 0.046730 0.172372 0.259798
H9    H     H_    0.488475 0.152555 0.182891 0.220048
C28   C     C_3   0.471921 0.879235 0.768652 -0.739597
H10   H     H_    0.416210 0.806705 0.757138 0.252494
H11   H     H_    0.527050 0.839863 0.812884 0.241871
H12   H     H_    0.451180 0.946731 0.844537 0.233330
C29   C     C_3   0.438214 0.870273 0.252147 -0.718886
H13   H     H_    0.385956 0.798051 0.283219 0.236247
H14   H     H_    0.407868 0.937282 0.189253 0.225012
H15   H     H_    0.483889 0.828045 0.186138 0.273763
C30   C     C_3   0.555549 0.134719 0.756951 -0.729272
H16   H     H_    0.504603 0.171346 0.817836 0.250239
H17   H     H_    0.587498 0.071956 0.823236 0.233216
H18   H     H_    0.606248 0.210946 0.730654 0.239892
C31   C     C_3   0.374832 0.335609 0.150002 -0.587769
H19   H     H_    0.377751 0.239388 0.113911 0.208445
H20   H     H_    0.383394 0.327292 0.259711 0.246101
H21   H     H_    0.310565 0.364447 0.136993 0.248507
C32   C     C_3   0.635937 0.643757 0.848145 -0.582964
H22   H     H_    0.663164 0.733337 0.892299 0.252970
H23   H     H_    0.617581 0.674977 0.747446 0.237215
H24   H     H_    0.688055 0.584968 0.838135 0.231264
S3    S     S_3+6 0.339604 0.345698 0.842982 0.017066
O15   O     O_2   0.293129 0.242533 0.925319 -0.308590
O16   O     O_2   0.279579 0.441183 0.826891 -0.288589
O17   O     O_3   0.352189 0.277669 0.689285 -0.510735
H25   H     H_    0.293786 0.252000 0.653908 0.360071
S4    S     S_3+6 0.641443 0.692767 0.155863 0.017838
O18   O     O_2   0.726534 0.659942 0.109781 -0.290803
O19   O     O_2   0.630024 0.817423 0.098385 -0.358427
O20   O     O_3   0.650173 0.717817 0.326660 -0.502117
H26   H     H_    0.698830 0.783957 0.339055 0.378275

loop_
_geom_bond_atom_site_label_1
_geom_bond_atom_site_label_2
_ccdc_geom_bond_type
C29   H15   S    
C32   H22   S    
O20   H26   S    
Cu1   N1    S    
C17   C23   T    
C18   C24   T    
C14   C21   S    
C19   C21   S    
C25   C27   S    
C4    C30   S    
C28   H11   S    
C6    C25   A    
Cu2   O6    S    
C3    C29   S    
C16   H2    S    
Cu2   O7    S    
C31   H20   S    
C29   H14   S    
C12   O8    A    
S2    O14   S    
Cu1   O5    S    
C30   H17   S    
C1    O3    A    
C27   H9    S    
S3    O16   D    
Cu2   N2    S    
C9    N1    A    
C32   H23   S    
C29   H13   S    
C19   H4    S    
S1    O11   S    
C15   H1    S    
C27   H8    S    
C15   C20   S    
C13   C19   S    
O14   H6    S    
C14   C20   S    
C3    C25   A    
C4    C6    A    
C28   H12   S    
C14   S2    S    
Cu1   O1    S    
S3    O15   D    
C10   S4    S    
C1    C6    S    
C12   O6    A    
C31   H21   S    
S1    O9    D    
C2    O4    A    
C30   H18   S    
C10   N2    A    
C9    S3    S    
C11   O5    A    
S1    O10   D    
S2    O12   D    
C20   C22   S    
S4    O18   D    
S4    O19   D    
C13   C15   S    
C7    N2    A    
C22   C24   S    
C2    C5    S    
C13   S1    S    
C1    O1    A    
S3    O17   S    
C2    O2    A    
C7    C9    A    
O11   H5    S    
C11   C17   S    
C16   C22   S    
O17   H25   S    
C3    C5    A    
C7    C31   S    
C4    C26   A    
C27   H7    S    
S4    O20   S    
C21   C23   S    
Cu1   O8    S    
C28   H10   S    
Cu2   O3    S    
C16   C19   S    
S2    O13   D    
C8    C32   S    
C32   H24   S    
C13   C22   S    
C11   O7    A    
C14   C16   S    
C8    N1    A    
C31   H19   S    
C26   C28   S    
C5    C26   A    
C15   C21   S    
Cu2   O2    S    
C8    C10   A    
C30   H16   S    
C12   C18   S    
Cu1   Cu2   S    
Cu1   O4    S    
C20   H3    S    
