data_mof_unit_59884.cif
_audit_creation_date              2012-12-11T15:26:05-0500
_audit_creation_method            fapswitch 2.2
_symmetry_space_group_name_H-M    P1
_symmetry_Int_Tables_number       1
_space_group_crystal_system       triclinic
_cell_length_a                    24.408475
_cell_length_b                    17.108758
_cell_length_c                    15.835785
_cell_angle_alpha                 90.0
_cell_angle_beta                  50.669957
_cell_angle_gamma                 90.000015
_cell_volume                      5115.21074071

loop_
_atom_site_label
_atom_site_type_symbol
_atom_type_description
_atom_site_fract_x
_atom_site_fract_y
_atom_site_fract_z
_atom_type_partial_charge
C1    C     C_R   0.354005 0.146071 0.751873 0.001000
C2    C     C_2   0.311370 0.841000 0.972153 -0.236507
C3    C     C_R   0.780978 0.822343 0.122461 -0.173458
C4    C     C_R   0.704072 0.179363 0.242882 0.131707
C5    C     C_R   0.689444 0.242261 0.311726 -0.095419
C6    C     C_R   0.744514 0.280842 0.299721 -0.094956
C7    C     C_R   0.814701 0.258561 0.217054 -0.088939
C8    C     C_R   0.829957 0.197690 0.146221 -0.146682
C9    C     C_R   0.775047 0.158838 0.158057 -0.233414
C10   C     C_R   0.259401 0.891569 0.839304 0.085894
C11   C     C_R   0.232290 0.958326 0.826604 -0.165546
C12   C     C_R   0.164557 0.957945 0.857082 -0.123345
C13   C     C_2   0.365792 0.264059 0.835227 -0.232379
C14   C     C_R   0.123758 0.889840 0.898822 -0.086647
C15   C     C_R   0.151174 0.821873 0.908421 -0.116193
C16   C     C_R   0.219023 0.822341 0.877538 -0.173457
C17   C     C_R   0.795927 0.679363 0.757119 0.131707
C18   C     C_R   0.810555 0.742261 0.688276 -0.095419
C19   C     C_R   0.755483 0.780842 0.700283 -0.094955
C20   C     C_R   0.685297 0.758560 0.782951 -0.088942
C21   C     C_R   0.670042 0.697689 0.853782 -0.146682
C22   C     C_R   0.724953 0.658837 0.841945 -0.233414
C23   C     C_R   0.240599 0.391570 0.160695 0.085895
C24   C     C_2   0.688630 0.841000 0.027846 -0.236506
C25   C     C_R   0.267710 0.458327 0.173394 -0.165545
C26   C     C_R   0.335444 0.457947 0.142915 -0.123346
C27   C     C_R   0.376242 0.389843 0.101175 -0.086646
C28   C     C_R   0.348827 0.321875 0.091577 -0.116193
C29   C     C_R   0.280977 0.322343 0.122461 -0.173458
C30   C     C_R   0.204073 0.679362 0.242880 0.131704
C31   C     C_R   0.189447 0.742260 0.311721 -0.095418
C32   C     C_R   0.244519 0.780841 0.299713 -0.094955
C33   C     C_R   0.314706 0.758558 0.217044 -0.088944
C34   C     C_R   0.329959 0.697686 0.146214 -0.146683
C35   C     C_2   0.134208 0.764059 0.164773 -0.232379
C36   C     C_R   0.275047 0.658835 0.158053 -0.233413
C37   C     C_R   0.759401 0.391570 0.839305 0.085895
C38   C     C_R   0.732290 0.458327 0.826607 -0.165546
C39   C     C_R   0.664556 0.457947 0.857086 -0.123347
C40   C     C_R   0.623758 0.389843 0.898825 -0.086647
C41   C     C_R   0.651173 0.321875 0.908423 -0.116193
C42   C     C_R   0.719022 0.322342 0.877538 -0.173458
C43   C     C_2   0.811370 0.341000 0.972153 -0.236507
C44   C     C_2   0.865792 0.764059 0.835228 -0.232379
C45   C     C_2   0.188630 0.341000 0.027847 -0.236506
C46   C     C_2   0.703746 0.272223 0.087055 -0.095709
C47   C     C_2   0.240824 0.845967 0.040721 -0.096180
C48   C     C_2   0.296254 0.272223 0.912945 -0.095710
C49   C     C_R   0.667342 0.891737 0.198729 0.028151
C50   C     C_2   0.759176 0.845967 0.959279 -0.096180
C51   C     C_2   0.203745 0.772223 0.087055 -0.095709
C52   C     C_2   0.740825 0.345967 0.040721 -0.096180
C53   C     C_2   0.796254 0.772223 0.912945 -0.095710
C54   C     C_2   0.259176 0.345967 0.959279 -0.096181
C55   C     C_R   0.615928 0.099327 0.591251 -0.140492
C56   C     C_R   0.411535 0.856064 0.407214 -0.120137
C57   C     C_R   0.384072 0.099328 0.408749 -0.140491
C58   C     C_R   0.588465 0.856064 0.592786 -0.120136
C59   C     C_R   0.115928 0.599327 0.591251 -0.140492
C60   C     C_R   0.645995 0.146071 0.248126 0.000996
C61   C     C_R   0.911535 0.356064 0.407214 -0.120137
C62   C     C_R   0.884072 0.599327 0.408749 -0.140492
C63   C     C_R   0.088465 0.356064 0.592786 -0.120136
C64   C     C_R   0.690800 0.092368 0.411913 -0.108153
C65   C     C_R   0.338597 0.854514 0.588568 -0.127602
C66   C     C_R   0.309200 0.092368 0.588087 -0.108157
C67   C     C_R   0.661403 0.854514 0.411431 -0.127599
C68   C     C_R   0.190800 0.592368 0.411913 -0.108156
C69   C     C_R   0.838596 0.354514 0.588569 -0.127602
C70   C     C_R   0.809200 0.592367 0.588087 -0.108155
C71   C     C_R   0.332658 0.891736 0.801271 0.028153
C72   C     C_R   0.161403 0.354514 0.411431 -0.127600
C73   C     C_R   0.554494 0.143268 0.248621 -0.157863
C74   C     C_R   0.424068 0.893049 0.800238 -0.173711
C75   C     C_R   0.445507 0.143269 0.751378 -0.157863
C76   C     C_R   0.575932 0.893049 0.199762 -0.173711
C77   C     C_R   0.054493 0.643269 0.248622 -0.157863
C78   C     C_R   0.924068 0.393049 0.800238 -0.173711
C79   C     C_R   0.945506 0.643268 0.751378 -0.157863
C80   C     C_R   0.075932 0.393049 0.199762 -0.173710
C81   C     C_R   0.388898 0.187867 0.780602 0.088437
C82   C     C_R   0.854005 0.646071 0.751873 0.000997
C83   C     C_R   0.646445 0.873893 0.137276 0.089044
C84   C     C_R   0.611103 0.187867 0.219397 0.088439
C85   C     C_R   0.353555 0.873893 0.862723 0.089044
C86   C     C_R   0.888898 0.687867 0.780603 0.088438
C87   C     C_R   0.146445 0.373893 0.137277 0.089044
C88   C     C_R   0.111102 0.687867 0.219398 0.088438
C89   C     C_R   0.853555 0.373893 0.862723 0.089044
C90   C     C_R   0.686020 0.108429 0.501545 0.038731
C91   C     C_R   0.361653 0.811102 0.497520 0.025986
C92   C     C_R   0.313980 0.108430 0.498455 0.038731
C93   C     C_R   0.167341 0.391737 0.198729 0.028152
C94   C     C_R   0.638347 0.811102 0.502480 0.025986
C95   C     C_R   0.186020 0.608429 0.501545 0.038731
C96   C     C_R   0.861653 0.311102 0.497520 0.025987
C97   C     C_R   0.813980 0.608429 0.498455 0.038731
C98   C     C_R   0.138347 0.311102 0.502479 0.025986
C99   C     C_R   0.189560 0.150525 0.598509 -0.164516
C100  C     C_R   0.726330 0.703739 0.402263 -0.171540
C101  C     C_R   0.810440 0.150525 0.401489 -0.164515
C102  C     C_R   0.273670 0.703740 0.597737 -0.171540
C103  C     C_R   0.689560 0.650527 0.598511 -0.164516
C104  C     C_R   0.145995 0.646071 0.248127 0.000998
C105  C     C_R   0.226333 0.203742 0.402261 -0.171540
C106  C     C_R   0.310440 0.650526 0.401489 -0.164517
C107  C     C_R   0.773669 0.203740 0.597738 -0.171540
C108  C     C_R   0.645777 0.703092 0.599816 -0.178118
C109  C     C_R   0.270552 0.152193 0.401076 -0.173475
C110  C     C_R   0.354223 0.703091 0.400185 -0.178118
C111  C     C_R   0.729449 0.152191 0.598923 -0.173475
C112  C     C_R   0.145776 0.203088 0.599813 -0.178118
C113  C     C_R   0.770550 0.652190 0.401078 -0.173474
C114  C     C_R   0.854223 0.203090 0.400185 -0.178118
C115  C     C_R   0.832658 0.391736 0.801271 0.028153
C116  C     C_R   0.229450 0.652191 0.598922 -0.173475
C117  C     C_R   0.667905 0.736172 0.501639 0.146475
C118  C     C_R   0.256014 0.132168 0.499255 0.139179
C119  C     C_R   0.332095 0.736172 0.498361 0.146475
C120  C     C_R   0.743986 0.132167 0.500743 0.139179
C121  C     C_R   0.167905 0.236172 0.501637 0.146475
C122  C     C_R   0.756013 0.632167 0.499257 0.139178
C123  C     C_R   0.832095 0.236172 0.498362 0.146475
C124  C     C_R   0.243987 0.632168 0.500743 0.139179
C125  C     C_R   0.295925 0.179361 0.757122 0.131702
C126  C     C_2   0.634208 0.264059 0.164772 -0.232379
C127  C     C_R   0.310550 0.242259 0.688283 -0.095418
C128  C     C_R   0.255476 0.280838 0.700292 -0.094954
C129  C     C_R   0.185291 0.258553 0.782960 -0.088947
C130  C     C_R   0.170039 0.197681 0.853789 -0.146681
C131  C     C_R   0.224952 0.158832 0.841949 -0.233413
C132  C     C_R   0.740599 0.891570 0.160695 0.085895
C133  C     C_R   0.767710 0.958328 0.173394 -0.165543
C134  C     C_R   0.835444 0.957948 0.142915 -0.123347
C135  C     C_R   0.876242 0.889844 0.101175 -0.086646
C136  C     C_R   0.848827 0.821876 0.091577 -0.116192
H1    H     H_    0.594339 0.095650 0.675370 0.085482
H2    H     H_    0.299825 0.835890 0.669956 0.122788
H3    H     H_    0.260721 0.080018 0.668524 0.105393
H4    H     H_    0.700173 0.835888 0.330043 0.122786
H5    H     H_    0.239279 0.580017 0.331476 0.105392
H6    H     H_    0.799824 0.335891 0.669957 0.122788
H7    H     H_    0.760721 0.580016 0.668524 0.105392
H8    H     H_    0.200173 0.335890 0.330043 0.122787
H9    H     H_    0.515934 0.158557 0.238733 0.108911
H10   H     H_    0.454412 0.895501 0.828465 0.102421
H11   H     H_    0.484066 0.158558 0.761265 0.108911
H12   H     H_    0.440086 0.841651 0.322504 0.087809
H13   H     H_    0.545588 0.895501 0.171535 0.102421
H14   H     H_    0.015934 0.658558 0.238734 0.108911
H15   H     H_    0.954412 0.395501 0.828464 0.102421
H16   H     H_    0.984066 0.658557 0.761266 0.108911
H17   H     H_    0.045588 0.395501 0.171535 0.102421
H18   H     H_    0.174306 0.131550 0.675851 0.118233
H19   H     H_    0.742505 0.723221 0.324549 0.113169
H20   H     H_    0.825694 0.131552 0.324147 0.118234
H21   H     H_    0.257493 0.723224 0.675451 0.113169
H22   H     H_    0.674307 0.631555 0.675854 0.118235
H23   H     H_    0.405661 0.095650 0.324629 0.085482
H24   H     H_    0.242511 0.223228 0.324546 0.113170
H25   H     H_    0.325693 0.631554 0.324147 0.118235
H26   H     H_    0.757493 0.223223 0.675452 0.113169
H27   H     H_    0.598438 0.722766 0.678035 0.103693
H28   H     H_    0.319257 0.134976 0.322827 0.106052
H29   H     H_    0.401562 0.722765 0.321965 0.103693
H30   H     H_    0.680746 0.134971 0.677172 0.106052
H31   H     H_    0.098435 0.222760 0.678033 0.103694
H32   H     H_    0.819252 0.634969 0.322830 0.106052
H33   H     H_    0.901563 0.222763 0.321966 0.103693
H34   H     H_    0.559914 0.841651 0.677496 0.087809
H35   H     H_    0.180747 0.634971 0.677170 0.106052
H36   H     H_    0.213213 0.895318 0.039899 0.146259
H37   H     H_    0.736216 0.219739 0.053984 0.136730
H38   H     H_    0.786787 0.895318 0.960101 0.146259
H39   H     H_    0.263784 0.219739 0.946016 0.136731
H40   H     H_    0.713213 0.395317 0.039899 0.146259
H41   H     H_    0.236215 0.719739 0.053984 0.136730
H42   H     H_    0.286787 0.395318 0.960101 0.146259
H43   H     H_    0.763784 0.719739 0.946016 0.136730
H44   H     H_    0.337305 0.794872 0.982585 0.150546
H45   H     H_    0.094340 0.595650 0.675370 0.085482
H46   H     H_    0.597649 0.312703 0.194389 0.142565
H47   H     H_    0.662695 0.794872 0.017415 0.150545
H48   H     H_    0.402351 0.312704 0.805608 0.142565
H49   H     H_    0.837305 0.294872 0.982585 0.150544
H50   H     H_    0.097649 0.812704 0.194391 0.142565
H51   H     H_    0.162695 0.294872 0.017415 0.150546
H52   H     H_    0.902351 0.812704 0.805609 0.142565
H53   H     H_    0.364642 0.261170 0.625336 0.103464
H54   H     H_    0.267176 0.328439 0.646072 0.108913
H55   H     H_    0.142693 0.288726 0.792490 0.096132
H56   H     H_    0.940086 0.341651 0.322504 0.087809
H57   H     H_    0.115567 0.181514 0.919144 0.107870
H58   H     H_    0.211905 0.115337 0.901759 0.117325
H59   H     H_    0.735451 0.009846 0.208723 0.116325
H60   H     H_    0.855984 0.010179 0.152648 0.105904
H61   H     H_    0.928584 0.889406 0.077902 0.093364
H62   H     H_    0.879727 0.768593 0.061558 0.106927
H63   H     H_    0.759175 0.768472 0.119065 0.122489
H64   H     H_    0.635350 0.261169 0.374671 0.103464
H65   H     H_    0.732812 0.328442 0.353944 0.108912
H66   H     H_    0.857296 0.288736 0.207527 0.096132
H67   H     H_    0.905660 0.595650 0.324630 0.085482
H68   H     H_    0.884430 0.181525 0.080867 0.107869
H69   H     H_    0.788096 0.115344 0.098245 0.117322
H70   H     H_    0.264549 0.009843 0.791273 0.116327
H71   H     H_    0.144016 0.010174 0.847347 0.105905
H72   H     H_    0.071416 0.889401 0.922095 0.093364
H73   H     H_    0.120275 0.768589 0.938441 0.106927
H74   H     H_    0.240826 0.768470 0.880935 0.122490
H75   H     H_    0.864648 0.761169 0.625331 0.103464
H76   H     H_    0.767185 0.828442 0.646062 0.108913
H77   H     H_    0.642701 0.788735 0.792479 0.096131
H78   H     H_    0.059914 0.341651 0.677496 0.087809
H79   H     H_    0.615569 0.681523 0.919137 0.107869
H80   H     H_    0.711904 0.615342 0.901756 0.117323
H81   H     H_    0.235451 0.509845 0.208724 0.116326
H82   H     H_    0.355984 0.510177 0.152649 0.105905
H83   H     H_    0.428584 0.389404 0.077903 0.093364
H84   H     H_    0.379726 0.268591 0.061558 0.106927
H85   H     H_    0.259175 0.268471 0.119065 0.122490
H86   H     H_    0.135355 0.761170 0.374667 0.103464
H87   H     H_    0.232819 0.828441 0.353933 0.108913
H88   H     H_    0.357302 0.788732 0.207515 0.096131
H89   H     H_    0.739279 0.080016 0.331476 0.105391
H90   H     H_    0.384431 0.681520 0.080859 0.107870
H91   H     H_    0.288095 0.615341 0.098243 0.117324
H92   H     H_    0.764548 0.509845 0.791277 0.116326
H93   H     H_    0.644015 0.510177 0.847353 0.105905
H94   H     H_    0.571416 0.389404 0.922098 0.093364
H95   H     H_    0.620274 0.268591 0.938442 0.106927
H96   H     H_    0.740826 0.268471 0.880934 0.122490
N1    N     N_R   0.388930 0.078160 0.705470 -0.070487
N2    N     N_R   0.419500 0.922160 0.443350 -0.035789
N3    N     N_R   0.419500 0.077840 0.443350 -0.038713
N4    N     N_R   0.580500 0.922160 0.556650 -0.035789
N5    N     N_R   0.080500 0.577840 0.556650 -0.038713
N6    N     N_R   0.919500 0.422160 0.443350 -0.035789
N7    N     N_R   0.919500 0.577840 0.443350 -0.038714
N8    N     N_R   0.080500 0.422160 0.556650 -0.035789
N9    N     N_R   0.626210 0.077590 0.443410 -0.049898
N10   N     N_R   0.373790 0.922410 0.556590 -0.040562
N11   N     N_R   0.373790 0.077590 0.556590 -0.049897
N12   N     N_R   0.611070 0.921840 0.294530 -0.063571
N13   N     N_R   0.626210 0.922410 0.443410 -0.040562
N14   N     N_R   0.126210 0.577590 0.443410 -0.049897
N15   N     N_R   0.873790 0.422410 0.556590 -0.040562
N16   N     N_R   0.873790 0.577590 0.556590 -0.049897
N17   N     N_R   0.126210 0.422410 0.443410 -0.040562
N18   N     N_R   0.554800 0.077270 0.294580 -0.046247
N19   N     N_R   0.445200 0.922730 0.705420 -0.044243
N20   N     N_R   0.445200 0.077270 0.705420 -0.046247
N21   N     N_R   0.554800 0.922730 0.294580 -0.044243
N22   N     N_R   0.054800 0.577270 0.294580 -0.046247
N23   N     N_R   0.611070 0.078160 0.294530 -0.070487
N24   N     N_R   0.945200 0.422730 0.705420 -0.044243
N25   N     N_R   0.945200 0.577270 0.705420 -0.046247
N26   N     N_R   0.054800 0.422730 0.294580 -0.044243
N27   N     N_R   0.388930 0.921840 0.705470 -0.063571
N28   N     N_R   0.888930 0.578160 0.705470 -0.070488
N29   N     N_R   0.111070 0.421840 0.294530 -0.063571
N30   N     N_R   0.111070 0.578160 0.294530 -0.070487
N31   N     N_R   0.888930 0.421840 0.705470 -0.063570
N32   N     N_R   0.580500 0.077840 0.556650 -0.038714
Ni1   Ni    Ni4+2 0.382710 1.000000 0.629850 0.206361
Ni2   Ni    Ni4+2 0.617290 1.000000 0.370150 0.206362
Ni3   Ni    Ni4+2 0.882710 0.500000 0.629850 0.206361
Ni4   Ni    Ni4+2 0.117290 0.500000 0.370150 0.206361
Ni5   Ni    Ni4+2 0.513020 1.000000 0.629850 0.200766
Ni6   Ni    Ni4+2 0.486980 1.000000 0.370150 0.200766
Ni7   Ni    Ni4+2 0.013020 0.500000 0.629850 0.200766
Ni8   Ni    Ni4+2 0.986980 0.500000 0.370150 0.200766

loop_
_geom_bond_atom_site_label_1
_geom_bond_atom_site_label_2
_ccdc_geom_bond_type
C95   C124  S    
C45   H51   S    
C98   C121  S    
C63   C98   A    
C89   C115  A    
C27   H83   S    
N32   Ni5   S    
C57   C92   A    
C14   H72   S    
C26   H82   S    
C67   N13   A    
C41   C42   A    
N19   Ni5   S    
C25   H81   S    
N13   Ni2   S    
C107  C123  A    
C69   C96   A    
C128  C129  A    
C49   N12   A    
C113  H32   S    
C30   C104  S    
C74   N19   A    
C61   C96   A    
C7    C8    A    
N16   Ni3   S    
C72   C98   A    
N3    Ni6   S    
C29   H85   S    
C70   H7    S    
C43   C89   S    
C59   C95   A    
N7    Ni8   S    
C5    C6    A    
C61   N6    A    
C23   C29   A    
N8    Ni7   S    
C54   H42   S    
C28   C29   A    
C58   H34   S    
C24   C83   S    
C1    C125  S    
C18   C19   A    
C55   C90   A    
C58   N4    A    
N30   Ni4   S    
C38   C39   A    
C94   C117  S    
C44   C86   S    
N20   Ni5   S    
N10   Ni1   S    
C105  H24   S    
C66   N11   A    
C43   H49   S    
C71   N27   A    
C15   C16   A    
C31   H86   S    
C99   H18   S    
C13   C81   S    
N24   Ni7   S    
C76   C83   A    
C2    C85   S    
C65   C91   A    
C17   C82   S    
N1    N20   A    
C106  H25   S    
C37   C42   A    
C59   H45   S    
C92   C118  S    
C105  C109  A    
N19   N27   A    
C71   C85   A    
C44   C53   D    
C69   N15   A    
C56   C91   A    
C113  C122  A    
C41   H95   S    
C77   C88   A    
C1    N1    A    
C132  C133  A    
N9    N32   A    
N6    N15   A    
C78   H15   S    
C61   H56   S    
C3    H63   S    
C21   H79   S    
C103  C108  A    
N25   Ni7   S    
C11   H70   S    
C64   C90   A    
C72   N17   A    
N26   Ni8   S    
C52   H40   S    
C73   C84   A    
C136  H62   S    
C70   C97   A    
C48   H39   S    
N15   Ni3   S    
C10   C71   S    
C130  H57   S    
C134  H60   S    
C57   H23   S    
C110  C119  A    
N8    N17   A    
C74   C85   A    
C21   C22   A    
C24   H47   S    
C84   C126  S    
C101  C114  A    
C45   C87   S    
C56   N2    A    
C22   H80   S    
C2    H44   S    
C37   C38   A    
N14   Ni4   S    
C53   H43   S    
C102  H21   S    
C64   H89   S    
C57   N3    A    
C74   H10   S    
C109  C118  A    
N2    Ni6   S    
C5    H64   S    
C93   N29   A    
C78   C89   A    
C24   C50   D    
C108  H27   S    
C46   H37   S    
C50   C53   S    
C80   H17   S    
C66   H3    S    
C82   N28   A    
C55   N32   A    
C79   N25   A    
C104  N30   A    
C135  C136  A    
C6    H65   S    
C129  H55   S    
C39   C40   A    
C48   C54   S    
C129  C130  A    
C8    C9    A    
C66   C92   A    
C64   N9    A    
C101  H20   S    
C68   N14   A    
C69   H6    S    
C82   C86   A    
C112  H31   S    
C60   N23   A    
C62   N7    A    
C19   H76   S    
C116  H35   S    
C73   H9    S    
C111  C120  A    
C90   C120  S    
C56   H12   S    
N31   Ni3   S    
C12   H71   S    
C97   C122  S    
N27   Ni1   S    
C67   C94   A    
C62   C97   A    
C35   C88   S    
C125  C131  A    
C130  C131  A    
C31   C32   A    
C107  H26   S    
C8    H68   S    
N21   Ni6   S    
C133  H59   S    
C13   H48   S    
C4    C60   S    
C33   C34   A    
C26   C27   A    
C114  H33   S    
C105  C121  A    
C68   H5    S    
N5    Ni7   S    
C111  H30   S    
C127  H53   S    
N28   Ni3   S    
N6    Ni8   S    
C76   N21   A    
N3    N11   A    
C68   C95   A    
C6    C7    A    
C115  N31   A    
N2    N10   A    
C47   H36   S    
C65   H2    S    
C100  H19   S    
C40   C41   A    
C12   C14   A    
C45   C54   D    
C36   H91   S    
N12   N21   A    
C35   C51   D    
C133  C134  A    
C91   C119  S    
C126  H46   S    
C131  H58   S    
C80   N26   A    
C114  C123  A    
C40   H94   S    
C75   N20   A    
C49   C132  S    
C63   N8    A    
C32   H87   S    
N17   Ni4   S    
C38   H92   S    
C73   N18   A    
C106  C110  A    
N18   N23   A    
C72   H8    S    
C67   H4    S    
C116  C124  A    
C96   C123  S    
C59   N5    A    
N9    Ni2   S    
C101  C120  A    
C107  C111  A    
N4    N13   A    
C46   C126  D    
C75   C81   A    
C100  C113  A    
N11   Ni1   S    
C4    C5    A    
C109  H28   S    
C77   H14   S    
C135  H61   S    
C13   C48   D    
C47   C51   S    
C3    C132  A    
C103  H22   S    
C39   H93   S    
C134  C135  A    
C37   C115  S    
N23   Ni2   S    
C2    C47   D    
C80   C87   A    
C65   N10   A    
C17   C22   A    
C55   H1    S    
C17   C18   A    
C30   C36   A    
C50   H38   S    
N25   N28   A    
C75   H11   S    
C20   H77   S    
C49   C83   A    
C19   C20   A    
C16   H74   S    
N29   Ni4   S    
C25   C26   A    
C78   N24   A    
C112  C121  A    
C15   H73   S    
C9    H69   S    
C32   C33   A    
C46   C52   S    
C60   C84   A    
C30   C31   A    
C76   H13   S    
C44   H52   S    
C35   H50   S    
C99   C112  A    
C87   C93   A    
N22   Ni8   S    
N4    Ni5   S    
C110  H29   S    
C34   C36   A    
N5    N14   A    
C18   H75   S    
N12   Ni2   S    
C128  H54   S    
C23   C25   A    
C63   H78   S    
C58   C94   A    
C43   C52   D    
C62   H67   S    
C108  C117  A    
C102  C116  A    
C10   C11   A    
C77   N22   A    
N1    Ni1   S    
N26   N29   A    
C33   H88   S    
C23   C93   S    
C7    H66   S    
C20   C21   A    
N22   N30   A    
C34   H90   S    
C28   H84   S    
N24   N31   A    
C106  C124  A    
C27   C28   A    
C125  C127  A    
N18   Ni6   S    
C14   C15   A    
N7    N16   A    
C10   C16   A    
C100  C117  A    
C3    C136  A    
C4    C9    A    
C51   H41   S    
C103  C122  A    
C1    C81   A    
C88   C104  A    
C79   C86   A    
C102  C119  A    
C127  C128  A    
C11   C12   A    
C70   N16   A    
C79   H16   S    
C99   C118  A    
C42   H96   S    
