data_mof_unit_67220.cif
_audit_creation_date              2013-03-05T16:01:25-0500
_audit_creation_method            fapswitch 2.2
_symmetry_space_group_name_H-M    P1
_symmetry_Int_Tables_number       1
_space_group_crystal_system       triclinic
_cell_length_a                    20.252579
_cell_length_b                    20.205764
_cell_length_c                    8.364283
_cell_angle_alpha                 89.771123
_cell_angle_beta                  91.961715
_cell_angle_gamma                 90.364048
_cell_volume                      3420.72259979

loop_
_atom_site_label
_atom_site_type_symbol
_atom_site_description
_atom_site_fract_x
_atom_site_fract_y
_atom_site_fract_z
_atom_type_partial_charge
P1    P     P_3+3 0.136530 0.426510 0.931350 0.485764
P2    P     P_3+3 0.136530 0.573490 0.431350 0.479880
P3    P     P_3+3 0.636530 0.926510 0.931350 0.485536
P4    P     P_3+3 0.636530 0.073490 0.431350 0.473773
O1    O     O_2   0.130070 0.404060 0.104920 -0.368218
O2    O     O_2   0.130070 0.595940 0.604920 -0.364023
O3    O     O_2   0.630070 0.904060 0.104920 -0.365513
O4    O     O_2   0.630070 0.095940 0.604920 -0.370802
O5    O     O_3   0.075780 0.466370 0.861070 -0.398064
O6    O     O_3   0.075780 0.533630 0.361070 -0.406019
O7    O     O_3   0.575780 0.966370 0.861070 -0.398280
O8    O     O_3   0.575780 0.033630 0.361070 -0.402894
O9    O     O_3   0.022320 0.344950 0.359800 -0.342209
O10   O     O_3   0.022320 0.655050 0.859800 -0.376370
O11   O     O_3   0.522320 0.844950 0.359800 -0.388997
O12   O     O_3   0.522320 0.155050 0.859800 -0.386253
O13   O     O_2   0.130472 0.294380 0.248980 -0.354725
O14   O     O_2   0.135547 0.697401 0.759681 -0.343932
O15   O     O_2   0.631883 0.795549 0.251362 -0.350047
O16   O     O_2   0.630343 0.206716 0.744023 -0.353499
O17   O     O_3   0.206333 0.477791 0.948317 -0.523198
O18   O     O_3   0.206648 0.523459 0.447402 -0.525879
O19   O     O_3   0.706161 0.978032 0.948258 -0.523946
O20   O     O_3   0.706496 0.023240 0.447595 -0.532223
O21   O     O_3   0.043394 0.205995 0.327436 -0.466295
O22   O     O_3   0.049098 0.788382 0.787406 -0.497695
O23   O     O_3   0.543417 0.707562 0.320797 -0.489328
O24   O     O_3   0.542921 0.292562 0.829450 -0.525473
C1    C     C_3   0.014206 0.112280 0.495022 -0.829826
C2    C     C_3   0.032758 0.902376 0.839943 -0.606799
C3    C     C_3   0.500468 0.615197 0.470963 -0.637838
C4    C     C_3   0.511661 0.375094 0.022068 -0.645814
H1    H     H_    0.060207 0.111197 0.570280 0.206675
H2    H     H_    0.996273 0.913455 0.740984 0.243452
H3    H     H_    0.544396 0.609461 0.552735 0.175885
H4    H     H_    0.556426 0.369202 0.100338 0.129594
P5    P     P_3+3 0.863410 0.426100 0.379280 0.437285
P6    P     P_3+3 0.863410 0.573900 0.879280 0.478406
P7    P     P_3+3 0.363410 0.926100 0.379280 0.427536
P8    P     P_3+3 0.363410 0.073900 0.879280 0.474648
P9    P     P_3+3 0.920847 0.279997 0.927096 0.567641
P10   P     P_3+3 0.921629 0.720176 0.429626 0.496640
P11   P     P_3+3 0.421129 0.779608 0.927813 0.521256
P12   P     P_3+3 0.423041 0.221200 0.426114 0.474483
O25   O     O_2   0.869860 0.403670 0.205810 -0.308610
O26   O     O_2   0.869860 0.596330 0.705810 -0.381385
O27   O     O_2   0.369860 0.903670 0.205810 -0.326276
O28   O     O_2   0.369860 0.096330 0.705810 -0.379459
O29   O     O_3   0.977590 0.344880 0.951200 -0.306272
O30   O     O_3   0.977590 0.655120 0.451200 -0.403643
O31   O     O_3   0.477590 0.844880 0.951200 -0.310328
O32   O     O_3   0.477590 0.155120 0.451200 -0.412075
O33   O     O_2   0.866519 0.293014 0.048358 -0.303598
O34   O     O_2   0.874163 0.714289 0.570295 -0.345242
O35   O     O_2   0.367947 0.791117 0.053044 -0.367231
O36   O     O_2   0.372526 0.213645 0.559579 -0.346820
O37   O     O_3   0.790319 0.471845 0.369099 -0.622839
O38   O     O_3   0.789961 0.526993 0.874571 -0.598015
O39   O     O_3   0.290541 0.972104 0.368255 -0.610217
O40   O     O_3   0.289972 0.027148 0.874801 -0.598241
O41   O     O_3   0.960789 0.208456 0.996762 -0.453006
O42   O     O_3   0.964432 0.794308 0.466050 -0.485895
O43   O     O_3   0.461742 0.707693 0.992354 -0.482669
O44   O     O_3   0.464585 0.295328 0.472381 -0.499145
C5    C     C_3   0.007281 0.190182 0.884292 0.365318
C6    C     C_3   0.022561 0.793355 0.379189 0.485738
C7    C     C_3   0.505021 0.688870 0.873338 0.367764
C8    C     C_3   0.530191 0.290140 0.424548 0.447078
H5    H     H_    0.030855 0.233338 0.825155 0.041303
H6    H     H_    0.058630 0.758509 0.436121 0.119015
H7    H     H_    0.532230 0.731830 0.823229 0.054153
H8    H     H_    0.557133 0.252311 0.497497 0.155583
H9    H     H_    0.981851 0.158527 0.793705 0.078268
H10   H     H_    0.012224 0.778717 0.252764 -0.010425
H11   H     H_    0.476127 0.663104 0.777287 0.079887
H12   H     H_    0.531999 0.276888 0.296312 0.001965
C9    C     C_3   0.062680 0.150677 0.965589 -0.784697
C10   C     C_3   0.053206 0.862255 0.379704 -0.878630
C11   C     C_3   0.556280 0.641267 0.943325 -0.812705
C12   C     C_3   0.565199 0.356363 0.449113 -0.868205
H13   H     H_    0.092862 0.183162 0.046372 0.287717
H14   H     H_    0.067501 0.877051 0.503662 0.274486
H15   H     H_    0.586851 0.666156 0.038271 0.289392
H16   H     H_    0.568668 0.368604 0.578112 0.282145
H17   H     H_    0.042059 0.109227 0.035465 0.273987
H18   H     H_    0.017252 0.898451 0.328238 0.280698
H19   H     H_    0.531542 0.597298 0.994284 0.279867
H20   H     H_    0.537530 0.396144 0.384676 0.273496
C13   C     C_3   0.789287 0.478088 0.756725 0.448252
C14   C     C_3   0.796359 0.527235 0.270905 0.315887
C15   C     C_3   0.289114 0.978591 0.756184 0.446456
C16   C     C_3   0.297163 0.026788 0.268056 0.316139
H21   H     H_    0.819915 0.491107 0.654578 0.118246
H22   H     H_    0.829228 0.518518 0.170470 0.110288
H23   H     H_    0.319403 0.991858 0.653617 0.123140
H24   H     H_    0.328922 0.016683 0.166418 0.116182
C17   C     C_3   0.718282 0.467654 0.693813 -1.003381
C18   C     C_3   0.727742 0.543712 0.199748 -0.696934
C19   C     C_3   0.217964 0.968468 0.694530 -1.008968
C20   C     C_3   0.228589 0.044728 0.199282 -0.710232
H25   H     H_    0.701245 0.512297 0.627485 0.273815
H26   H     H_    0.710280 0.503090 0.119542 0.219238
H27   H     H_    0.200747 0.013280 0.629117 0.276139
H28   H     H_    0.209064 0.003852 0.122498 0.219065
H29   H     H_    0.715065 0.424855 0.610736 0.250650
H30   H     H_    0.729127 0.590438 0.129490 0.219220
H31   H     H_    0.214202 0.925749 0.611285 0.256403
H32   H     H_    0.230792 0.090663 0.126230 0.221740
H33   H     H_    0.684985 0.458607 0.794493 0.256591
H34   H     H_    0.691840 0.548594 0.296223 0.291077
H35   H     H_    0.185306 0.959599 0.796399 0.248518
H36   H     H_    0.194039 0.052003 0.297519 0.295275
Ba1   Ba    Ba6+2 0.999980 0.452130 0.155200 1.603104
Ba2   Ba    Ba6+2 0.999980 0.547870 0.655200 1.595152
Ba3   Ba    Ba6+2 0.499980 0.952130 0.155200 1.582104
Ba4   Ba    Ba6+2 0.499980 0.047870 0.655200 1.581984
C21   C     C_3   0.187812 0.542082 0.988778 0.282399
C22   C     C_3   0.188753 0.458840 0.489276 0.273915
C23   C     C_3   0.687009 0.042200 0.988142 0.311453
C24   C     C_3   0.688366 0.958691 0.489431 0.294646
H37   H     H_    0.155537 0.541245 0.093171 0.048474
H38   H     H_    0.156921 0.459184 0.594376 0.046947
H39   H     H_    0.655104 0.041006 0.093146 0.046376
H40   H     H_    0.656631 0.959194 0.594674 0.046441
H41   H     H_    0.161004 0.565601 0.886083 0.120475
H42   H     H_    0.161804 0.434750 0.387454 0.114467
H43   H     H_    0.659568 0.065234 0.885715 0.112151
H44   H     H_    0.661242 0.934720 0.387707 0.115596
C25   C     C_3   0.249735 0.583394 0.031115 -0.092069
C26   C     C_3   0.251179 0.418926 0.531500 -0.077702
C27   C     C_3   0.748306 0.084591 0.029064 -0.119501
C28   C     C_3   0.750622 0.918491 0.531413 -0.107974
H45   H     H_    0.264130 0.575225 0.159158 0.168913
H46   H     H_    0.266374 0.428236 0.658512 0.174532
H47   H     H_    0.762551 0.077722 0.157649 0.145739
H48   H     H_    0.766015 0.927864 0.658272 0.164396
H49   H     H_    0.238667 0.636792 0.014764 0.063922
H50   H     H_    0.240374 0.365228 0.518744 0.053205
H51   H     H_    0.736658 0.137677 0.009711 0.057651
H52   H     H_    0.739504 0.864833 0.519062 0.054398
O45   O     O_3   0.924190 0.533610 0.949240 -0.343717
O46   O     O_3   0.924190 0.466390 0.449240 -0.426146
O47   O     O_3   0.424190 0.033610 0.949240 -0.343320
O48   O     O_3   0.424190 0.966390 0.449240 -0.418841
P13   P     P_3+3 0.082112 0.716710 0.877349 0.491437
P14   P     P_3+3 0.080314 0.282291 0.381294 0.538862
P15   P     P_3+3 0.581382 0.217296 0.879168 0.488071
P16   P     P_3+3 0.580649 0.782678 0.380659 0.501359
C29   C     C_3   0.998816 0.184112 0.443530 0.359141
C30   C     C_3   0.023081 0.831268 0.901341 0.358553
C31   C     C_3   0.493125 0.688997 0.425175 0.311994
C32   C     C_3   0.494689 0.308344 0.941384 0.274223
H53   H     H_    0.000210 0.215206 0.552677 -0.049897
H54   H     H_    0.048775 0.826846 0.020015 -0.037967
H55   H     H_    0.495246 0.717375 0.538736 -0.081302
H56   H     H_    0.490797 0.271162 0.038976 -0.015182
H57   H     H_    0.974339 0.092824 0.570585 0.188665
H58   H     H_    0.082607 0.907221 0.790346 0.182189
H59   H     H_    0.457005 0.598275 0.538073 0.204306
H60   H     H_    0.470893 0.389644 0.100396 0.227646
H61   H     H_    0.095291 0.130270 0.874010 0.173057
H62   H     H_    0.098058 0.862804 0.307242 0.187654
H63   H     H_    0.589210 0.624710 0.848112 0.177102
H64   H     H_    0.615897 0.354011 0.403225 0.203538
C33   C     C_R   0.242297 0.304934 0.005155 -0.050631
C34   C     C_R   0.241959 0.694780 0.504115 -0.023034
C35   C     C_R   0.741007 0.803983 0.006911 -0.058580
C36   C     C_R   0.742023 0.194757 0.504392 -0.094367
C37   C     C_R   0.151056 0.346442 0.822190 0.231110
C38   C     C_R   0.150418 0.654096 0.321633 0.216881
C39   C     C_R   0.650626 0.846224 0.822547 0.232639
C40   C     C_R   0.650987 0.153634 0.321108 0.221809
C41   C     C_R   0.113511 0.336664 0.680522 -0.529316
C42   C     C_R   0.112098 0.664811 0.181354 -0.542557
C43   C     C_R   0.613206 0.836577 0.680592 -0.528049
C44   C     C_R   0.613630 0.163497 0.179310 -0.560930
C45   C     C_R   0.124666 0.283449 0.578984 0.179217
C46   C     C_R   0.123800 0.718329 0.078923 0.176488
C47   C     C_R   0.623283 0.782553 0.580698 0.193667
C48   C     C_R   0.625771 0.216607 0.076537 0.224460
C49   C     C_R   0.169529 0.233568 0.626405 -0.251588
C50   C     C_R   0.171080 0.767026 0.123401 -0.175256
C51   C     C_R   0.666687 0.731744 0.630718 -0.241334
C52   C     C_R   0.671214 0.266680 0.123266 -0.180204
C53   C     C_R   0.208242 0.240874 0.770424 0.009006
C54   C     C_R   0.208607 0.759745 0.269302 -0.003338
C55   C     C_R   0.706529 0.739774 0.772792 0.004639
C56   C     C_R   0.708705 0.259552 0.269276 -0.024055
C57   C     C_R   0.200410 0.298198 0.867369 -0.009843
C58   C     C_R   0.200097 0.702199 0.366478 -0.023383
C59   C     C_R   0.699381 0.797522 0.868630 -0.015081
C60   C     C_R   0.700380 0.201951 0.366366 -0.019887
H65   H     H_    0.076983 0.373078 0.644168 0.168936
H66   H     H_    0.075222 0.628320 0.145523 0.177488
H67   H     H_    0.577501 0.873582 0.642917 0.171928
H68   H     H_    0.576714 0.127045 0.143477 0.178727
C61   C     C_R   0.798677 0.700149 0.949965 -0.026457
C62   C     C_R   0.799310 0.299574 0.449931 0.042138
C63   C     C_R   0.299717 0.200852 0.948787 -0.029754
C64   C     C_R   0.299760 0.799234 0.449080 -0.024231
C65   C     C_R   0.788964 0.755755 0.049654 0.067326
C66   C     C_R   0.790723 0.242555 0.546611 0.087525
C67   C     C_R   0.290820 0.257101 0.046914 0.066246
C68   C     C_R   0.290838 0.742426 0.546262 0.101874
C69   C     C_R   0.850933 0.654236 0.988825 0.239103
C70   C     C_R   0.851890 0.345368 0.487864 0.250254
C71   C     C_R   0.351702 0.154650 0.987734 0.220965
C72   C     C_R   0.352090 0.845182 0.487596 0.183445
C73   C     C_R   0.891090 0.666062 0.125702 -0.554146
C74   C     C_R   0.894727 0.331521 0.618848 -0.398882
C75   C     C_R   0.392837 0.167102 0.122514 -0.547967
C76   C     C_R   0.394599 0.831519 0.619406 -0.460245
C77   C     C_R   0.876956 0.717052 0.232417 0.238003
C78   C     C_R   0.881584 0.279220 0.723977 0.126039
C79   C     C_R   0.379881 0.219065 0.227348 0.250235
C80   C     C_R   0.381121 0.779430 0.725055 0.162471
C81   C     C_R   0.826790 0.762125 0.193215 -0.090617
C82   C     C_R   0.830621 0.234335 0.686214 -0.296129
C83   C     C_R   0.330040 0.264472 0.187932 -0.198678
C84   C     C_R   0.330362 0.734401 0.686616 -0.259384
C85   C     C_R   0.755835 0.692428 0.815495 -0.138853
C86   C     C_R   0.756923 0.307634 0.315205 -0.136887
C87   C     C_R   0.257076 0.193254 0.814204 -0.145101
C88   C     C_R   0.257250 0.807474 0.314642 -0.130335
H69   H     H_    0.817097 0.801789 0.275564 0.165588
H70   H     H_    0.820980 0.194285 0.768495 0.190170
H71   H     H_    0.320993 0.304573 0.269498 0.180489
H72   H     H_    0.320536 0.694443 0.768998 0.187708
H73   H     H_    0.930298 0.631740 0.156901 0.161723
H74   H     H_    0.934257 0.365979 0.649293 0.176039
H75   H     H_    0.431825 0.132564 0.153928 0.164120
H76   H     H_    0.434091 0.865995 0.650015 0.194527
H77   H     H_    0.238055 0.347681 0.080862 0.192174
H78   H     H_    0.237774 0.651510 0.579010 0.189174
H79   H     H_    0.736863 0.846715 0.082645 0.194730
H80   H     H_    0.737870 0.151493 0.579343 0.197349
H81   H     H_    0.762217 0.649992 0.740636 0.179978
H82   H     H_    0.763283 0.350738 0.242024 0.156468
H83   H     H_    0.263445 0.150667 0.740136 0.179239
H84   H     H_    0.263450 0.850719 0.241867 0.162520
C89   C     C_2   0.929980 0.187528 0.373767 0.555377
H85   H     H_    0.895418 0.146549 0.384544 -0.006176
O49   O     O_2   0.911484 0.238042 0.307957 -0.506384
C90   C     C_2   0.950866 0.816450 0.919385 0.478971
H86   H     H_    0.927195 0.776499 0.852215 0.083022
O50   O     O_2   0.918338 0.849247 0.009860 -0.561062
C91   C     C_2   0.427344 0.703992 0.345109 0.579628
H87   H     H_    0.417244 0.754559 0.310890 0.079037
O51   O     O_2   0.385461 0.661302 0.318429 -0.593799
C92   C     C_2   0.428067 0.308714 0.856318 0.609287
H88   H     H_    0.408620 0.262522 0.810505 0.050672
O52   O     O_2   0.395232 0.358950 0.839966 -0.529084
N1    N     N_R   0.304743 0.565831 0.931265 0.298563
O53   O     O_R   0.360487 0.546579 0.997254 -0.275270
O54   O     O_R   0.298068 0.568025 0.776121 -0.379647
N2    N     N_R   0.305322 0.436840 0.428272 0.294723
O55   O     O_R   0.361031 0.458581 0.490544 -0.291995
O56   O     O_R   0.297883 0.432406 0.273615 -0.385376
N3    N     N_R   0.803741 0.066998 0.930951 0.294111
O57   O     O_R   0.860035 0.050797 0.998959 -0.279839
O58   O     O_R   0.797413 0.067472 0.775671 -0.391514
N4    N     N_R   0.804727 0.936006 0.427691 0.294201
O59   O     O_R   0.860603 0.957560 0.489442 -0.330966
O60   O     O_R   0.797156 0.931236 0.273125 -0.360928
C93   C     C_2   0.019753 0.066417 0.355460 0.782444
H89   H     H_    0.978475 0.060355 0.270532 0.061918
O61   O     O_2   0.070116 0.034870 0.338086 -0.621097
C94   C     C_2   0.028176 0.952277 0.971019 0.632000
H90   H     H_    0.063596 0.951511 0.071251 0.014114
O62   O     O_2   0.985283 0.994338 0.964684 -0.497285
C95   C     C_2   0.507385 0.571172 0.328158 0.797739
H91   H     H_    0.467568 0.567304 0.238596 0.099310
O63   O     O_2   0.557436 0.538822 0.312785 -0.622105
C96   C     C_2   0.524958 0.429130 0.903300 0.811246
H92   H     H_    0.567672 0.426280 0.829157 -0.011402
O64   O     O_2   0.488417 0.476791 0.890763 -0.523545
C97   C     C_2   0.174154 0.172811 0.528703 0.711469
H93   H     H_    0.177090 0.124875 0.586544 -0.052555
O65   O     O_2   0.175623 0.175383 0.383159 -0.518684
C98   C     C_2   0.181038 0.825476 0.018022 0.518161
H94   H     H_    0.184214 0.874868 0.068042 -0.042828
O66   O     O_2   0.185712 0.819114 0.874019 -0.573968
C99   C     C_2   0.667560 0.668771 0.540435 0.697416
H95   H     H_    0.668934 0.622122 0.604469 -0.060006
O67   O     O_2   0.667760 0.668088 0.394699 -0.512945
C100  C     C_2   0.678431 0.326953 0.022090 0.539646
H96   H     H_    0.681650 0.375526 0.076562 -0.040165
O68   O     O_2   0.680979 0.323231 0.877028 -0.574280
C101  C     C_2   0.814984 0.416605 0.831426 0.403790
H97   H     H_    0.787657 0.370625 0.825484 0.064967
O69   O     O_2   0.869605 0.417596 0.895501 -0.491844
C102  C     C_2   0.824637 0.581740 0.371144 0.480748
H98   H     H_    0.876776 0.581111 0.402574 0.088200
O70   O     O_2   0.790412 0.625852 0.420698 -0.574107
C103  C     C_2   0.314936 0.916833 0.829453 0.424178
H99   H     H_    0.288333 0.870637 0.818928 0.068783
O71   O     O_2   0.369062 0.917693 0.896130 -0.487837
C104  C     C_2   0.327504 0.081063 0.365249 0.497395
H100  H     H_    0.380012 0.080309 0.391911 0.085130
O72   O     O_2   0.294232 0.124886 0.419120 -0.567007

loop_
_geom_bond_atom_site_label_1
_geom_bond_atom_site_label_2
_geom_bond_distance
_ccdc_geom_bond_type
O29   Ba1   2.788800 S    
C33   H77   1.078613 S    
C62   C70   1.434407 A    
P5    C70   1.880992 S    
C19   H27   1.108057 S    
P9    O41   1.749112 S    
C11   H19   1.108129 S    
P11   O43   1.748705 S    
P12   O44   1.751415 S    
C35   H79   1.078303 S    
O5    Ba2   2.803951 S    
C76   H76   1.082057 S    
C92   O52   1.221671 D    
C95   H91   1.084368 S    
C1    H1    1.106664 S    
C20   H28   1.110721 S    
C90   H86   1.085068 S    
O18   C22   1.399216 S    
C96   H92   1.083459 S    
C29   H53   1.109771 S    
O17   C21   1.400413 S    
C32   H56   1.111638 S    
P2    O18   1.749480 S    
C52   C100  1.489535 S    
C31   H55   1.110894 S    
P4    O8    1.565135 S    
O8    Ba3   2.800573 S    
C17   H29   1.111738 S    
C64   C72   1.433684 A    
C26   H46   1.112292 S    
P1    Ba1   3.435409 S    
C79   C83   1.398541 A    
C43   H67   1.081991 S    
O43   C7    1.403903 S    
O20   C24   1.399094 S    
C5    C9    1.520922 S    
O37   C14   1.392834 S    
C7    C11   1.520553 S    
O42   C6    1.404674 S    
C50   C98   1.487685 S    
O10   Ba2   2.790622 S    
C73   C77   1.403131 A    
C85   H81   1.074809 S    
O30   Ba2   2.782678 S    
C54   C58   1.428938 A    
C10   H14   1.108610 S    
C8    H8    1.110445 S    
C46   C50   1.410685 A    
O6    Ba1   2.800573 S    
C25   H45   1.112239 S    
C94   O62   1.218858 D    
C42   H66   1.081969 S    
P16   C47   1.856387 S    
P7    Ba3   3.430487 S    
O11   Ba3   2.784466 S    
C104  H100  1.079263 S    
P5    O25   1.531899 D    
C26   H50   1.110330 S    
P7    O27   1.531899 D    
C38   C42   1.401302 A    
P8    O28   1.527972 D    
O24   P15   1.755083 S    
C49   C53   1.422290 A    
O1    Ba1   2.858905 S    
N3    O58   1.300746 A    
C18   H30   1.110809 S    
C43   C47   1.397555 A    
C23   H39   1.108140 S    
C35   C59   1.413705 A    
O15   P16   1.544353 D    
C36   C60   1.413794 A    
O24   C32   1.414722 S    
C102  O70   1.215382 D    
O13   P14   1.545320 D    
C12   H20   1.110038 S    
C87   H83   1.073353 S    
C100  O68   1.218836 D    
P2    Ba2   3.427848 S    
C6    H6    1.111828 S    
P6    Ba2   3.438163 S    
C36   C66   1.413145 A    
O38   C13   1.398196 S    
P3    O7    1.570756 S    
C49   C97   1.482708 S    
O4    Ba4   2.846361 S    
C1    C29   1.542985 S    
O41   C5    1.405601 S    
C25   H49   1.110350 S    
C53   C87   1.422162 A    
P3    Ba3   3.435409 S    
C34   C58   1.414225 A    
C82   H70   1.081385 S    
P5    O37   1.749560 S    
C48   C52   1.410728 A    
C91   O51   1.221730 D    
P8    O40   1.756269 S    
C37   C57   1.440742 A    
C32   C92   1.503717 S    
C103  O71   1.212815 D    
C40   C60   1.435870 A    
C51   C99   1.482726 S    
O44   C8    1.405343 S    
C61   C85   1.405376 A    
O19   C23   1.400540 S    
N1    O53   1.300670 A    
Ba3   Ba4   4.614892 S    
C6    H10   1.111791 S    
C16   H24   1.103899 S    
C3    C31   1.544922 S    
O21   C29   1.415988 S    
C89   H85   1.086289 S    
C22   H38   1.107857 S    
O2    Ba2   2.846361 S    
Ba4   O48   2.800678 S    
N2    O56   1.300587 A    
C62   C66   1.418164 A    
C23   C27   1.533525 S    
C41   C45   1.397136 A    
C21   C25   1.534145 S    
P10   O42   1.748433 S    
C64   C68   1.418063 A    
O28   Ba4   2.862706 S    
P12   O32   1.745832 S    
C9    H17   1.107174 S    
C97   H93   1.082012 S    
C71   C75   1.401258 A    
P11   C80   1.854362 S    
C20   H32   1.110678 S    
C2    H2    1.113546 S    
Ba2   O45   2.955514 S    
C98   H94   1.084375 S    
C78   C82   1.398453 A    
C34   C68   1.413426 A    
C17   H33   1.110595 S    
C70   C74   1.402422 A    
C4    C32   1.542130 S    
C28   H48   1.112276 S    
C19   H35   1.109711 S    
P7    C72   1.882624 S    
C101  H97   1.078849 S    
C88   H84   1.072102 S    
P9    O33   1.546211 D    
P10   O30   1.745856 S    
C13   C101  1.477948 S    
C25   N1    1.461372 S    
P6    O45   1.574807 S    
C7    H11   1.107348 S    
C28   N4    1.461616 S    
P11   O35   1.547155 D    
C54   C88   1.417636 A    
Ba3   O48   2.959329 S    
P4    C40   1.886493 S    
C80   C84   1.398480 A    
C53   C57   1.429311 A    
N4    O59   1.300984 A    
C8    H12   1.108434 S    
C56   C60   1.428942 A    
C66   C82   1.406965 A    
P10   C77   1.855096 S    
C45   C49   1.408006 A    
C90   O50   1.220453 D    
C96   O64   1.220266 D    
C13   H21   1.102890 S    
P6    O26   1.527972 D    
C27   H51   1.109776 S    
C15   H23   1.102844 S    
C44   C48   1.398130 A    
P7    O48   1.569127 S    
P8    O47   1.574807 S    
C99   H95   1.082308 S    
C37   C41   1.399861 A    
C15   C19   1.526558 S    
C21   H41   1.107489 S    
C40   C44   1.399069 A    
C81   H69   1.082114 S    
C23   H43   1.107678 S    
C34   H78   1.078119 S    
C18   H34   1.109635 S    
P6    C69   1.889788 S    
C1    C93   1.501002 S    
C61   C69   1.439738 A    
C12   H16   1.107708 S    
O14   P13   1.540573 D    
O27   Ba3   2.850063 S    
O10   P13   1.735026 S    
C75   H75   1.082063 S    
C68   C84   1.407484 A    
O12   P15   1.734412 S    
P1    O1    1.528909 D    
P3    O3    1.528909 D    
C31   C91   1.502518 S    
P4    O20   1.749649 S    
C2    C30   1.537496 S    
P5    Ba1   3.430487 S    
C84   H72   1.081295 S    
C95   O63   1.220383 D    
C50   C54   1.423044 A    
P9    O29   1.745594 S    
C12   H64   1.109759 S    
P6    O38   1.758120 S    
O9    Ba1   2.784466 S    
C14   C102  1.486723 S    
O23   P16   1.757440 S    
P13   C46   1.859889 S    
C33   C57   1.413946 A    
O21   P14   1.762517 S    
C42   C46   1.401010 A    
C30   C90   1.503555 S    
P8    C71   1.890181 S    
C63   C67   1.420588 A    
C104  O72   1.213557 D    
O12   Ba4   2.790622 S    
C14   H22   1.104902 S    
O32   Ba4   2.782678 S    
C9    H61   1.110660 S    
C6    C10   1.520601 S    
O22   C30   1.408365 S    
P1    O5    1.570756 S    
P5    O46   1.569127 S    
C103  H99   1.077193 S    
C93   O61   1.219406 D    
C1    H57   1.111226 S    
C55   C85   1.423004 A    
C92   H88   1.077487 S    
O31   Ba3   2.788800 S    
C16   C104  1.485092 S    
C22   C26   1.534187 S    
C51   C55   1.422604 A    
P12   O36   1.546283 D    
C9    H13   1.109600 S    
P7    O39   1.748688 S    
C74   H74   1.082098 S    
C39   C59   1.440557 A    
O7    Ba4   2.803951 S    
P2    C38   1.890474 S    
C27   N3    1.459720 S    
C20   H36   1.108151 S    
C41   H65   1.082053 S    
C3    H3    1.109836 S    
C63   C87   1.403450 A    
C4    H4    1.106705 S    
Ba1   Ba2   4.614892 S    
O23   C31   1.412022 S    
P4    Ba4   3.427848 S    
C24   H44   1.108243 S    
C28   H52   1.110450 S    
C19   H31   1.111767 S    
C33   C67   1.416945 A    
C18   H26   1.110539 S    
P10   O34   1.548389 D    
C11   H15   1.110176 S    
P9    C78   1.851095 S    
P11   O31   1.747226 S    
O11   P16   1.735555 S    
C5    H5    1.113739 S    
C15   C103  1.478683 S    
C7    H7    1.113407 S    
O39   C16   1.392722 S    
C35   C65   1.416423 A    
O25   Ba1   2.850063 S    
C94   H90   1.084683 S    
C83   H71   1.081875 S    
C56   C86   1.417859 A    
C8    C12   1.521696 S    
C75   C79   1.402407 A    
P1    O17   1.749602 S    
C99   O67   1.219258 D    
P12   C79   1.852172 S    
P3    O19   1.749667 S    
P4    O4    1.532838 D    
Ba2   O46   2.800678 S    
C102  H98   1.079542 S    
C62   C86   1.402638 A    
C98   O66   1.218792 D    
C27   H47   1.112345 S    
C100  H96   1.084346 S    
Ba1   O46   2.959329 S    
C5    H9    1.105180 S    
O3    Ba3   2.858905 S    
C21   H37   1.108512 S    
P15   C48   1.852577 S    
C76   C80   1.403062 A    
Ba1   O45   2.804050 S    
C61   C65   1.420515 A    
C93   H89   1.084990 S    
C55   C59   1.429204 A    
C72   C76   1.403026 A    
C36   H80   1.078233 S    
C10   H18   1.110497 S    
P2    O2    1.532838 D    
O9    P14   1.737073 S    
C47   C51   1.408762 A    
Ba3   O47   2.804050 S    
O26   Ba2   2.862706 S    
C64   C88   1.402651 A    
N1    O54   1.300693 A    
C77   C81   1.398471 A    
N4    O60   1.300558 A    
C74   C78   1.402095 A    
C39   C43   1.400174 A    
C86   H82   1.072173 S    
C52   C56   1.423111 A    
P14   C45   1.854701 S    
C13   C17   1.527901 S    
C89   O49   1.212996 D    
O22   P13   1.754829 S    
Ba4   O47   2.955514 S    
C69   C73   1.401881 A    
N2    O55   1.300959 A    
C63   C71   1.439672 A    
O16   P15   1.545345 D    
C73   H73   1.082095 S    
C44   H68   1.081998 S    
C10   H62   1.109108 S    
C97   O65   1.219646 D    
N3    O57   1.299760 A    
P2    O6    1.565135 S    
C16   C20   1.530078 S    
O40   C15   1.397740 S    
C2    H58   1.108151 S    
C24   C28   1.534028 S    
C11   H63   1.110085 S    
C91   H87   1.078915 S    
C38   C58   1.436081 A    
C67   C83   1.407172 A    
C65   C81   1.407957 A    
C3    C95   1.503068 S    
P3    C39   1.891255 S    
P8    Ba4   3.438163 S    
P1    C37   1.890449 S    
C101  O69   1.212662 D    
C3    H59   1.111445 S    
C4    C96   1.502468 S    
C2    C94   1.498080 S    
C29   C89   1.494651 S    
C30   H54   1.108419 S    
C22   H42   1.108275 S    
C14   C18   1.530991 S    
C17   H25   1.107866 S    
C24   H40   1.107689 S    
C4    H60   1.113123 S    
C26   N2    1.461582 S    
