data_mof_unit_45906.cif
_audit_creation_date              2012-12-10T19:45:40-0500
_audit_creation_method            fapswitch 2.2
_symmetry_space_group_name_H-M    P1
_symmetry_Int_Tables_number       1
_space_group_crystal_system       triclinic
_cell_length_a                    10.866613
_cell_length_b                    14.658471
_cell_length_c                    14.748188
_cell_angle_alpha                 64.504805
_cell_angle_beta                  104.117623
_cell_angle_gamma                 102.567994
_cell_volume                      2039.31518163

loop_
_atom_site_label
_atom_site_type_symbol
_atom_type_description
_atom_site_fract_x
_atom_site_fract_y
_atom_site_fract_z
_atom_type_partial_charge
C1    C     C_R   0.474051 0.120391 0.311779 0.793053
C2    C     C_R   0.522131 0.879513 0.688147 0.785847
C3    C     C_R   0.870507 0.997887 0.498583 -0.088567
C4    C     C_R   0.130690 0.998357 0.508032 -0.093060
C5    C     C_R   0.908214 0.943558 0.452605 0.027147
C6    C     C_R   0.093523 0.050761 0.556743 0.031788
C7    C     C_R   0.441514 0.188994 0.203648 -0.080717
C8    C     C_R   0.524457 0.809991 0.796046 -0.088380
C9    C     C_R   0.349695 0.216085 0.027952 -0.194869
C10   C     C_R   0.545961 0.780135 0.973501 -0.198732
C11   C     C_R   0.386322 0.150268 0.128922 -0.185498
C12   C     C_R   0.558301 0.846335 0.873523 -0.174847
C13   C     C_R   0.456107 0.294387 0.176301 -0.203384
C14   C     C_R   0.484644 0.705720 0.820779 -0.214937
C15   C     C_R   0.413460 0.361378 0.076112 0.077122
C16   C     C_R   0.463147 0.638971 0.919403 0.073781
C17   C     C_R   0.365705 0.321633 0.000565 0.081749
C18   C     C_R   0.496786 0.677332 0.996702 0.087272
C19   C     C_R   0.422826 0.467666 0.048592 -0.113200
C20   C     C_R   0.413454 0.534323 0.944259 -0.116897
C21   C     C_R   0.350085 0.493075 0.870530 0.458928
C22   C     C_R   0.434103 0.510064 0.121025 0.457923
C23   C     C_R   0.263322 0.998819 0.503748 0.784351
C24   C     C_R   0.737124 0.999932 0.498413 0.791682
C25   C     C_R   0.330798 0.387540 0.899325 -0.296624
C26   C     C_R   0.476283 0.613438 0.095426 -0.292526
C27   C     C_R   0.739366 0.295363 0.647094 -0.347586
C28   C     C_R   0.249733 0.695105 0.370723 -0.324983
C29   C     C_R   0.696016 0.209405 0.625415 0.120792
C30   C     C_R   0.297035 0.784737 0.384857 0.042314
C31   C     C_R   0.510276 0.281202 0.517484 0.045377
C32   C     C_R   0.490685 0.719341 0.482511 0.028174
C33   C     C_R   0.546868 0.369440 0.539305 -0.012211
C34   C     C_R   0.447490 0.625383 0.472056 -0.009285
C35   C     C_R   0.665505 0.375860 0.603873 0.150569
C36   C     C_R   0.324264 0.615120 0.414268 0.154622
C37   C     C_R   0.471511 0.451317 0.498569 0.078669
C38   C     C_R   0.520426 0.541480 0.517571 0.075294
C39   C     C_R   0.639308 0.543838 0.582610 -0.225294
C40   C     C_R   0.347326 0.444579 0.442238 -0.176807
C41   C     C_R   0.709725 0.462324 0.624987 -0.227614
C42   C     C_R   0.274880 0.524449 0.402134 -0.223655
C43   C     C_R   0.371007 0.121530 0.741726 0.514304
C44   C     C_R   0.660369 0.863779 0.258616 0.477424
C45   C     C_R   0.285133 0.065108 0.690859 -0.134245
C46   C     C_R   0.733336 0.924022 0.310660 -0.155561
C47   C     C_R   0.183803 0.108741 0.613725 0.048417
C48   C     C_R   0.819752 0.880506 0.401205 0.065410
C49   C     C_R   0.164445 0.208098 0.593188 -0.197155
C50   C     C_R   0.834035 0.776953 0.437399 -0.196693
C51   C     C_R   0.245446 0.263016 0.646649 -0.218133
C52   C     C_R   0.766055 0.718447 0.383426 -0.205442
C53   C     C_R   0.349818 0.221476 0.718642 -0.234586
C54   C     C_R   0.680680 0.761655 0.294144 -0.208255
C55   C     C_R   0.963279 0.049482 0.550442 -0.240806
C56   C     C_R   0.037843 0.945549 0.457789 -0.243088
Cu1   Cu    Cu3+1 0.466270 0.918260 0.475690 0.929561
Cu2   Cu    Cu3+1 0.533730 0.081740 0.524310 0.952782
H1    H     H_    0.414744 0.268698 0.753948 0.142841
H2    H     H_    0.630549 0.715696 0.252378 0.132661
H3    H     H_    0.307542 0.184475 0.971455 0.126404
H4    H     H_    0.573576 0.809501 0.032577 0.163143
H5    H     H_    0.581866 0.733490 0.526289 0.132274
H6    H     H_    0.425332 0.272195 0.464841 0.131070
H7    H     H_    0.238562 0.845943 0.352830 0.129096
H8    H     H_    0.752600 0.146879 0.658888 0.117656
H9    H     H_    0.829755 0.298755 0.697550 0.135848
H10   H     H_    0.154943 0.687967 0.327002 0.147292
H11   H     H_    0.300310 0.988002 0.709215 0.127326
H12   H     H_    0.723348 0.004231 0.280406 0.127325
H13   H     H_    0.086922 0.243713 0.534879 0.142382
H14   H     H_    0.901057 0.742255 0.506145 0.141695
H15   H     H_    0.229720 0.339556 0.629755 0.174069
H16   H     H_    0.780456 0.639590 0.410364 0.171498
H17   H     H_    0.934041 0.087618 0.589004 0.154358
H18   H     H_    0.066129 0.906085 0.420035 0.160613
H19   H     H_    0.286404 0.357182 0.842031 0.159649
H20   H     H_    0.487291 0.644298 0.152054 0.153112
H21   H     H_    0.594404 0.925605 0.856921 0.196800
H22   H     H_    0.370119 0.069159 0.148823 0.155796
N1    N     N_R   0.584450 0.204570 0.560790 -0.177605
N2    N     N_R   0.415550 0.795430 0.439210 -0.190460
O1    O     O_R   0.455540 0.022090 0.338120 -0.593350
O2    O     O_R   0.544460 0.977910 0.661880 -0.563502
O3    O     O_R   0.512510 0.160150 0.379180 -0.581684
O4    O     O_R   0.487490 0.839850 0.620820 -0.580753
O5    O     O_R   0.291160 0.930970 0.479480 -0.592401
O6    O     O_R   0.708840 0.069030 0.520520 -0.594811
O7    O     O_R   0.348130 0.069020 0.520540 -0.582269
O8    O     O_R   0.651870 0.930980 0.479460 -0.584829
O9    O     O_3   0.297611 0.551983 0.771516 -0.626369
C57   C     C_3   0.195425 0.598292 0.771214 0.066750
H23   H     H_    0.172161 0.657549 0.693236 0.173672
H24   H     H_    0.222183 0.638848 0.823277 0.138709
C58   C     C_3   0.074815 0.521455 0.796445 -0.380384
H25   H     H_    0.044588 0.485155 0.740725 0.218919
H26   H     H_    0.095258 0.460975 0.874086 0.216164
C59   C     C_3   0.965889 0.573742 0.793528 -0.934126
H27   H     H_    0.995752 0.612356 0.847264 0.263145
H28   H     H_    0.881902 0.516105 0.816836 0.257415
H29   H     H_    0.937466 0.630746 0.715243 0.251256
O10   O     O_3   0.389803 0.455543 0.212823 -0.628854
C60   C     C_3   0.254564 0.431058 0.194573 0.064440
H30   H     H_    0.224707 0.379819 0.268871 0.159116
H31   H     H_    0.223164 0.386793 0.145948 0.139331
C61   C     C_3   0.184802 0.526208 0.147942 -0.379508
H32   H     H_    0.225385 0.575538 0.190613 0.228846
H33   H     H_    0.198536 0.570917 0.067431 0.211343
C62   C     C_3   0.041510 0.497256 0.149567 -0.919042
H34   H     H_    0.999027 0.449952 0.104863 0.261043
H35   H     H_    0.994221 0.567430 0.115136 0.260264
H36   H     H_    0.023697 0.454073 0.229150 0.250371
H37   H     H_    0.800610 0.467311 0.674038 0.156554
H38   H     H_    0.178738 0.514913 0.361445 0.145733
H39   H     H_    0.680628 0.607485 0.603186 0.141464
H40   H     H_    0.301059 0.376433 0.431413 0.135880
O11   O     O_3   0.481567 0.080626 0.802623 -0.632042
C63   C     C_3   0.520091 0.100608 0.891886 0.012287
H41   H     H_    0.542475 0.027737 0.956379 0.199384
H42   H     H_    0.444617 0.126513 0.910998 0.120579
C64   C     C_3   0.642666 0.176323 0.884861 -0.334907
H43   H     H_    0.718659 0.145599 0.871836 0.220199
H44   H     H_    0.625734 0.250027 0.819872 0.223353
C65   C     C_3   0.688858 0.195181 0.982470 -0.892152
H45   H     H_    0.615750 0.228709 0.995409 0.269093
H46   H     H_    0.778606 0.249317 0.975564 0.246398
H47   H     H_    0.708158 0.122686 0.049012 0.274311
O12   O     O_3   0.577355 0.907172 0.168625 -0.647825
C66   C     C_3   0.450257 0.866691 0.185044 0.030949
H48   H     H_    0.424740 0.898435 0.233020 0.177384
H49   H     H_    0.437379 0.781839 0.222837 0.148859
C67   C     C_3   0.357826 0.897224 0.083510 -0.363049
H50   H     H_    0.363180 0.981330 0.046078 0.206450
H51   H     H_    0.384442 0.869721 0.032489 0.227459
C68   C     C_3   0.220145 0.852546 0.098667 -0.921206
H52   H     H_    0.210921 0.767983 0.133897 0.256318
H53   H     H_    0.155616 0.876640 0.023681 0.258082
H54   H     H_    0.190129 0.880234 0.148195 0.250074
H55   H     H_    0.471341 0.677363 0.762216 0.208294
H56   H     H_    0.503103 0.323949 0.233466 0.197624

loop_
_geom_bond_atom_site_label_1
_geom_bond_atom_site_label_2
_ccdc_geom_bond_type
C68   H54   S    
C56   H18   S    
C27   C29   A    
C5    C56   A    
C36   C42   A    
C58   H25   S    
C18   C26   A    
C6    C55   A    
O12   C66   S    
C53   H1    S    
C58   C59   S    
C68   H52   S    
C39   C41   A    
C54   H2    S    
C15   C19   A    
C26   H20   S    
C25   H19   S    
C28   H10   S    
C37   C40   A    
C52   H16   S    
C62   H35   S    
C38   C39   A    
C61   H32   S    
C12   H21   S    
Cu1   O4    S    
C15   C17   A    
C50   H14   S    
C63   H41   S    
C64   C65   S    
C1    C7    S    
C3    C55   A    
C42   H38   S    
C2    O2    A    
C19   C20   A    
C44   C46   A    
C67   H50   S    
C49   C51   A    
C50   C52   A    
Cu1   O1    S    
C14   C16   A    
C16   C20   A    
C66   C67   S    
C55   H17   S    
C48   C50   A    
C23   O5    A    
C4    C56   A    
C3    C24   S    
C10   H4    S    
C22   O10   S    
C52   C54   A    
C45   C47   A    
C1    O3    A    
C5    C48   S    
C46   C48   A    
C46   H12   S    
Cu1   O8    S    
C45   H11   S    
C13   H56   S    
C19   C22   A    
C4    C6    A    
C6    C47   S    
C62   H36   S    
O9    C57   S    
C4    C23   S    
C27   C35   A    
C43   C53   A    
C57   C58   S    
C33   C37   A    
Cu1   O5    S    
Cu2   O6    S    
C51   C53   A    
C63   C64   S    
C32   C34   A    
C30   N2    A    
C7    C11   A    
C29   N1    A    
C37   C38   A    
Cu2   O2    S    
C9    C11   A    
C8    C12   A    
C57   H24   S    
C23   O7    A    
C60   H31   S    
C16   C18   A    
C20   C21   A    
C43   C45   A    
C64   H43   S    
C10   C12   A    
C43   O11   S    
C65   H47   S    
C9    C17   A    
C39   H39   S    
C13   C15   A    
C49   H13   S    
C9    H3    S    
Cu2   N1    S    
C1    O1    A    
Cu2   O3    S    
C65   H46   S    
C66   H48   S    
C21   O9    S    
C68   H53   S    
C21   C25   A    
C44   O12   S    
C31   C33   A    
C8    C14   A    
C34   C38   A    
C31   H6    S    
C24   O6    A    
C2    C8    S    
C51   H15   S    
C32   H5    S    
C41   H37   S    
C3    C5    A    
C24   O8    A    
C58   H26   S    
C47   C49   A    
C59   H29   S    
C32   N2    A    
C59   H28   S    
C31   N1    A    
C17   C25   A    
C28   C30   A    
O11   C63   S    
Cu1   Cu2   S    
C40   H40   S    
C61   H33   S    
C10   C18   A    
C67   C68   S    
C40   C42   A    
C57   H23   S    
C33   C35   A    
C2    O4    A    
C60   C61   S    
C34   C36   A    
O10   C60   S    
C35   C41   A    
Cu2   O7    S    
C63   H42   S    
C64   H44   S    
C30   H7    S    
C27   H9    S    
C11   H22   S    
C29   H8    S    
C44   C54   A    
C7    C13   A    
C14   H55   S    
C28   C36   A    
C67   H51   S    
C59   H27   S    
C22   C26   A    
C60   H30   S    
Cu1   N2    S    
C62   H34   S    
C65   H45   S    
C66   H49   S    
C61   C62   S    
