data_mof_unit_52722.cif
_audit_creation_date              2012-12-11T16:48:25-0500
_audit_creation_method            fapswitch 2.2
_symmetry_space_group_name_H-M    P1
_symmetry_Int_Tables_number       1
_space_group_crystal_system       triclinic
_cell_length_a                    17.512373
_cell_length_b                    24.534056
_cell_length_c                    15.033212
_cell_angle_alpha                 90.786865
_cell_angle_beta                  126.223439
_cell_angle_gamma                 89.689841
_cell_volume                      5210.08524573

loop_
_atom_site_label
_atom_site_type_symbol
_atom_type_description
_atom_site_fract_x
_atom_site_fract_y
_atom_site_fract_z
_atom_type_partial_charge
C1    C     C_R   0.344963 0.350908 0.906080 -0.074912
C2    C     C_R   0.545052 0.497000 0.721561 0.087207
C3    C     C_R   0.059480 0.848654 0.907421 -0.131169
C4    C     C_R   0.363931 0.323447 0.995470 0.025753
C5    C     C_R   0.610831 0.314014 0.002726 0.047781
C6    C     C_R   0.877318 0.817220 0.992035 0.024961
C7    C     C_R   0.120048 0.817813 0.999021 -0.030668
C8    C     C_2   0.303968 0.327167 0.795639 0.996902
C9    C     C_2   0.648689 0.327373 0.193137 0.969443
C10   C     C_2   0.831880 0.826635 0.797967 1.019922
C11   C     C_2   0.178305 0.825832 0.199386 0.970727
C12   C     C_2   0.506148 0.227284 0.816033 1.019966
C13   C     C_R   0.063747 0.998629 0.365967 0.037163
C14   C     C_2   0.437809 0.212776 0.091410 1.077708
C15   C     C_2   0.009296 0.716058 0.865267 1.069177
C16   C     C_2   0.969846 0.723015 0.152399 1.043905
C17   C     C_2   0.835941 0.270295 0.311744 1.115708
C18   C     C_2   0.110139 0.369866 0.805602 1.085700
C19   C     C_2   0.380536 0.836826 0.203683 1.088914
C20   C     C_2   0.622615 0.786522 0.690613 1.092919
C21   C     C_2   0.402305 0.753631 0.010617 1.095028
C22   C     C_2   0.566442 0.809177 0.891179 1.051878
C23   C     C_2   0.929787 0.254595 0.148590 1.062931
C24   C     C_R   0.045340 0.997885 0.721504 0.069937
C25   C     C_2   0.100267 0.321808 0.031401 1.053129
C26   C     C_2   0.690583 0.572999 0.746745 1.008634
C27   C     C_2   0.695912 0.575241 0.550974 1.060391
C28   C     C_2   0.182409 0.079166 0.740190 0.996998
C29   C     C_2   0.193433 0.079412 0.550212 1.055437
C30   C     C_2   0.227478 0.596884 0.648134 0.974991
C31   C     C_2   0.804451 0.597300 0.317376 0.941035
C32   C     C_2   0.704150 0.093606 0.658291 0.976763
C33   C     C_2   0.280827 0.097855 0.350064 0.964441
C34   C     C_R   0.185111 0.497733 0.646968 0.058976
C35   C     C_R   0.823714 0.499828 0.271278 0.015695
C36   C     C_R   0.674491 0.001931 0.714330 0.040439
C37   C     C_R   0.318477 0.998545 0.345352 0.051192
C38   C     C_2   0.981664 0.457646 0.354127 0.021093
C39   C     C_2   0.079439 0.462240 0.456461 -0.003132
C40   C     C_2   0.418395 0.969961 0.538433 0.028254
C41   C     C_R   0.635682 0.346300 0.091643 -0.141026
C42   C     C_2   0.514990 0.965913 0.642111 0.026202
C43   C     C_2   0.925439 0.501451 0.322368 -0.146246
C44   C     C_2   0.095421 0.494893 0.539044 -0.105212
C45   C     C_2   0.407258 0.996490 0.453355 -0.116286
C46   C     C_2   0.574478 0.007392 0.669002 -0.174023
C47   C     C_R   0.309828 0.721941 0.081000 0.089569
C48   C     C_R   0.673667 0.735176 0.905326 0.063831
C49   C     C_R   0.785811 0.204145 0.105833 0.083125
C50   C     C_R   0.150405 0.260505 0.936178 0.072946
C51   C     C_R   0.262520 0.677415 0.011276 0.050034
C52   C     C_R   0.856868 0.847690 0.905096 -0.171300
C53   C     C_R   0.705308 0.709301 0.002211 0.069391
C54   C     C_R   0.755703 0.176948 0.008851 0.053260
C55   C     C_R   0.188937 0.217512 0.008797 0.064068
C56   C     C_R   0.163988 0.674667 0.945308 -0.223008
C57   C     C_R   0.803361 0.703850 0.082523 -0.223339
C58   C     C_R   0.661771 0.182541 0.916947 -0.232430
C59   C     C_R   0.283250 0.201702 0.059423 -0.213981
C60   C     C_R   0.604459 0.222989 0.916296 -0.110856
C61   C     C_R   0.342234 0.233053 0.047529 -0.135100
C62   C     C_R   0.112665 0.719843 0.940322 -0.065676
C63   C     C_R   0.145554 0.847973 0.090782 -0.060656
C64   C     C_R   0.866863 0.732035 0.071818 -0.137551
C65   C     C_R   0.644064 0.258126 0.010260 0.015299
C66   C     C_R   0.305332 0.281279 0.987370 0.011090
C67   C     C_R   0.162631 0.767226 0.002783 -0.018784
C68   C     C_R   0.829680 0.766787 0.980790 0.049275
C69   C     C_R   0.404776 0.623311 0.093825 -0.110672
C70   C     C_R   0.569162 0.646071 0.909390 -0.085911
C71   C     C_R   0.907008 0.126844 0.093841 -0.081351
C72   C     C_R   0.062218 0.149640 0.911365 -0.079720
C73   C     C_R   0.730344 0.242408 0.109238 0.195318
C74   C     C_R   0.317405 0.637804 0.003511 0.012444
C75   C     C_R   0.208734 0.292455 0.926653 0.192343
C76   C     C_R   0.260628 0.765970 0.076702 0.215161
C77   C     C_R   0.734118 0.760384 0.890172 0.180553
C78   C     C_3   0.817719 0.273744 0.200302 -0.459617
C79   C     C_3   0.158506 0.344059 0.916981 -0.423721
C80   C     C_3   0.333720 0.805919 0.096021 -0.415741
C81   C     C_3   0.655993 0.798532 0.807677 -0.438402
C82   C     C_3   0.389818 0.756491 0.101662 -0.409561
C83   C     C_3   0.591663 0.771696 0.831755 -0.391253
C84   C     C_3   0.877343 0.231971 0.191372 -0.393348
C85   C     C_R   0.641171 0.673488 0.001740 0.033575
C86   C     C_3   0.093224 0.308744 0.928347 -0.360076
C87   C     C_R   0.550842 0.447891 0.584906 0.092674
C88   C     C_R   0.557001 0.447705 0.498702 0.125155
C89   C     C_R   0.059715 0.947991 0.591151 0.092708
C90   C     C_R   0.067620 0.947418 0.506034 0.119181
C91   C     C_R   0.580576 0.492737 0.655791 -0.015397
C92   C     C_R   0.587902 0.494087 0.475901 -0.028258
C93   C     C_R   0.083057 0.994207 0.657520 -0.013698
C94   C     C_R   0.093295 0.994728 0.479104 -0.037409
C95   C     C_R   0.635303 0.533923 0.652307 -0.176615
C96   C     C_R   0.822635 0.145748 0.003638 0.027739
C97   C     C_R   0.637781 0.535020 0.559074 -0.167527
C98   C     C_R   0.133633 0.037045 0.650898 -0.169264
C99   C     C_R   0.137871 0.037562 0.558942 -0.174947
C100  C     C_3   0.467591 0.414680 0.426258 -0.264809
C101  C     C_3   0.459882 0.415666 0.521936 -0.226060
C102  C     C_3   0.983081 0.910384 0.436427 -0.264389
C103  C     C_3   0.973105 0.912011 0.530284 -0.234055
C104  C     C_R   0.546722 0.453613 0.300544 -0.064304
C105  C     C_R   0.518984 0.452434 0.752889 -0.070354
C106  C     C_R   0.049145 0.953813 0.301855 -0.094775
C107  C     C_R   0.128144 0.178772 0.004954 0.019112
C108  C     C_R   0.019209 0.953007 0.752542 -0.053319
C109  C     C_R   0.239424 0.543875 0.700449 -0.119923
C110  C     C_R   0.768906 0.545124 0.255708 -0.069809
C111  C     C_R   0.731506 0.045511 0.730187 -0.135084
C112  C     C_R   0.263817 0.044560 0.294971 -0.069701
C113  C     C_R   0.546485 0.544419 0.303356 -0.107194
C114  C     C_R   0.515668 0.543817 0.746413 -0.084952
C115  C     C_R   0.047521 0.044482 0.303820 -0.102795
C116  C     C_R   0.015949 0.044407 0.747234 -0.070648
C117  C     C_R   0.237119 0.453255 0.707167 -0.015625
C118  C     C_R   0.560547 0.498398 0.364135 0.045623
C119  C     C_R   0.766248 0.454077 0.241870 0.006347
C120  C     C_R   0.731351 0.955307 0.751416 -0.003988
C121  C     C_R   0.264425 0.953464 0.287962 -0.016819
C122  C     C_R   0.310869 0.624924 0.909300 -0.040104
C123  C     C_R   0.658993 0.647674 0.092301 -0.075107
C124  C     C_R   0.816926 0.132146 0.910345 -0.085202
C125  C     C_R   0.153749 0.149077 0.094395 -0.085975
C126  C     C_R   0.431076 0.352101 0.090202 -0.130190
C127  C     C_R   0.556108 0.346538 0.910005 -0.069587
C128  C     C_R   0.937397 0.848420 0.087553 -0.056610
H1    H     H_    0.959534 0.540727 0.353434 0.201360
H2    H     H_    0.204413 0.372884 0.987129 0.164376
H3    H     H_    0.306163 0.832795 0.023887 0.176198
H4    H     H_    0.672664 0.842126 0.833035 0.142681
H5    H     H_    0.456730 0.748868 0.184515 0.192789
H6    H     H_    0.529471 0.749552 0.760740 0.176951
H7    H     H_    0.923101 0.206476 0.265801 0.178252
H8    H     H_    0.018813 0.306648 0.852971 0.185272
H9    H     H_    0.410293 0.436302 0.350859 0.171153
H10   H     H_    0.466368 0.375299 0.558638 0.168871
H11   H     H_    0.923602 0.928891 0.357998 0.173200
H12   H     H_    0.039500 0.519274 0.530330 0.159973
H13   H     H_    0.983845 0.872294 0.570991 0.168879
H14   H     H_    0.434541 0.630653 0.179579 0.120417
H15   H     H_    0.532219 0.657774 0.824384 0.123930
H16   H     H_    0.934438 0.130046 0.179436 0.115245
H17   H     H_    0.024462 0.162535 0.826771 0.127336
H18   H     H_    0.565726 0.412007 0.327651 0.152221
H19   H     H_    0.530770 0.409995 0.745014 0.106261
H20   H     H_    0.069638 0.912362 0.329177 0.159454
H21   H     H_    0.031814 0.910799 0.744783 0.104513
H22   H     H_    0.561859 0.586119 0.332859 0.138133
H23   H     H_    0.466015 0.016459 0.460844 0.182813
H24   H     H_    0.521441 0.585197 0.727833 0.115586
H25   H     H_    0.062133 0.086280 0.332495 0.160301
H26   H     H_    0.022594 0.086230 0.731354 0.114130
H27   H     H_    0.217144 0.411683 0.680506 0.127682
H28   H     H_    0.785652 0.412050 0.245242 0.141379
H29   H     H_    0.709503 0.914142 0.749422 0.140132
H30   H     H_    0.283710 0.911871 0.313866 0.131212
H31   H     H_    0.252645 0.634215 0.825866 0.124928
H32   H     H_    0.699952 0.664570 0.174383 0.146896
H33   H     H_    0.762777 0.145350 0.828508 0.121973
H34   H     H_    0.543393 0.047102 0.637600 0.199028
H35   H     H_    0.202348 0.161736 0.179166 0.151831
H36   H     H_    0.465070 0.340256 0.174808 0.126395
H37   H     H_    0.516565 0.333333 0.824986 0.135634
H38   H     H_    0.972746 0.835716 0.171868 0.129656
H39   H     H_    0.019964 0.835448 0.822361 0.167318
H40   H     H_    0.210968 0.274562 0.675043 0.348176
H41   H     H_    0.640318 0.266097 0.275005 0.346983
H42   H     H_    0.793666 0.762601 0.694172 0.371586
H43   H     H_    0.252027 0.768806 0.315984 0.339232
H44   H     H_    0.368444 0.232723 0.751774 0.350241
H45   H     H_    0.127653 0.639078 0.893389 0.148669
H46   H     H_    0.533679 0.198008 0.061118 0.353035
H47   H     H_    0.892247 0.678392 0.830928 0.358075
H48   H     H_    0.095756 0.716476 0.177802 0.346758
H49   H     H_    0.837933 0.223829 0.422841 0.340623
H50   H     H_    0.028087 0.360316 0.640127 0.337406
H51   H     H_    0.448628 0.834516 0.368441 0.334734
H52   H     H_    0.576971 0.730571 0.569155 0.359285
H53   H     H_    0.489346 0.735838 0.968557 0.332384
H54   H     H_    0.462312 0.845142 0.890473 0.337586
H55   H     H_    0.052957 0.256887 0.165473 0.334249
H56   H     H_    0.830313 0.676879 0.151432 0.195930
H57   H     H_    0.033238 0.349903 0.094915 0.329062
H58   H     H_    0.734511 0.650103 0.800531 0.337562
H59   H     H_    0.807009 0.587991 0.546214 0.355019
H60   H     H_    0.210031 0.158750 0.783423 0.344121
H61   H     H_    0.309751 0.096147 0.558045 0.345027
H62   H     H_    0.424328 0.336820 0.367890 0.163291
H63   H     H_    0.539806 0.341108 0.474957 0.147920
H64   H     H_    0.317261 0.425337 0.439032 0.138514
H65   H     H_    0.375100 0.484633 0.463792 0.136327
H66   H     H_    0.951185 0.830491 0.387686 0.151515
H67   H     H_    0.634742 0.157571 0.843916 0.161962
H68   H     H_    0.065236 0.840385 0.495393 0.153308
H69   H     H_    0.829188 0.915778 0.443936 0.157237
H70   H     H_    0.879741 0.977141 0.462428 0.143738
H71   H     H_    0.140558 0.648708 0.525088 0.353698
H72   H     H_    0.899125 0.658909 0.377305 0.346587
H73   H     H_    0.601225 0.140543 0.536071 0.355399
H74   H     H_    0.375836 0.154348 0.456498 0.348808
H75   H     H_    0.985421 0.396591 0.265696 0.120541
H76   H     H_    0.962266 0.376907 0.354323 0.155960
H77   H     H_    0.136635 0.388965 0.464075 0.125255
H78   H     H_    0.309580 0.163806 0.104341 0.173023
H79   H     H_    0.157036 0.438616 0.403660 0.118955
H80   H     H_    0.352969 0.901443 0.535796 0.112842
H81   H     H_    0.336991 0.956987 0.590582 0.164322
H82   H     H_    0.511144 0.916659 0.744805 0.128113
H83   H     H_    0.518931 0.884350 0.651880 0.142738
H84   H     H_    0.821894 0.315846 0.176750 0.152073
N1    N     N_R   0.395410 0.396350 0.944340 -0.068890
N2    N     N_R   0.474920 0.471030 0.794350 -0.049903
N3    N     N_R   0.025080 0.971030 0.205650 -0.047714
N4    N     N_R   0.974920 0.971030 0.794350 -0.041029
N5    N     N_R   0.320260 0.527820 0.794570 -0.071813
N6    N     N_R   0.679740 0.527820 0.205430 -0.067827
N7    N     N_R   0.820260 0.027820 0.794570 -0.065959
N8    N     N_R   0.179740 0.027820 0.205430 -0.074587
N9    N     N_R   0.524590 0.527840 0.205200 -0.054172
N10   N     N_R   0.475410 0.527840 0.794800 -0.049497
N11   N     N_R   0.024590 0.027840 0.205200 -0.053658
N12   N     N_R   0.604590 0.396350 0.055660 -0.072838
N13   N     N_R   0.975410 0.027840 0.794800 -0.048786
N14   N     N_R   0.320750 0.471000 0.795020 -0.059708
N15   N     N_R   0.679250 0.471000 0.204980 -0.042420
N16   N     N_R   0.820750 0.971000 0.795020 -0.046480
N17   N     N_R   0.179250 0.971000 0.204980 -0.056257
N18   N     N_R   0.393620 0.602490 0.942710 -0.040465
N19   N     N_R   0.606380 0.602490 0.057290 -0.057145
N20   N     N_R   0.893620 0.102490 0.942710 -0.048662
N21   N     N_R   0.106380 0.102490 0.057290 -0.050656
N22   N     N_R   0.451720 0.396350 0.057510 -0.054544
N23   N     N_R   0.895410 0.896350 0.944340 -0.072013
N24   N     N_R   0.548280 0.396350 0.942490 -0.054194
N25   N     N_R   0.951720 0.896350 0.057510 -0.049860
N26   N     N_R   0.048280 0.896350 0.942490 -0.052046
N27   N     N_3   0.485790 0.360086 0.402095 -0.208336
N28   N     N_3   0.378487 0.447103 0.498268 -0.192565
N29   N     N_3   0.009385 0.856415 0.419863 -0.201878
N30   N     N_3   0.887258 0.940262 0.501076 -0.183050
N31   N     N_3   0.947038 0.406435 0.296673 -0.208115
N32   N     N_3   0.154175 0.430124 0.469566 -0.199325
N33   N     N_3   0.339900 0.943325 0.526495 -0.189202
N34   N     N_R   0.104590 0.896350 0.055660 -0.061724
N35   N     N_3   0.545048 0.917527 0.706399 -0.209220
N36   N     N_R   0.449930 0.602500 0.055880 -0.044351
N37   N     N_R   0.550070 0.602500 0.944120 -0.041834
N38   N     N_R   0.949930 0.102500 0.055880 -0.043673
N39   N     N_R   0.050070 0.102500 0.944120 -0.048515
N40   N     N_R   0.525080 0.471030 0.205650 -0.048332
Ni1   Ni    Ni4+2 0.435420 0.434270 0.870230 0.266379
Ni2   Ni    Ni4+2 0.564580 0.434270 0.129770 0.272240
Ni3   Ni    Ni4+2 0.935420 0.934270 0.870230 0.279714
Ni4   Ni    Ni4+2 0.064580 0.934270 0.129770 0.261885
Ni5   Ni    Ni4+2 0.563430 0.564580 0.128740 0.274988
Ni6   Ni    Ni4+2 0.436570 0.564580 0.871260 0.280300
Ni7   Ni    Ni4+2 0.063430 0.064580 0.128740 0.277170
Ni8   Ni    Ni4+2 0.936570 0.064580 0.871260 0.279027
O1    O     O_2   0.333181 0.341963 0.743408 -0.675395
O2    O     O_R   0.432667 0.236611 0.825418 -0.744882
O3    O     O_2   0.483193 0.187455 0.177606 -0.625292
O4    O     O_R   0.473195 0.219255 0.029946 -0.737021
O5    O     O_2   0.966801 0.737117 0.774749 -0.650507
O6    O     O_R   0.961828 0.683105 0.893303 -0.746847
O7    O     O_2   0.002504 0.707697 0.245607 -0.630118
O8    O     O_R   0.029115 0.729443 0.119748 -0.776847
O9    O     O_2   0.862454 0.310679 0.371529 -0.652825
O10   O     O_R   0.823426 0.220817 0.346922 -0.762052
O11   O     O_2   0.118834 0.418833 0.799999 -0.653884
O12   O     O_R   0.234139 0.286809 0.751905 -0.776179
O13   O     O_R   0.055815 0.338137 0.709257 -0.753630
O14   O     O_2   0.383480 0.886597 0.204112 -0.647814
O15   O     O_R   0.420309 0.808959 0.302447 -0.762807
O16   O     O_2   0.619089 0.823073 0.633917 -0.668858
O17   O     O_R   0.597113 0.733402 0.647652 -0.740867
O18   O     O_2   0.335854 0.762685 0.915021 -0.620700
O19   O     O_R   0.490429 0.739173 0.036480 -0.792330
O20   O     O_2   0.628369 0.831112 0.978747 -0.622967
O21   O     O_R   0.471143 0.819307 0.844013 -0.793058
O22   O     O_2   0.889045 0.282817 0.066160 -0.611346
O23   O     O_2   0.670632 0.359930 0.266960 -0.649294
O24   O     O_R   0.025425 0.241829 0.203349 -0.779077
O25   O     O_2   0.176050 0.318571 0.122577 -0.656815
O26   O     O_R   0.019561 0.339558 0.021240 -0.756967
O27   O     O_2   0.730734 0.556647 0.840951 -0.625010
O28   O     O_R   0.695436 0.628198 0.729202 -0.734572
O29   O     O_2   0.677017 0.623782 0.542425 -0.584102
O30   O     O_R   0.770738 0.556945 0.549295 -0.774989
O31   O     O_2   0.227766 0.065236 0.836526 -0.628354
O32   O     O_R   0.174543 0.134468 0.715101 -0.748285
O33   O     O_2   0.168181 0.127019 0.534128 -0.573366
O34   O     O_R   0.631262 0.273206 0.203041 -0.793787
O35   O     O_R   0.274684 0.063878 0.559533 -0.814743
O36   O     O_2   0.295256 0.627627 0.687466 -0.644455
O37   O     O_R   0.139386 0.611609 0.553153 -0.785155
O38   O     O_2   0.763120 0.618325 0.352022 -0.636144
O39   O     O_R   0.883080 0.623284 0.334687 -0.803391
O40   O     O_2   0.766117 0.120844 0.665872 -0.636481
O41   O     O_R   0.609272 0.107128 0.579786 -0.792544
O42   O     O_2   0.214315 0.123793 0.334808 -0.638772
O43   O     O_R   0.373193 0.117749 0.422621 -0.778530
O44   O     O_2   0.828405 0.857739 0.732864 -0.632885
O45   O     O_R   0.814746 0.771197 0.771829 -0.795029
O46   O     O_2   0.154612 0.848251 0.252610 -0.688953
O47   O     O_R   0.234221 0.779076 0.240821 -0.791103
O48   O     O_2   0.488623 0.219841 0.725007 -0.641565

loop_
_geom_bond_atom_site_label_1
_geom_bond_atom_site_label_2
_ccdc_geom_bond_type
C55   C59   A    
N1    Ni1   S    
C114  H24   S    
H49   O10   S    
N12   Ni2   S    
N21   Ni7   S    
C23   O24   S    
H70   N30   S    
N13   Ni8   S    
C47   C76   A    
C87   C91   A    
C10   O44   D    
C126  H36   S    
H42   O45   S    
C58   C60   A    
C58   H67   S    
C9    O23   D    
C100  N27   S    
C25   O26   S    
C9    O34   S    
N2    N10   A    
N24   Ni1   S    
H77   N32   S    
C116  H26   S    
N5    N14   A    
C18   O13   S    
C11   O46   D    
C115  H25   S    
C101  N28   S    
H63   N27   S    
H60   O32   S    
H69   N30   S    
C23   C84   S    
C29   C99   S    
C30   C109  S    
N8    Ni7   S    
C11   O47   S    
C28   O32   S    
C17   O9    D    
H53   O19   S    
H52   O17   S    
C69   H14   S    
C79   H2    S    
C45   H23   S    
C20   O16   D    
N39   Ni8   S    
H51   O15   S    
C127  H37   S    
C36   C111  A    
C69   C74   A    
C12   O2    S    
C70   N37   A    
C113  N9    A    
C13   C115  A    
C14   O4    S    
C37   C121  A    
C59   H78   S    
C60   C65   A    
N4    Ni3   S    
C56   C62   A    
C37   C45   S    
C78   H84   S    
H76   N31   S    
C124  H33   S    
C23   O22   D    
C68   C77   A    
C27   C97   S    
N6    Ni5   S    
C13   C106  A    
C95   C97   A    
H68   N29   S    
C9    C41   S    
C13   C94   S    
C38   C43   D    
C4    C66   S    
C2    C114  A    
C17   C78   S    
C12   O48   D    
C31   C110  S    
C85   C123  A    
C102  H11   S    
C27   O30   S    
N12   N24   A    
C19   C80   S    
C100  H9    S    
H48   O8    S    
C26   O27   D    
C98   C99   A    
C53   C85   S    
C6    C52   A    
C21   O18   D    
C75   C79   S    
H61   O35   S    
N11   Ni7   S    
C84   H7    S    
C104  N40   A    
C32   C111  S    
C1    C8    S    
N25   Ni4   S    
N37   Ni6   S    
C15   O6    S    
H41   O34   S    
C40   N33   S    
C3    H39   S    
C38   N31   S    
N19   Ni5   S    
C70   H15   S    
N8    N17   A    
C64   C68   A    
C49   C84   S    
C11   C63   S    
C21   O19   S    
N36   Ni5   S    
C38   C39   S    
C22   O20   D    
H64   N28   S    
C72   H17   S    
H83   N35   S    
C92   C118  S    
C90   C102  S    
C87   C101  S    
C117  H27   S    
C36   C46   S    
N7    N16   A    
C35   C43   S    
N22   Ni2   S    
C40   C42   S    
C89   C103  S    
C111  N7    A    
C103  H13   S    
H47   O6    S    
C81   C83   S    
C92   C97   A    
C48   C53   A    
C117  N14   A    
C59   C61   A    
C121  N17   A    
C104  H18   S    
C43   H1    S    
C107  C125  A    
C80   C82   S    
C29   O33   D    
C48   C77   A    
H57   O26   S    
N9    N40   A    
C112  N8    A    
N10   Ni6   S    
C7    C63   A    
H50   O13   S    
C24   C116  A    
C121  H30   S    
N19   N37   A    
N38   Ni7   S    
C105  N2    A    
C113  H22   S    
C76   C80   S    
C39   C44   D    
C48   C83   S    
C4    C126  A    
N26   Ni3   S    
C22   C83   S    
N23   Ni3   S    
C8    O12   S    
H59   O30   S    
C24   C93   S    
N34   Ni4   S    
C100  C101  S    
C72   N39   A    
C89   C93   A    
C102  C103  S    
C126  N22   A    
C16   O7    D    
C109  N5    A    
C3    N26   A    
C91   C95   A    
C21   C82   S    
N7    Ni8   S    
C8    O1    D    
C70   C85   A    
C57   H56   S    
N2    Ni1   S    
C87   C88   A    
C119  H28   S    
H66   N29   S    
C51   C74   S    
C10   C52   S    
C29   O35   S    
C32   O40   D    
C30   O36   D    
C115  N11   A    
C3    C7    A    
C33   O43   S    
C19   O14   D    
C103  N30   S    
C42   C46   D    
C83   H6    S    
N14   Ni1   S    
C18   C79   S    
C122  H31   S    
H71   O37   S    
C24   C108  A    
C120  N16   A    
H74   O43   S    
C44   H12   S    
C80   H3    S    
C90   C94   A    
N15   Ni2   S    
C104  C118  A    
C40   C45   D    
H72   O39   S    
C53   C57   A    
C47   C51   A    
C71   C96   A    
C10   O45   S    
N5    Ni6   S    
H65   N28   S    
C26   O28   S    
C31   O38   D    
N16   Ni3   S    
C32   O41   S    
C77   C81   S    
N26   N34   A    
C106  H20   S    
C33   C112  S    
C27   O29   D    
C88   C100  S    
C35   C110  A    
C74   C122  A    
C1    N1    A    
C120  H29   S    
N1    N22   A    
H81   N33   S    
N6    N15   A    
N17   Ni4   S    
N21   N39   A    
N40   Ni2   S    
C28   C98   S    
C28   O31   D    
C17   O10   S    
C15   O5    D    
C101  H10   S    
C116  N13   A    
N4    N13   A    
C56   H45   S    
C82   H5    S    
C128  N25   A    
C50   C75   A    
C66   C75   A    
C15   C62   S    
C36   C120  A    
C14   O3    D    
C6    C128  A    
C123  N19   A    
N20   Ni8   S    
C89   C90   A    
H79   N32   S    
C79   C86   S    
C52   N23   A    
C71   H16   S    
C35   C119  A    
H54   O21   S    
C119  N15   A    
C106  N3    A    
H43   O47   S    
C127  N24   A    
C62   C67   A    
H40   O12   S    
H75   N31   S    
C123  H32   S    
C49   C54   A    
C105  H19   S    
C65   C73   A    
C51   C56   A    
C47   C82   S    
H80   N33   S    
C25   C86   S    
C37   C112  A    
C61   C66   A    
C19   O15   S    
N18   Ni6   S    
C73   C78   S    
C71   N38   A    
C54   C96   S    
C34   C117  A    
C6    C68   S    
C20   C81   S    
C128  H38   S    
N23   N25   A    
C5    C127  A    
C125  H35   S    
H82   N35   S    
N9    Ni5   S    
C18   O11   D    
H73   O41   S    
H55   O24   S    
C122  N18   A    
C42   N35   S    
C96   C124  A    
C41   N12   A    
C88   C92   A    
C34   C44   S    
C20   O17   S    
C5    C65   S    
C81   H4    S    
C14   C61   S    
C7    C67   S    
C114  N10   A    
C108  H21   S    
C55   C107  S    
C69   N36   A    
C72   C107  A    
C102  N29   S    
C108  N4    A    
C16   O8    S    
C31   O39   S    
C86   H8    S    
N20   N38   A    
C2    C91   S    
N18   N36   A    
C57   C64   A    
C39   N32   S    
C54   C58   A    
C26   C95   S    
C63   N34   A    
C5    C41   A    
C25   O25   D    
H62   N27   S    
C22   O21   S    
N3    N11   A    
C30   O37   S    
C124  N20   A    
C2    C105  A    
C50   C55   A    
C1    C4    A    
H58   O28   S    
C33   O42   D    
C94   C99   A    
N3    Ni4   S    
C49   C73   A    
H44   O2    S    
C110  N6    A    
C125  N21   A    
C50   C86   S    
H46   O4    S    
C113  C118  A    
C12   C60   S    
C78   C84   S    
C46   H34   S    
C34   C109  A    
C67   C76   A    
C16   C64   S    
C93   C98   A    
