data_mof_unit_27999.cif
_audit_creation_date              2012-12-10T16:55:01-0500
_audit_creation_method            fapswitch 2.2
_symmetry_space_group_name_H-M    P1
_symmetry_Int_Tables_number       1
_space_group_crystal_system       triclinic
_cell_length_a                    9.695269
_cell_length_b                    10.929542
_cell_length_c                    15.532596
_cell_angle_alpha                 90.034118
_cell_angle_beta                  73.88259
_cell_angle_gamma                 89.898198
_cell_volume                      1581.21297275

loop_
_atom_site_label
_atom_site_type_symbol
_atom_type_description
_atom_site_fract_x
_atom_site_fract_y
_atom_site_fract_z
_atom_type_partial_charge
C1    C     C_R   0.999051 0.265468 0.502539 0.825086
C2    C     C_R   0.669232 0.525836 0.905710 0.092155
C3    C     C_R   0.766316 0.566532 0.953077 0.167679
C4    C     C_R   0.519938 0.516163 0.950801 0.067377
C5    C     C_R   0.472064 0.536988 0.044966 0.066520
C6    C     C_R   0.572677 0.578419 0.089371 -0.222899
C7    C     C_R   0.716546 0.593360 0.043986 -0.239308
C8    C     C_R   0.416577 0.489208 0.904584 -0.220470
C9    C     C_R   0.272406 0.476105 0.949652 -0.241644
C10   C     C_R   0.225518 0.487746 0.042359 0.168420
C11   C     C_R   0.324711 0.517176 0.091263 0.092569
C12   C     C_R   0.916900 0.501744 0.672057 0.796004
C13   C     C_R   0.080033 0.468852 0.086842 -0.215263
C14   C     C_R   0.031697 0.476175 0.179822 -0.194377
C15   C     C_R   0.273516 0.521315 0.185234 -0.259768
C16   C     C_2   0.888695 0.933417 0.508932 -0.266026
C17   C     C_2   0.008923 0.865659 0.481312 0.299094
C18   C     C_2   0.888301 0.066690 0.500907 -0.150056
C19   C     C_2   0.997472 0.133942 0.511458 -0.261028
C20   C     C_2   0.398151 0.432948 0.554002 -0.067035
C21   C     C_2   0.554614 0.430398 0.552264 -0.067017
C22   C     C_R   0.001525 0.734429 0.496385 0.737691
C23   C     C_R   0.083068 0.500362 0.327892 0.785838
C24   C     C_R   0.870303 0.514739 0.769902 -0.051517
C25   C     C_R   0.128840 0.500388 0.229518 -0.055752
C26   C     C_R   0.912591 0.581370 0.908692 -0.218339
C27   C     C_R   0.964280 0.556150 0.817497 -0.198602
C28   C     C_R   0.725475 0.496097 0.814624 -0.244505
Cu1   Cu    Cu3+1 0.138640 0.500020 0.499980 0.949325
Cu2   Cu    Cu3+1 0.861360 0.499980 0.500020 0.934285
H1    H     H_    0.789612 0.625915 0.080594 0.145761
H2    H     H_    0.003944 0.446107 0.049795 0.143133
H3    H     H_    0.785367 0.889724 0.536923 0.144559
H4    H     H_    0.793628 0.109769 0.489824 0.166209
H5    H     H_    0.087302 0.092606 0.529564 0.202083
H6    H     H_    0.325256 0.374968 0.602586 0.148007
H7    H     H_    0.414626 0.551543 0.453207 0.193316
H8    H     H_    0.585847 0.367681 0.597641 0.147226
H9    H     H_    0.623897 0.560646 0.459508 0.190257
H10   H     H_    0.345017 0.536798 0.226049 0.150904
H11   H     H_    0.919340 0.459583 0.212816 0.157779
H12   H     H_    0.197287 0.454808 0.911528 0.146742
H13   H     H_    0.986539 0.615005 0.944208 0.140268
H14   H     H_    0.076604 0.571949 0.783926 0.156587
H15   H     H_    0.659001 0.457765 0.776380 0.144122
H16   H     H_    0.543450 0.603903 0.159061 0.139625
H17   H     H_    0.442469 0.480425 0.832837 0.141577
N1    N     N_2   0.346430 0.498660 0.500980 -0.277614
N2    N     N_2   0.652550 0.498630 0.501000 -0.279000
O1    O     O_R   0.117050 0.321960 0.499980 -0.570617
O2    O     O_R   0.882890 0.321920 0.500020 -0.573081
O3    O     O_R   0.052910 0.500040 0.629810 -0.580427
O4    O     O_R   0.818750 0.499990 0.629840 -0.576547
O5    O     O_R   0.117110 0.678080 0.499980 -0.549631
O6    O     O_R   0.882950 0.678040 0.500020 -0.600138
O7    O     O_R   0.181250 0.500010 0.370160 -0.584445
O8    O     O_R   0.947090 0.499960 0.370190 -0.579533
O9    O     O_3   0.140293 0.918003 0.438374 -0.575253
C29   C     C_3   0.176487 0.887344 0.346441 0.078968
H18   H     H_    0.089289 0.914423 0.316151 0.139579
H19   H     H_    0.197728 0.787452 0.336363 0.136762
C30   C     C_3   0.312140 0.955507 0.297489 -0.771908
H20   H     H_    0.401882 0.929397 0.325333 0.246034
H21   H     H_    0.341863 0.931980 0.225083 0.198318
H22   H     H_    0.293902 0.055782 0.305210 0.251940

loop_
_geom_bond_atom_site_label_1
_geom_bond_atom_site_label_2
_ccdc_geom_bond_type
C8    C9    A    
C2    C4    A    
Cu2   O2    S    
C22   O6    A    
Cu1   O7    S    
C16   H3    S    
C18   H4    S    
Cu2   O6    S    
C12   C24   S    
C13   H2    S    
C30   H21   S    
C12   O4    A    
C24   C27   A    
C17   O9    S    
C4    C8    A    
Cu1   O5    S    
C30   H20   S    
C21   N2    D    
C2    C3    A    
C9    H12   S    
C8    H17   S    
C23   O7    A    
C22   O5    A    
C19   H5    S    
C13   C14   A    
H7    N1    S    
C1    O2    A    
C26   C27   A    
Cu1   Cu2   S    
C14   H11   S    
C9    C10   A    
C12   O3    A    
Cu2   N2    S    
C26   H13   S    
C5    C11   A    
C6    C7    A    
C3    C7    A    
Cu1   O1    S    
C23   C25   S    
C14   C25   A    
C6    H16   S    
C5    C6    A    
C15   H10   S    
Cu2   O4    S    
C28   H15   S    
C15   C25   A    
C7    H1    S    
C10   C11   A    
Cu1   N1    S    
C20   H6    S    
Cu2   O8    S    
C29   H18   S    
C20   C21   S    
C16   C18   S    
C18   C19   D    
C1    O1    A    
C29   H19   S    
C23   O8    A    
C17   C22   S    
C16   C17   D    
C29   C30   S    
C2    C28   A    
C20   N1    D    
C30   H22   S    
H9    N2    S    
O9    C29   S    
C1    C19   S    
C11   C15   A    
C27   H14   S    
C10   C13   A    
C3    C26   A    
C21   H8    S    
C24   C28   A    
C4    C5    A    
Cu1   O3    S    
