data_mof_unit_44170.cif
_audit_creation_date              2012-12-10T17:09:56-0500
_audit_creation_method            fapswitch 2.2
_symmetry_space_group_name_H-M    P1
_symmetry_Int_Tables_number       1
_space_group_crystal_system       triclinic
_cell_length_a                    10.833317
_cell_length_b                    13.001249
_cell_length_c                    11.782713
_cell_angle_alpha                 99.612706
_cell_angle_beta                  93.034486
_cell_angle_gamma                 93.328438
_cell_volume                      1630.1834072

loop_
_atom_site_label
_atom_site_type_symbol
_atom_type_description
_atom_site_fract_x
_atom_site_fract_y
_atom_site_fract_z
_atom_type_partial_charge
C1    C     C_R   0.498504 0.299341 0.478638 0.814455
C2    C     C_R   0.066328 0.507548 0.609004 0.088426
C3    C     C_R   0.128524 0.515959 0.507162 -0.114585
C4    C     C_R   0.058733 0.512867 0.402920 -0.210836
C5    C     C_R   0.930842 0.500761 0.399065 -0.203752
C6    C     C_R   0.870613 0.482129 0.496485 -0.092179
C7    C     C_R   0.503655 0.814101 0.532981 -0.056712
C8    C     C_R   0.499415 0.185885 0.465710 -0.100987
C9    C     C_R   0.498905 0.016034 0.342199 0.172682
C10   C     C_R   0.497642 0.124735 0.355645 -0.191112
C11   C     C_R   0.502776 0.138621 0.563724 -0.275540
C12   C     C_R   0.262885 0.507648 0.502340 0.808729
C13   C     C_R   0.503711 0.030727 0.552785 0.135724
C14   C     C_R   0.501578 0.968325 0.441758 0.154945
C15   C     C_R   0.501799 0.859969 0.433621 -0.262225
C16   C     C_R   0.506402 0.876742 0.642166 -0.199844
C17   C     C_R   0.506464 0.984589 0.651982 -0.196596
C18   C     C_R   0.365039 0.416595 0.026021 -0.321756
C19   C     C_R   0.379642 0.422884 0.146729 0.036612
C20   C     C_R   0.565691 0.530723 0.153476 0.348625
C21   C     C_R   0.560824 0.516408 0.029627 0.011238
C22   C     C_R   0.454336 0.465406 0.966595 -0.008037
C23   C     C_R   0.502191 0.700657 0.521255 0.789919
C24   C     C_R   0.440568 0.463650 0.845288 -0.065351
C25   C     C_R   0.627789 0.569616 0.851792 0.369169
C26   C     C_R   0.655951 0.555303 0.966204 0.087025
C27   C     C_R   0.736663 0.491284 0.498330 0.792325
C28   C     C_R   0.121633 0.531644 0.722926 0.154535
C29   C     C_R   0.076405 0.477154 0.806856 -0.196357
C30   C     C_R   0.967710 0.411702 0.782308 0.183239
C31   C     C_R   0.895117 0.414788 0.680888 -0.173993
C32   C     C_R   0.941799 0.468771 0.596085 0.012261
Cu1   Cu    Cu3+1 0.509250 0.507730 0.615930 0.925481
Cu2   Cu    Cu3+1 0.490750 0.492270 0.384070 0.932177
H1    H     H_    0.102780 0.520303 0.323982 0.163563
H2    H     H_    0.495508 0.161786 0.279794 0.163515
H3    H     H_    0.504287 0.185709 0.649016 0.162577
H4    H     H_    0.361642 0.420312 0.795641 0.151796
H5    H     H_    0.123315 0.488314 0.891993 0.149476
H6    H     H_    0.806223 0.370582 0.665625 0.163014
H7    H     H_    0.879736 0.503772 0.318939 0.155588
H8    H     H_    0.500223 0.810534 0.350009 0.173095
H9    H     H_    0.507992 0.842516 0.719933 0.158831
N1    N     N_R   0.523180 0.519350 0.790130 -0.202023
N2    N     N_R   0.476820 0.480650 0.209890 -0.181051
O1    O     O_R   0.506570 0.354460 0.582000 -0.585673
O2    O     O_R   0.490940 0.341410 0.386200 -0.586738
O3    O     O_R   0.327470 0.506530 0.597920 -0.572836
O4    O     O_R   0.311840 0.493480 0.402120 -0.589291
O5    O     O_R   0.509060 0.658590 0.613800 -0.598097
O6    O     O_R   0.493430 0.645540 0.418000 -0.597460
O7    O     O_R   0.688160 0.506520 0.597880 -0.584733
O8    O     O_R   0.672530 0.493470 0.402080 -0.587290
H10   H     H_    0.508251 0.031917 0.737089 0.135530
C33   C     C_3   0.715889 0.643943 0.803543 -0.775528
H11   H     H_    0.800465 0.605703 0.775484 0.231066
H12   H     H_    0.676497 0.677465 0.732374 0.256896
H13   H     H_    0.744498 0.712720 0.871190 0.190072
H14   H     H_    0.284027 0.373608 0.979443 0.144565
C34   C     C_3   0.791101 0.566886 0.010530 -0.907843
H15   H     H_    0.854211 0.553499 0.939752 0.252869
H16   H     H_    0.816590 0.646770 0.058646 0.239832
H17   H     H_    0.811199 0.505473 0.062477 0.232226
H18   H     H_    0.310598 0.383397 0.190226 0.134351
C35   C     C_3   0.658939 0.613654 0.219680 -0.795979
H19   H     H_    0.646606 0.639134 0.309635 0.268987
H20   H     H_    0.752272 0.585504 0.221907 0.203340
H21   H     H_    0.657448 0.685955 0.181136 0.193895
C36   C     C_3   0.205929 0.628972 0.762507 -0.806386
H22   H     H_    0.160259 0.682722 0.828258 0.212219
H23   H     H_    0.294463 0.610056 0.802428 0.247036
H24   H     H_    0.224910 0.671829 0.690611 0.228135
C37   C     C_3   0.928313 0.342358 0.865600 -0.884717
H25   H     H_    0.990988 0.277503 0.862419 0.234433
H26   H     H_    0.934835 0.386590 0.954851 0.229324
H27   H     H_    0.831720 0.308508 0.844098 0.238802
C38   C     C_3   0.497322 0.953574 0.221886 -0.909281
H28   H     H_    0.495729 0.004529 0.155023 0.233938
H29   H     H_    0.581583 0.908915 0.212588 0.231981
H30   H     H_    0.413443 0.898673 0.204990 0.236269

loop_
_geom_bond_atom_site_label_1
_geom_bond_atom_site_label_2
_ccdc_geom_bond_type
C6    C32   A    
C33   H11   S    
C1    C8    S    
C37   H25   S    
C28   C36   S    
C12   O3    A    
C12   O4    A    
C38   H28   S    
Cu1   O7    S    
Cu2   O6    S    
C34   H17   S    
C2    C32   A    
C28   C29   A    
C30   C31   A    
C1    O1    A    
C31   H6    S    
C34   H16   S    
C18   C19   A    
C11   H3    S    
C3    C12   S    
C6    C27   S    
C16   C17   A    
C35   H20   S    
C24   H4    S    
C9    C10   A    
C20   N2    A    
C7    C15   A    
C4    H1    S    
C13   C14   A    
Cu1   O1    S    
C37   H26   S    
C25   N1    A    
C21   C26   A    
C38   H29   S    
C36   H23   S    
C20   C35   S    
C30   C37   S    
C1    O2    A    
C23   O5    A    
C25   C26   A    
C34   H15   S    
C36   H24   S    
C9    C14   A    
C29   C30   A    
C23   O6    A    
C31   C32   A    
C19   H18   S    
C35   H21   S    
C29   H5    S    
C19   N2    A    
Cu1   Cu2   S    
Cu2   N2    S    
C9    C38   S    
C16   H9    S    
C7    C16   A    
C33   H12   S    
C24   N1    A    
C37   H27   S    
C22   C24   A    
C3    C4    A    
C27   O7    A    
C38   H30   S    
C5    H7    S    
Cu2   O4    S    
C18   C22   A    
Cu1   N1    S    
C25   C33   S    
C15   H8    S    
C4    C5    A    
C2    C28   A    
C27   O8    A    
C13   C17   A    
C2    C3    A    
Cu1   O5    S    
C11   C13   A    
C5    C6    A    
C8    C11   A    
C7    C23   S    
C36   H22   S    
C18   H14   S    
C20   C21   A    
Cu2   O8    S    
C8    C10   A    
C35   H19   S    
C33   H13   S    
Cu1   O3    S    
C14   C15   A    
C10   H2    S    
Cu2   O2    S    
C21   C22   A    
C26   C34   S    
C17   H10   S    
