data_mof_unit_55284.cif
_audit_creation_date              2013-03-05T15:41:11-0500
_audit_creation_method            fapswitch 2.2
_symmetry_space_group_name_H-M    P1
_symmetry_Int_Tables_number       1
_space_group_crystal_system       triclinic
_cell_length_a                    15.855146
_cell_length_b                    8.687993
_cell_length_c                    7.509936
_cell_angle_alpha                 103.344196
_cell_angle_beta                  94.240324
_cell_angle_gamma                 92.543798
_cell_volume                      1001.78905707

loop_
_atom_site_label
_atom_site_type_symbol
_atom_site_description
_atom_site_fract_x
_atom_site_fract_y
_atom_site_fract_z
_atom_type_partial_charge
O1    O     O_R   0.506050 0.286130 0.619770 -0.556952
O2    O     O_R   0.490330 0.256780 0.308370 -0.572189
C1    C     C_R   0.497408 0.199813 0.453075 0.879775
O3    O     O_R   0.387300 0.514690 0.655770 -0.535916
O4    O     O_R   0.371580 0.485340 0.344370 -0.532024
C2    C     C_R   0.340506 0.499513 0.502121 0.822132
Cu1   Cu    Cu3+1 0.509300 0.517380 0.684380 1.050282
Cu2   Cu    Cu3+1 0.490700 0.482620 0.315620 1.061775
O5    O     O_R   0.509670 0.743220 0.691630 -0.583609
O6    O     O_R   0.493950 0.713870 0.380230 -0.595192
O7    O     O_R   0.628420 0.514660 0.655630 -0.571782
O8    O     O_R   0.612700 0.485310 0.344230 -0.607611
C3    C     C_R   0.502651 0.800181 0.546907 0.850549
C4    C     C_R   0.659463 0.500145 0.497843 0.789303
C5    C     C_3   0.051427 0.416811 0.658245 0.143005
C6    C     C_3   0.040728 0.404592 0.312794 0.136943
C7    C     C_3   0.942614 0.413289 0.307857 -0.454339
H1    H     H_    0.934041 0.273342 0.574935 0.126111
H2    H     H_    0.062776 0.467241 0.209561 0.208290
C8    C     C_1   0.748855 0.498826 0.493836 -0.099775
C9    C     C_3   0.083117 0.495686 0.505645 -0.029301
C10   C     C_3   0.952191 0.400661 0.639273 0.157399
C11   C     C_3   0.916698 0.496114 0.500166 0.047028
C12   C     C_3   0.957521 0.668541 0.548287 -0.327738
C13   C     C_3   0.054565 0.667912 0.536693 -0.381281
C14   C     C_1   0.824392 0.497651 0.494877 0.039644
C15   C     C_1   0.175473 0.497344 0.506957 0.060531
C16   C     C_1   0.251030 0.498594 0.506254 -0.016807
H3    H     H_    0.071380 0.719605 0.420392 0.214260
C17   C     C_2   0.496010 0.031476 0.427219 -0.333313
C18   C     C_2   0.504226 0.968506 0.572708 -0.307466
N1    N     N_2   0.476670 0.456430 0.038530 0.009178
N2    N     N_2   0.523330 0.543570 0.961470 -0.202625
H4    H     H_    0.575300 0.601503 0.043851 0.202103
N3    N     N_R   0.088631 0.498794 0.843038 0.142153
O9    O     O_R   0.068014 0.639517 0.923804 -0.315034
O10   O     O_R   0.148110 0.433704 0.923072 -0.286076
N4    N     N_R   0.914237 0.435458 0.815923 0.144282
O11   O     O_R   0.899307 0.579438 0.897968 -0.342730
O12   O     O_R   0.882178 0.318380 0.875698 -0.375816
H5    H     H_    0.929948 0.735549 0.450661 0.197409
H6    H     H_    0.488141 0.959059 0.287399 0.188772
H7    H     H_    0.512269 0.040881 0.712499 0.204734
N5    N     N_R   0.399439 0.396812 0.944192 0.297340
O13   O     O_R   0.387893 0.245383 0.872815 -0.340864
O14   O     O_R   0.333348 0.479147 0.976180 -0.271875
H8    H     H_    0.073764 0.294658 0.632213 0.155209
N6    N     N_R   0.065342 0.239967 0.260081 0.143881
O15   O     O_R   0.030487 0.128715 0.325618 -0.374725
O16   O     O_R   0.118590 0.201669 0.135870 -0.258436
H9    H     H_    0.909636 0.293449 0.259672 0.236264
H10   H     H_    0.921479 0.483005 0.207923 0.254889
H11   H     H_    0.088343 0.747038 0.661293 0.253643
H12   H     H_    0.943786 0.733698 0.687232 0.256593

loop_
_geom_bond_atom_site_label_1
_geom_bond_atom_site_label_2
_geom_bond_distance
_ccdc_geom_bond_type
C1    C17   1.429171 S    
Cu1   O7    1.917326 S    
C11   C12   1.556639 S    
C6    C9    1.566960 S    
O4    Cu2   1.917326 S    
N3    O9    1.300770 A    
C5    H8    1.112545 S    
C17   C18   1.330887 D    
Cu2   O8    1.928873 S    
C8    C14   1.197611 T    
N1    N2    1.292754 D    
C6    N6    1.471622 S    
N6    O16   1.300678 A    
N2    H4    1.029135 S    
N1    N5    1.384074 S    
Cu1   Cu2   2.707917 S    
C5    C10   1.566400 S    
O1    Cu1   1.952354 S    
N5    O13   1.300103 A    
N4    O12   1.301208 A    
C12   H5    1.113461 S    
Cu1   N2    2.034701 S    
C7    H9    1.112724 S    
C7    C11   1.551361 S    
C18   H7    1.087261 S    
C6    H2    1.112422 S    
C7    H10   1.110431 S    
C5    N3    1.471935 S    
N6    O15   1.301644 A    
N3    O10   1.300320 A    
C13   H11   1.109638 S    
O2    C1    1.293713 A    
O3    Cu1   1.928871 S    
C13   H3    1.113778 S    
O4    C2    1.298376 A    
C9    C15   1.463029 S    
O7    C4    1.298117 A    
C2    C16   1.420988 S    
C12   H12   1.108419 S    
Cu2   N1    2.034702 S    
C4    C8    1.420357 S    
O8    C4    1.301377 A    
C5    C9    1.566037 S    
N4    O11   1.300956 A    
C12   C13   1.547698 S    
O3    C2    1.301458 A    
C11   C14   1.461862 S    
C15   C16   1.197959 T    
Cu1   O5    1.949985 S    
C9    C13   1.553352 S    
C10   C11   1.565296 S    
C17   H6    1.087523 S    
O5    C3    1.293768 A    
H1    C10   1.115488 S    
C3    C18   1.429002 S    
Cu2   O6    1.952354 S    
O2    Cu2   1.949984 S    
N5    O14   1.300733 A    
C6    C7    1.558918 S    
O1    C1    1.296335 A    
O6    C3    1.296218 A    
C10   N4    1.470561 S    
