data_mof_unit_52472.cif
_audit_creation_date              2013-03-05T15:40:03-0500
_audit_creation_method            fapswitch 2.2
_symmetry_space_group_name_H-M    P1
_symmetry_Int_Tables_number       1
_space_group_crystal_system       triclinic
_cell_length_a                    7.466876
_cell_length_b                    8.773964
_cell_length_c                    11.004109
_cell_angle_alpha                 88.864522
_cell_angle_beta                  72.519046
_cell_angle_gamma                 102.717752
_cell_volume                      667.891776912

loop_
_atom_site_label
_atom_site_type_symbol
_atom_site_description
_atom_site_fract_x
_atom_site_fract_y
_atom_site_fract_z
_atom_type_partial_charge
O1    O     O_R   0.622710 0.286400 0.490790 -0.572892
O2    O     O_R   0.377290 0.713600 0.509210 -0.572891
O3    O     O_R   0.303660 0.256330 0.514730 -0.517714
O4    O     O_R   0.696340 0.743670 0.485270 -0.517714
C1    C     C_R   0.452938 0.200424 0.503393 0.814418
C2    C     C_R   0.547061 0.799575 0.496609 0.814411
O5    O     O_R   0.600900 0.509520 0.671740 -0.588054
O6    O     O_R   0.399100 0.490480 0.328260 -0.588056
O7    O     O_R   0.281840 0.479450 0.695690 -0.587112
O8    O     O_R   0.718160 0.520550 0.304310 -0.587113
C3    C     C_R   0.422953 0.492428 0.742575 0.854339
C4    C     C_R   0.577047 0.507572 0.257425 0.854338
Cu1   Cu    Cu3+1 0.688910 0.517800 0.485820 1.060601
Cu2   Cu    Cu3+1 0.311090 0.482200 0.514180 1.060602
H1    H     H_    0.329037 0.484685 0.128002 0.189658
H2    H     H_    0.670963 0.515315 0.871998 0.189660
C5    C     C_2   0.379667 0.488577 0.880040 -0.305851
C6    C     C_2   0.620332 0.511423 0.119960 -0.305852
C7    C     C_2   0.521676 0.501772 0.931348 -0.123726
C8    C     C_2   0.478324 0.498227 0.068652 -0.123730
H3    H     H_    0.769363 0.524993 0.060252 0.153349
H4    H     H_    0.230637 0.475007 0.939748 0.153349
C9    C     C_2   0.429722 0.034949 0.495979 0.027915
C10   C     C_2   0.570274 0.965050 0.504028 0.027911
N1    N     N_2   0.027170 0.455360 0.535550 -0.185292
N2    N     N_2   0.972830 0.544640 0.464450 -0.185292
H5    H     H_    0.915821 0.378613 0.602950 0.260999
H6    H     H_    0.084179 0.621387 0.397050 0.260995
N3    N     N_R   0.257423 0.951195 0.471792 0.145569
O9    O     O_R   0.096714 0.907624 0.565782 -0.274981
O10   O     O_R   0.256485 0.936141 0.354600 -0.351214
N4    N     N_R   0.742572 0.048803 0.528219 0.145567
O11   O     O_R   0.903290 0.092357 0.434233 -0.274967
O12   O     O_R   0.743495 0.063879 0.645412 -0.351229

loop_
_geom_bond_atom_site_label_1
_geom_bond_atom_site_label_2
_geom_bond_distance
_ccdc_geom_bond_type
O7    Cu2   1.942010 S    
C10   N4    1.436402 S    
N3    O9    1.300981 A    
N1    H5    1.028599 S    
C6    H3    1.087881 S    
N2    H6    1.028599 S    
C7    C8    1.445145 S    
C1    C9    1.430742 S    
O6    C4    1.296513 A    
C9    C10   1.349989 D    
C2    C10   1.430744 S    
N4    O11   1.300992 A    
N3    O10   1.300894 A    
Cu1   Cu2   2.689419 S    
O5    C3    1.296513 A    
O7    C3    1.290528 A    
O2    C2    1.290134 A    
O3    Cu2   1.970143 S    
O8    C4    1.290527 A    
H2    C7    1.088328 S    
O1    C1    1.290134 A    
C9    N3    1.436395 S    
C5    C7    1.328444 D    
C6    C8    1.328444 D    
Cu2   N1    2.020797 S    
H1    C8    1.088329 S    
O2    Cu2   1.976590 S    
Cu1   N2    2.020797 S    
O1    Cu1   1.976590 S    
O5    Cu1   1.946314 S    
O4    C2    1.287714 A    
C4    C6    1.446810 S    
O4    Cu1   1.970142 S    
C3    C5    1.446810 S    
O6    Cu2   1.946313 S    
N1    N2    1.302599 D    
C5    H4    1.087881 S    
O3    C1    1.287713 A    
O8    Cu1   1.942010 S    
N4    O12   1.300899 A    
