data_mof_unit_59710.cif
_audit_creation_date              2012-10-26T19:04:16-0400
_audit_creation_method            fapswitch 2.2
_symmetry_space_group_name_H-M    P1
_symmetry_Int_Tables_number       1
_space_group_crystal_system       triclinic
_cell_length_a                    14.851784
_cell_length_b                    15.863504
_cell_length_c                    9.565087
_cell_angle_alpha                 90.037937
_cell_angle_beta                  86.514793
_cell_angle_gamma                 89.92997
_cell_volume                      2249.37709849

loop_
_atom_site_label
_atom_site_type_symbol
_atom_type_description
_atom_site_fract_x
_atom_site_fract_y
_atom_site_fract_z
_atom_type_partial_charge
C1    C     C_R   0.379351 0.882392 0.503385 0.546653
C2    C     C_R   0.736613 0.209068 0.378640 0.039786
C3    C     C_R   0.233775 0.287672 0.376027 0.041443
C4    C     C_R   0.236754 0.708941 0.378733 0.039809
C5    C     C_R   0.669030 0.799597 0.489177 -0.031362
C6    C     C_R   0.670249 0.199380 0.489766 -0.025043
C7    C     C_R   0.168952 0.299544 0.489180 -0.031386
C8    C     C_R   0.170316 0.699334 0.489771 -0.025027
C9    C     C_R   0.665141 0.996907 0.130502 -0.058768
C10   C     C_R   0.165138 0.496754 0.130498 -0.058727
C11   C     C_R   0.747692 0.993431 0.051880 0.050404
C12   C     C_R   0.379241 0.117589 0.503498 0.548648
C13   C     C_R   0.247680 0.493111 0.051873 0.050463
C14   C     C_R   0.747288 0.994420 0.907008 -0.168461
C15   C     C_R   0.247278 0.494124 0.907002 -0.168466
C16   C     C_R   0.666477 0.997897 0.841638 -0.110703
C17   C     C_R   0.166473 0.497764 0.841636 -0.110739
C18   C     C_R   0.581738 0.998857 0.918000 0.151601
C19   C     C_R   0.081736 0.498772 0.917999 0.151582
C20   C     C_R   0.581477 0.998604 0.067624 0.142895
C21   C     C_R   0.081476 0.498518 0.067622 0.142889
C22   C     C_R   0.422391 0.000944 0.081497 0.044251
C23   C     C_R   0.879346 0.382389 0.503399 0.546646
C24   C     C_R   0.922393 0.501066 0.081496 0.044236
C25   C     C_R   0.613566 0.123287 0.497019 0.553477
C26   C     C_R   0.613276 0.876452 0.496869 0.552724
C27   C     C_R   0.113591 0.623270 0.497021 0.553386
C28   C     C_R   0.113246 0.376432 0.496870 0.552822
C29   C     C_R   0.422486 0.000773 0.933548 0.015186
C30   C     C_R   0.922488 0.500918 0.933547 0.015178
C31   C     C_R   0.224789 0.120171 0.719542 -0.098973
C32   C     C_R   0.223464 0.881749 0.715654 -0.092102
C33   C     C_R   0.724556 0.619843 0.718937 -0.098842
C34   C     C_R   0.879249 0.617589 0.503485 0.548650
C35   C     C_R   0.723702 0.381413 0.716281 -0.092110
C36   C     C_R   0.152028 0.121754 0.818574 -0.104955
C37   C     C_R   0.149745 0.881400 0.812973 -0.099934
C38   C     C_R   0.651718 0.621321 0.817835 -0.104717
C39   C     C_R   0.650057 0.380957 0.813737 -0.100016
C40   C     C_R   0.583269 0.679905 0.806896 -0.084404
C41   C     C_R   0.581863 0.322242 0.802950 -0.097150
C42   C     C_R   0.083485 0.180216 0.807446 -0.084452
C43   C     C_R   0.081648 0.822558 0.802397 -0.097064
C44   C     C_R   0.588110 0.738112 0.698170 -0.074727
C45   C     C_R   0.311175 0.242040 0.401679 0.078981
C46   C     C_R   0.587722 0.262893 0.695818 -0.077865
C47   C     C_R   0.088184 0.238231 0.698438 -0.074729
C48   C     C_R   0.087648 0.763013 0.695564 -0.077938
C49   C     C_R   0.664044 0.741069 0.600964 0.004066
C50   C     C_R   0.664342 0.259025 0.600006 0.011041
C51   C     C_R   0.164065 0.241122 0.601120 0.004013
C52   C     C_R   0.164316 0.759083 0.599857 0.011069
C53   C     C_R   0.233249 0.180132 0.610042 -0.001522
C54   C     C_R   0.233159 0.820323 0.608352 0.003698
C55   C     C_R   0.733172 0.680014 0.609783 -0.001519
C56   C     C_R   0.313186 0.756425 0.402956 0.062549
C57   C     C_R   0.733242 0.320199 0.608613 0.003704
C58   C     C_R   0.308324 0.182159 0.509794 -0.033419
C59   C     C_R   0.308949 0.817515 0.509502 -0.031192
C60   C     C_R   0.808342 0.682153 0.509740 -0.033393
C61   C     C_R   0.808941 0.317500 0.509559 -0.031243
C62   C     C_2   0.712582 0.801489 0.226662 0.595239
C63   C     C_2   0.717858 0.188433 0.230903 0.595987
C64   C     C_2   0.212357 0.301271 0.226586 0.595183
C65   C     C_2   0.218085 0.688201 0.231017 0.596015
C66   C     C_2   0.834729 0.989490 0.120904 0.673966
C67   C     C_R   0.811300 0.742136 0.401776 0.078783
C68   C     C_2   0.334710 0.489016 0.120894 0.673975
C69   C     C_R   0.813079 0.256503 0.402865 0.062690
C70   C     C_R   0.733931 0.787813 0.376105 0.041424
Cu1   Cu    Cu3+1 0.499990 0.000000 0.640660 0.912937
Cu2   Cu    Cu3+1 0.999990 0.500000 0.640660 0.912926
Cu3   Cu    Cu3+1 0.500010 0.000000 0.359340 1.032907
Cu4   Cu    Cu3+1 0.000010 0.500000 0.359340 1.032911
H1    H     H_    0.809981 0.992884 0.842907 0.171958
H2    H     H_    0.771778 0.430537 0.727797 0.123297
H3    H     H_    0.148083 0.076536 0.903256 0.117474
H4    H     H_    0.144707 0.927832 0.895871 0.116037
H5    H     H_    0.647636 0.575932 0.902255 0.117472
H6    H     H_    0.645160 0.427209 0.896923 0.115946
H7    H     H_    0.525282 0.679142 0.881202 0.167316
H8    H     H_    0.523328 0.323722 0.876172 0.162501
H9    H     H_    0.025549 0.179519 0.881853 0.167498
H10   H     H_    0.023065 0.824104 0.875518 0.162418
H11   H     H_    0.529926 0.778115 0.688548 0.161221
H12   H     H_    0.309968 0.492519 0.842899 0.171964
H13   H     H_    0.529812 0.222652 0.686310 0.159186
H14   H     H_    0.029942 0.278148 0.688713 0.161227
H15   H     H_    0.029797 0.722682 0.686174 0.159187
H16   H     H_    0.358777 0.001681 0.142896 0.123556
H17   H     H_    0.858780 0.501906 0.142895 0.123551
H18   H     H_    0.669282 0.998738 0.240663 0.196525
H19   H     H_    0.169286 0.498688 0.240654 0.196539
H20   H     H_    0.756877 0.808220 0.023003 0.335261
H21   H     H_    0.627019 0.186692 0.082113 0.334805
H22   H     H_    0.256533 0.307721 0.022841 0.335334
H23   H     H_    0.675273 0.999676 0.730728 0.198722
H24   H     H_    0.127380 0.686528 0.082028 0.334797
H25   H     H_    0.970645 0.982908 0.098573 0.350898
H26   H     H_    0.470610 0.482140 0.098558 0.350913
H27   H     H_    0.175273 0.499648 0.730731 0.198730
H28   H     H_    0.359025 0.001135 0.884850 0.084926
H29   H     H_    0.859028 0.501452 0.884848 0.084921
H30   H     H_    0.273037 0.071219 0.731407 0.124568
H31   H     H_    0.271464 0.930982 0.726900 0.123169
H32   H     H_    0.772729 0.570785 0.730552 0.124412
I1    I     I_    0.437651 0.277874 0.299004 -0.209932
I2    I     I_    0.439741 0.724863 0.295048 -0.192752
I3    I     I_    0.937838 0.777902 0.299210 -0.209798
I4    I     I_    0.939587 0.224872 0.294892 -0.192796
N1    N     N_R   0.501200 0.000000 0.147910 -0.228770
N2    N     N_R   0.001200 0.500000 0.147910 -0.228761
N3    N     N_R   0.501270 0.000000 0.852040 -0.242562
N4    N     N_R   0.001270 0.500000 0.852040 -0.242555
O1    O     O_R   0.409820 0.909830 0.618810 -0.528307
O2    O     O_R   0.590170 0.909830 0.618760 -0.536032
O3    O     O_R   0.090170 0.590170 0.618760 -0.537869
O4    O     O_R   0.090170 0.409830 0.618760 -0.536042
O5    O     O_R   0.590190 0.090180 0.381190 -0.476231
O6    O     O_R   0.590190 0.909820 0.381190 -0.474745
O7    O     O_R   0.090190 0.590180 0.381190 -0.476236
O8    O     O_R   0.090190 0.409820 0.381190 -0.474733
O9    O     O_2   0.634294 0.802023 0.194452 -0.484319
O10   O     O_R   0.780934 0.803951 0.119753 -0.667645
O11   O     O_2   0.778744 0.169165 0.145454 -0.496233
O12   O     O_R   0.409820 0.090170 0.618810 -0.530102
O13   O     O_R   0.630932 0.199193 0.185569 -0.654290
O14   O     O_2   0.134046 0.302000 0.194503 -0.484368
O15   O     O_R   0.280645 0.303433 0.119553 -0.667692
O16   O     O_2   0.278990 0.668681 0.145772 -0.496265
O17   O     O_R   0.131235 0.699128 0.185461 -0.654285
O18   O     O_2   0.835558 0.989702 0.248743 -0.498886
O19   O     O_R   0.916207 0.985454 0.039667 -0.691815
O20   O     O_2   0.335544 0.489278 0.248731 -0.498850
O21   O     O_R   0.416176 0.484777 0.039654 -0.691834
O22   O     O_R   0.909820 0.409830 0.618810 -0.528399
O23   O     O_R   0.909820 0.590170 0.618810 -0.530011
O24   O     O_R   0.409840 0.909830 0.381240 -0.473114
O25   O     O_R   0.409840 0.090170 0.381240 -0.472469
O26   O     O_R   0.909840 0.409830 0.381240 -0.473008
O27   O     O_R   0.909840 0.590170 0.381240 -0.472596
O28   O     O_R   0.590170 0.090170 0.618760 -0.537870

loop_
_geom_bond_atom_site_label_1
_geom_bond_atom_site_label_2
_ccdc_geom_bond_type
C44   C49   A    
C33   C55   A    
C34   O27   A    
Cu3   O5    S    
C22   C29   A    
C36   C42   A    
C25   O28   A    
C24   N2    A    
C4    C8    A    
C62   O10   S    
C65   O16   D    
C27   O7    A    
C39   C41   A    
C3    C64   S    
Cu1   N3    S    
C23   O22   A    
C19   C21   A    
C26   O6    A    
C3    C7    A    
C36   H3    S    
C1    C59   S    
Cu4   N2    S    
C4    C65   S    
C11   C14   A    
C28   O8    A    
C16   H23   S    
Cu2   O22   S    
C6    C25   S    
C12   O12   A    
Cu3   O24   S    
C66   O19   S    
Cu2   N4    S    
C62   C70   S    
C17   H27   S    
C56   I2    S    
C67   I3    S    
C60   C67   A    
C64   O14   D    
H24   O17   S    
C29   H28   S    
C41   C46   A    
Cu1   O12   S    
C2    C69   A    
C43   C48   A    
C8    C52   A    
C40   C44   A    
C11   C66   S    
C12   C58   S    
Cu3   O6    S    
C55   C60   A    
C4    C56   A    
C30   H29   S    
C34   C60   S    
C43   H10   S    
C5    C49   A    
C2    C6    A    
C25   O5    A    
C9    H18   S    
C32   C54   A    
C62   O9    D    
C65   O17   S    
C52   C54   A    
Cu3   N1    S    
C66   O18   D    
C54   C59   A    
C27   O3    A    
C10   C21   A    
C35   H2    S    
C45   C58   A    
C42   H9    S    
C23   O26   A    
C39   H6    S    
Cu2   Cu4   S    
Cu1   Cu3   S    
C47   C51   A    
Cu3   O25   S    
C10   H19   S    
C49   C55   A    
Cu4   O26   S    
C3    C45   A    
C31   C53   A    
C7    C28   S    
C51   C53   A    
C37   C43   A    
C35   C39   A    
C5    C70   A    
C20   N1    A    
C69   I4    S    
C9    C20   A    
C23   C61   S    
C22   H16   S    
C12   O25   A    
Cu1   O1    S    
C32   C37   A    
C6    C50   A    
C9    C11   A    
C63   O11   D    
Cu1   O28   S    
Cu2   O23   S    
Cu4   O8    S    
Cu4   O27   S    
C32   H31   S    
C13   C15   A    
C14   C16   A    
C24   C30   A    
C44   H11   S    
C24   H17   S    
C21   N2    A    
C2    C63   S    
C46   H13   S    
C30   N4    A    
C61   C69   A    
C15   C17   A    
C29   N3    A    
C50   C57   A    
C40   H7    S    
C68   O21   S    
C33   H32   S    
C10   C13   A    
C15   H12   S    
C53   C58   A    
H26   O21   S    
C57   C61   A    
C37   H4    S    
C46   C50   A    
C34   O23   A    
C33   C38   A    
C19   N4    A    
C56   C59   A    
C35   C57   A    
C67   C70   A    
C31   H30   S    
C68   O20   D    
C7    C51   A    
C28   O4    A    
C47   H14   S    
C38   C40   A    
C41   H8    S    
C17   C19   A    
Cu1   O2    S    
C18   C20   A    
C42   C47   A    
C26   O2    A    
Cu2   O3    S    
C1    O24   A    
C5    C26   S    
H21   O13   S    
C48   C52   A    
Cu4   O7    S    
C64   O15   S    
H25   O19   S    
C16   C18   A    
C22   N1    A    
C38   H5    S    
Cu2   O4    S    
C8    C27   S    
C18   N3    A    
C31   C36   A    
C1    O1    A    
C63   O13   S    
C48   H15   S    
C45   I1    S    
C14   H1    S    
H22   O15   S    
C13   C68   S    
H20   O10   S    
