data_mof_unit_20181.cif
_audit_creation_date              2013-03-05T16:04:17-0500
_audit_creation_method            fapswitch 2.2
_symmetry_space_group_name_H-M    P1
_symmetry_Int_Tables_number       1
_space_group_crystal_system       triclinic
_cell_length_a                    8.374308
_cell_length_b                    14.524049
_cell_length_c                    19.03266
_cell_angle_alpha                 97.523192
_cell_angle_beta                  91.841412
_cell_angle_gamma                 91.78882
_cell_volume                      2292.34243656

loop_
_atom_site_label
_atom_site_type_symbol
_atom_site_description
_atom_site_fract_x
_atom_site_fract_y
_atom_site_fract_z
_atom_type_partial_charge
P1    P     P_3+3 0.064140 0.407250 0.340900 0.528425
O1    O     O_2   0.890230 0.433890 0.328780 -0.279184
O2    O     O_3   0.136580 0.442380 0.417110 -0.406912
O3    O     O_3   0.636390 0.607640 0.365630 -0.323263
O4    O     O_2   0.689091 0.548830 0.234913 -0.308367
O5    O     O_3   0.067709 0.285860 0.322166 -0.558405
O6    O     O_3   0.652917 0.729022 0.258918 -0.444447
H1    H     H_    0.661455 0.785111 0.365011 0.094516
C1    C     C_3   0.655894 0.894126 0.299350 0.131366
H2    H     H_    0.787259 0.903968 0.303768 0.205392
P2    P     P_3+3 0.622060 0.719380 0.547490 0.463005
P3    P     P_3+3 0.065118 0.778603 0.402982 0.536758
O7    O     O_2   0.794910 0.731270 0.525620 -0.363909
O8    O     O_3   0.045950 0.658760 0.399470 -0.355946
O9    O     O_2   0.931709 0.822991 0.448494 -0.356726
O10   O     O_3   0.635923 0.750693 0.639565 -0.547656
O11   O     O_3   0.021466 0.811955 0.319334 -0.541830
C2    C     C_3   0.123369 0.769220 0.268480 0.841562
H3    H     H_    0.221153 0.732835 0.292666 -0.299468
C3    C     C_3   0.207551 0.842769 0.229708 -0.153234
H4    H     H_    0.296782 0.807303 0.194696 0.127581
C4    C     C_3   0.200843 0.748765 0.615433 0.337681
H5    H     H_    0.321241 0.721058 0.607421 0.100097
H6    H     H_    0.124376 0.730710 0.566422 0.112798
C5    C     C_3   0.216301 0.853831 0.632683 -0.729371
H7    H     H_    0.280904 0.873279 0.684659 0.277869
H8    H     H_    0.284290 0.883807 0.591946 0.196699
H9    H     H_    0.095502 0.883276 0.634688 0.280732
Ba1   Ba    Ba6+2 0.843770 0.541130 0.463760 1.656580
C6    C     C_3   0.967535 0.239829 0.364649 0.230193
H10   H     H_    0.882467 0.286224 0.393852 0.071093
H11   H     H_    0.042597 0.209072 0.404123 0.123933
C7    C     C_3   0.873178 0.161880 0.317127 -0.007820
H12   H     H_    0.783874 0.194115 0.284929 0.166751
H13   H     H_    0.811161 0.115569 0.350430 0.090005
C8    C     C_3   0.690004 0.675979 0.672412 0.249029
H14   H     H_    0.810252 0.657357 0.654191 0.083793
H15   H     H_    0.606512 0.614539 0.660585 0.101206
C9    C     C_3   0.697561 0.703982 0.752720 -0.143936
H16   H     H_    0.730760 0.643041 0.779031 0.058729
H17   H     H_    0.577674 0.725067 0.770943 0.144659
P4    P     P_3+3 0.125560 0.592830 0.659110 0.488860
O12   O     O_2   0.299470 0.566150 0.671260 -0.369641
O13   O     O_3   0.053110 0.557700 0.582890 -0.417462
O14   O     O_3   0.553300 0.392440 0.634370 -0.378049
O15   O     O_3   0.131671 0.714200 0.672837 -0.525820
P5    P     P_3+3 0.116097 0.220192 0.600414 0.536447
O16   O     O_3   0.638180 0.384440 0.468210 -0.346083
O17   O     O_3   0.143740 0.341320 0.600540 -0.341082
O18   O     O_2   0.237443 0.175233 0.548385 -0.310694
O19   O     O_3   0.184171 0.187349 0.681167 -0.536535
Ba2   Ba    Ba6+2 0.346040 0.458940 0.536250 1.640200
P6    P     P_3+3 0.585319 0.619887 0.278204 0.569964
C10   C     C_3   0.604858 0.796453 0.313397 0.265421
H18   H     H_    0.473302 0.793591 0.317612 -0.014581
H19   H     H_    0.606052 0.945808 0.339927 0.065651
O20   O     O_3   0.551510 0.615640 0.531790 -0.404836
C11   C     C_3   0.465845 0.278118 0.315522 0.552706
H20   H     H_    0.359283 0.301516 0.344883 0.063149
C12   C     C_3   0.411857 0.210356 0.248885 -0.095208
H21   H     H_    0.338720 0.152682 0.265238 0.218341
H22   H     H_    0.517516 0.178490 0.222808 0.175833
P7    P     P_3+3 0.570798 0.267899 0.448275 0.501847
O21   O     O_2   0.394780 0.268760 0.474430 -0.320200
O22   O     O_3   0.568399 0.230317 0.356547 -0.620898
H23   H     H_    0.272708 0.894171 0.269727 0.153953
C13   C     C_3   0.099470 0.233729 0.736963 0.778573
H24   H     H_    0.972642 0.243905 0.721990 -0.109889
C14   C     C_3   0.102849 0.178770 0.800294 -0.156664
H25   H     H_    0.228334 0.169707 0.818236 0.166019
H26   H     H_    0.042032 0.218772 0.845031 0.117783
P8    P     P_3+3 0.595177 0.393733 0.724109 0.480520
C15   C     C_3   0.581277 0.215992 0.699225 0.430340
H27   H     H_    0.710100 0.224431 0.688732 -0.006618
O23   O     O_2   0.485886 0.467947 0.760247 -0.372047
O24   O     O_3   0.532341 0.287687 0.750110 -0.465442
H28   H     H_    0.509975 0.214830 0.648787 0.141260
H29   H     H_    0.604730 0.066649 0.689173 0.219353
C16   C     C_3   0.555878 0.123001 0.726597 -0.802419
H30   H     H_    0.426761 0.107548 0.731889 0.278548
H31   H     H_    0.617483 0.124715 0.779242 0.284468
C17   C     C_R   0.041916 0.557464 0.799805 -0.244182
H32   H     H_    0.119089 0.616863 0.819557 0.164619
C18   C     C_R   0.010344 0.538706 0.725522 0.340270
C19   C     C_R   0.870247 0.425604 0.814666 -0.254307
H33   H     H_    0.829332 0.369220 0.842102 0.147026
C20   C     C_R   0.803222 0.429891 0.747046 0.195417
C21   C     C_R   0.312266 0.583620 0.187045 -0.270719
H34   H     H_    0.353153 0.639530 0.159178 0.152273
C22   C     C_R   0.376748 0.581905 0.255365 0.190689
C23   C     C_R   0.144251 0.450147 0.201671 -0.186619
H35   H     H_    0.068394 0.390489 0.181408 0.174265
C24   C     C_R   0.175512 0.467809 0.276004 0.270457
C25   C     C_R   0.982495 0.495299 0.846482 0.126046
C26   C     C_R   0.883267 0.478772 0.700622 -0.419474
H36   H     H_    0.840587 0.474220 0.645958 0.147177
C27   C     C_R   0.201798 0.513086 0.155281 0.145256
C28   C     C_R   0.295948 0.532546 0.301734 -0.278190
H37   H     H_    0.334183 0.540157 0.357069 0.152760
C29   C     C_R   0.769562 0.450862 0.962368 -0.205655
C30   C     C_R   0.673080 0.412926 0.009824 -0.091975
C31   C     C_R   0.720459 0.422635 0.080352 -0.059446
C32   C     C_R   0.868013 0.464410 0.101753 -0.089090
C33   C     C_R   0.984755 0.481884 0.052562 0.084085
C34   C     C_R   0.932290 0.476965 0.979208 0.093303
C35   C     C_R   0.146346 0.507739 0.075921 -0.001181
C36   C     C_R   0.252565 0.531030 0.022474 0.097864
C37   C     C_R   0.200233 0.525578 0.949085 0.084842
C38   C     C_R   0.038591 0.499931 0.925737 -0.038796
C39   C     C_R   0.414964 0.558104 0.039317 -0.186236
C40   C     C_R   0.510907 0.596224 0.991652 -0.046416
C41   C     C_R   0.463693 0.585809 0.921014 -0.112183
C42   C     C_R   0.316911 0.542726 0.899839 -0.113227
H38   H     H_    0.708821 0.463606 0.914373 0.146498
H39   H     H_    0.553003 0.387186 0.993558 0.165116
H40   H     H_    0.637540 0.404886 0.119171 0.212365
H41   H     H_    0.885850 0.484032 0.157405 0.199609
H42   H     H_    0.475791 0.546105 0.087509 0.144939
H43   H     H_    0.630557 0.622756 0.007910 0.166975
H44   H     H_    0.546027 0.604269 0.882000 0.135680
H45   H     H_    0.298960 0.521817 0.844375 0.204572
C43   C     C_R   0.685781 0.943089 0.544499 -0.053484
C44   C     C_R   0.511295 0.801146 0.500396 0.263931
C45   C     C_R   0.373151 0.764695 0.461781 -0.572075
C46   C     C_R   0.260574 0.823984 0.439509 0.065382
C47   C     C_R   0.291847 0.918924 0.449770 0.320563
C48   C     C_R   0.444944 0.954791 0.473564 -0.226735
C49   C     C_R   0.550298 0.898701 0.506503 -0.114206
H46   H     H_    0.344928 0.690795 0.455619 0.186036
C50   C     C_R   0.628492 0.091540 0.500372 -0.132622
C51   C     C_R   0.722806 0.039050 0.543308 0.008274
C52   C     C_R   0.677940 0.186449 0.497146 0.235599
C53   C     C_R   0.819549 0.223458 0.531461 -0.529131
C54   C     C_R   0.914031 0.171341 0.570736 0.248180
C55   C     C_R   0.859508 0.081734 0.581237 -0.158678
C56   C     C_R   0.490454 0.046037 0.464012 0.481581
H47   H     H_    0.928898 0.043170 0.615588 0.196031
H48   H     H_    0.860073 0.293554 0.525795 0.158461
H49   H     H_    0.764283 0.903722 0.574501 0.181342
N1    N     N_R   0.973814 0.106894 0.267913 0.300716
O25   O     O_R   0.934133 0.093691 0.200610 -0.228114
O26   O     O_R   0.092250 0.062557 0.291231 -0.305552
N2    N     N_R   0.813719 0.780731 0.773000 0.298531
O27   O     O_R   0.935983 0.770136 0.814683 -0.338809
O28   O     O_R   0.789172 0.862197 0.754137 -0.272748
N3    N     N_R   0.554012 0.357643 0.295452 0.205682
O29   O     O_R   0.567540 0.431811 0.341244 -0.363626
O30   O     O_R   0.656095 0.346138 0.245157 -0.391760
N4    N     N_R   0.319645 0.255101 0.197269 0.238534
O31   O     O_R   0.173471 0.226035 0.180164 -0.299053
O32   O     O_R   0.392514 0.306834 0.156550 -0.398365
Cl1   Cl    Cl    0.587873 0.917818 0.214094 -0.471207
Cl2   Cl    Cl    0.196361 0.342995 0.764589 -0.623230
N5    N     N_R   0.022788 0.087750 0.782304 0.262489
O33   O     O_R   0.087732 0.024023 0.739102 -0.360518
O34   O     O_R   0.898019 0.065956 0.816438 -0.319755
N6    N     N_R   0.030200 0.699730 0.220426 0.232503
O35   O     O_R   0.967203 0.629570 0.246475 -0.360879
O36   O     O_R   0.020703 0.701357 0.152173 -0.393128
N7    N     N_R   0.160225 0.978300 0.460669 0.276144
O37   O     O_R   0.058937 0.989078 0.409494 -0.334791
O38   O     O_R   0.121672 0.001849 0.525585 -0.427408
Cl3   Cl    Cl    0.387345 0.085851 0.392273 -0.611345
N8    N     N_R   0.101046 0.892554 0.186602 0.320492
O39   O     O_R   0.946393 0.883475 0.188510 -0.239088
O40   O     O_R   0.163029 0.948559 0.146022 -0.223613

loop_
_geom_bond_atom_site_label_1
_geom_bond_atom_site_label_2
_geom_bond_distance
_ccdc_geom_bond_type
P7    O22   1.758912 S    
C1    Cl1   1.781828 S    
N6    O35   1.295379 A    
C17   C25   1.436128 A    
O3    P6    1.737752 S    
C15   H27   1.109377 S    
C26   H36   1.082196 S    
P8    O24   1.749226 S    
C39   H42   1.071686 S    
C33   C35   1.433783 A    
C9    N2    1.460583 S    
C44   C45   1.401424 A    
P5    O17   1.766939 S    
C19   H33   1.080125 S    
C5    H9    1.110370 S    
C29   C34   1.418221 A    
C47   C48   1.406913 A    
O1    Ba1   2.869068 S    
O7    Ba1   2.903474 S    
N8    O39   1.299866 A    
N1    O26   1.296833 A    
C43   H49   1.081661 S    
P1    O1    1.536525 D    
C51   C55   1.414697 A    
N4    O32   1.300695 A    
C6    H10   1.108080 S    
O12   Ba2   2.869521 S    
C35   C36   1.438716 A    
C7    N1    1.456800 S    
C11   C12   1.545989 S    
N2    O27   1.300389 A    
C3    N8    1.462870 S    
N2    O28   1.301076 A    
C37   C38   1.433557 A    
C40   H43   1.083035 S    
C2    H3    1.108248 S    
P4    O15   1.746766 S    
C14   H26   1.112988 S    
C39   C40   1.387685 A    
C33   C34   1.442162 A    
C32   C33   1.415009 A    
C31   C32   1.384568 A    
C40   C41   1.376791 A    
C52   C53   1.392938 A    
C4    C5    1.518857 S    
C20   C26   1.380831 A    
P3    O11   1.754558 S    
C36   C37   1.441830 A    
C1    H2    1.103993 S    
N5    O34   1.300306 A    
O3    Ba1   2.793936 S    
O13   Ba2   2.981493 S    
C53   H48   1.082966 S    
N6    O36   1.302257 A    
O14   P8    1.730082 S    
C32   H41   1.064698 S    
P4    O13   1.569450 S    
P8    O23   1.542889 D    
C41   C42   1.385284 A    
C7    H12   1.105243 S    
P5    O18   1.541549 D    
N3    O30   1.301795 A    
C19   C20   1.397139 A    
Ba1   Ba2   4.603492 S    
P2    C44   1.835263 S    
Ba1   O16   2.822358 S    
C13   H24   1.110176 S    
C30   C31   1.375466 A    
P4    C18   1.854119 S    
C48   C56   1.403799 A    
C9    H17   1.111664 S    
Ba2   O21   2.903597 S    
H1    C10   1.110915 S    
C23   H35   1.079561 S    
C16   H31   1.109130 S    
H29   C16   1.109763 S    
O16   P7    1.756660 S    
P5    O19   1.751398 S    
P3    C46   1.826586 S    
O14   Ba2   2.793122 S    
C11   H20   1.106964 S    
C23   C27   1.434780 A    
P1    O5    1.753798 S    
C12   H21   1.105521 S    
P1    O2    1.569257 S    
C18   C26   1.384395 A    
N7    O38   1.292136 A    
C37   C42   1.414232 A    
C50   C52   1.436511 A    
C23   C24   1.418744 A    
C19   C25   1.420730 A    
C11   O22   1.401902 S    
P3    O9    1.541113 D    
P3    O8    1.735327 S    
O17   Ba2   2.790256 S    
C3    H4    1.110822 S    
P1    Ba1   3.459090 S    
O11   C2    1.406806 S    
C15   C16   1.521255 S    
C29   H38   1.071315 S    
C1    H19   1.105706 S    
O19   C13   1.405543 S    
P7    C52   1.835870 S    
N1    O25   1.300913 A    
N5    O33   1.299787 A    
C27   C35   1.557249 S    
C4    O15   1.395482 S    
Ba1   O20   2.973190 S    
C28   H37   1.081446 S    
C17   C18   1.419009 A    
P5    C54   1.855948 S    
C53   C54   1.380337 A    
C30   H39   1.083043 S    
C15   O24   1.406517 S    
C4    H6    1.111781 S    
C16   H30   1.107886 S    
P4    O12   1.536788 D    
O6    P6    1.754252 S    
O8    Ba1   2.789745 S    
C48   C49   1.406460 A    
C43   C51   1.421597 A    
C9    H16   1.110844 S    
P8    C20   1.826394 S    
O4    P6    1.542235 D    
C41   H44   1.082644 S    
N3    O29   1.293458 A    
C36   C39   1.418633 A    
C3    H23   1.110946 S    
C55   H47   1.081946 S    
C34   C38   1.438042 A    
C10   H18   1.107060 S    
C8    H14   1.105593 S    
C6    C7    1.534352 S    
O5    C6    1.398067 S    
C8    C9    1.528083 S    
C50   C56   1.425865 A    
C21   C27   1.418969 A    
C21   C22   1.395445 A    
O2    Ba2   2.802084 S    
C11   N3    1.451054 S    
C54   C55   1.406800 A    
C47   N7    1.424382 S    
C5    H8    1.102796 S    
C25   C38   1.557721 S    
C14   N5    1.457997 S    
C13   Cl2   1.768347 S    
N7    O37   1.299141 A    
N8    O40   1.300567 A    
C50   C51   1.425499 A    
C5    H7    1.110839 S    
Ba1   O13   2.801328 S    
C2    N6    1.458485 S    
N4    O31   1.299529 A    
O10   C8    1.401290 S    
C12   H22   1.112243 S    
C6    H11   1.110936 S    
P2    O7    1.529795 D    
O2    Ba1   2.980623 S    
C44   C49   1.432949 A    
C46   C47   1.382680 A    
C8    H15   1.110942 S    
C29   C30   1.386211 A    
C7    H13   1.111256 S    
C45   H46   1.082156 S    
C2    C3    1.541262 S    
C12   N4    1.460646 S    
C43   C49   1.416108 A    
C14   H25   1.111556 S    
P2    O10   1.751077 S    
C31   H40   1.079894 S    
Ba2   O20   2.821913 S    
P7    O21   1.570800 D    
O16   Ba2   2.972369 S    
C42   H45   1.064050 S    
C21   H34   1.079367 S    
P2    Ba1   3.478386 S    
P1    C24   1.864504 S    
C17   H32   1.080695 S    
P6    C22   1.836371 S    
C15   H28   1.112041 S    
C4    H5    1.104946 S    
C1    C10   1.528196 S    
O6    C10   1.407749 S    
C13   C14   1.530355 S    
P2    O20   1.588632 S    
C24   C28   1.389090 A    
C22   C28   1.387224 A    
P4    Ba2   3.459687 S    
C45   C46   1.389440 A    
C56   Cl3   1.762485 S    
