data_mof_unit_20040.cif
_audit_creation_date              2012-12-11T15:26:09-0500
_audit_creation_method            fapswitch 2.2
_symmetry_space_group_name_H-M    P1
_symmetry_Int_Tables_number       1
_space_group_crystal_system       triclinic
_cell_length_a                    24.450021
_cell_length_b                    17.089017
_cell_length_c                    15.776416
_cell_angle_alpha                 89.943602
_cell_angle_beta                  50.083399
_cell_angle_gamma                 90.024314
_cell_volume                      5055.77419166

loop_
_atom_site_label
_atom_site_type_symbol
_atom_type_description
_atom_site_fract_x
_atom_site_fract_y
_atom_site_fract_z
_atom_type_partial_charge
C1    C     C_R   0.334456 0.114338 0.797269 0.507317
C2    C     C_R   0.659806 0.872178 0.215585 0.452719
C3    C     C_R   0.665577 0.114621 0.202862 0.505572
C4    C     C_R   0.339694 0.873035 0.785792 0.450403
C5    C     C_R   0.834253 0.613784 0.797705 0.506602
C6    C     C_R   0.161419 0.375663 0.211484 0.451787
C7    C     C_R   0.165729 0.614074 0.202331 0.506385
C8    C     C_R   0.838725 0.375192 0.788464 0.444363
C9    C     C_2   0.689201 0.172337 0.033718 -0.160645
C10   C     C_2   0.340564 0.762640 0.890562 -0.114560
C11   C     C_2   0.311267 0.171807 0.966364 -0.164469
C12   C     C_2   0.658425 0.761574 0.111630 -0.114808
C13   C     C_2   0.189472 0.669984 0.032006 -0.161432
C14   C     C_2   0.838204 0.266189 0.895934 -0.108742
C15   C     C_2   0.810495 0.669188 0.968154 -0.162318
C16   C     C_2   0.162027 0.266830 0.104015 -0.111317
C17   C     C_2   0.758931 0.156710 0.961837 -0.092703
C18   C     C_2   0.305257 0.712437 0.876017 -0.112148
C19   C     C_2   0.241257 0.157564 0.037839 -0.102281
C20   C     C_2   0.695042 0.712025 0.124262 -0.112333
C21   C     C_2   0.259301 0.654898 0.960587 -0.092249
C22   C     C_2   0.805331 0.214614 0.878223 -0.116629
C23   C     C_2   0.740519 0.654689 0.039372 -0.092594
C24   C     C_2   0.195821 0.215955 0.120783 -0.126452
C25   C     C_R   0.616826 0.099564 0.589269 -0.140843
C26   C     C_R   0.397953 0.864893 0.412420 -0.020955
C27   C     C_R   0.383276 0.098445 0.410119 -0.104966
C28   C     C_R   0.602156 0.865144 0.587770 -0.045291
C29   C     C_R   0.116149 0.599114 0.590440 -0.143128
C30   C     C_R   0.900141 0.361834 0.412752 -0.127809
C31   C     C_R   0.883781 0.598995 0.409605 -0.137563
C32   C     C_R   0.100668 0.363828 0.588295 -0.055759
C33   C     C_R   0.690909 0.098412 0.407226 -0.103477
C34   C     C_R   0.329989 0.861809 0.594401 -0.249349
C35   C     C_R   0.309175 0.098511 0.592340 -0.133792
C36   C     C_R   0.671200 0.863158 0.405588 -0.246798
C37   C     C_R   0.190891 0.598132 0.408185 -0.102332
C38   C     C_R   0.832436 0.359646 0.594709 -0.214518
C39   C     C_R   0.809130 0.598064 0.591854 -0.104624
C40   C     C_R   0.167012 0.359147 0.406650 -0.250416
C41   C     C_R   0.573851 0.115704 0.204878 -0.244787
C42   C     C_R   0.433416 0.869123 0.778039 -0.206076
C43   C     C_R   0.426244 0.115414 0.795098 -0.244024
C44   C     C_R   0.566167 0.868524 0.223031 -0.207138
C45   C     C_R   0.074032 0.614974 0.204340 -0.238983
C46   C     C_R   0.932379 0.370961 0.780641 -0.203457
C47   C     C_R   0.925915 0.614657 0.795774 -0.241113
C48   C     C_R   0.068038 0.371561 0.218615 -0.241209
C49   C     C_R   0.356118 0.138814 0.855392 0.058737
C50   C     C_R   0.630120 0.832587 0.177629 0.077902
C51   C     C_R   0.644001 0.139273 0.144746 0.057593
C52   C     C_R   0.369033 0.833741 0.824503 0.076204
C53   C     C_R   0.855646 0.637586 0.856388 0.058593
C54   C     C_R   0.133189 0.337615 0.170332 0.078197
C55   C     C_R   0.144285 0.638114 0.143762 0.056716
C56   C     C_R   0.867232 0.336873 0.829063 0.075285
C57   C     C_R   0.688190 0.108725 0.496474 0.090419
C58   C     C_R   0.344022 0.821140 0.506532 0.156140
C59   C     C_R   0.312322 0.107974 0.502586 0.083365
C60   C     C_R   0.656704 0.821959 0.493672 0.159436
C61   C     C_R   0.187270 0.608002 0.498452 0.080366
C62   C     C_R   0.847436 0.317845 0.507412 0.132118
C63   C     C_R   0.812677 0.607835 0.501655 0.079378
C64   C     C_R   0.153159 0.319104 0.494775 0.161837
C65   C     C_R   0.183000 0.137068 0.598674 -0.087948
C66   C     C_R   0.748911 0.708235 0.389581 -0.009417
C67   C     C_R   0.818820 0.138528 0.401891 0.042966
C68   C     C_R   0.251298 0.707754 0.610871 -0.008319
C69   C     C_R   0.684036 0.636515 0.596558 -0.034681
C70   C     C_R   0.245977 0.206539 0.391124 -0.098034
C71   C     C_R   0.316003 0.636526 0.403970 -0.034161
C72   C     C_R   0.753659 0.205906 0.611358 0.030691
C73   C     C_R   0.650774 0.701492 0.590876 0.452673
C74   C     C_R   0.269639 0.135591 0.402351 0.448845
C75   C     C_R   0.349673 0.701023 0.409697 0.453007
C76   C     C_R   0.729553 0.135923 0.599263 0.471306
C77   C     C_R   0.148202 0.199983 0.592380 0.447264
C78   C     C_R   0.771148 0.635830 0.399733 0.481035
C79   C     C_R   0.855632 0.195188 0.413118 0.442273
C80   C     C_R   0.228650 0.635679 0.600736 0.480500
C81   C     C_R   0.687333 0.744329 0.490037 -0.125203
C82   C     C_R   0.252429 0.119122 0.502733 -0.034743
C83   C     C_R   0.313241 0.743645 0.510421 -0.123650
C84   C     C_R   0.748153 0.120829 0.496779 -0.208865
C85   C     C_R   0.183836 0.241933 0.491273 -0.089253
C86   C     C_R   0.752979 0.617595 0.500887 -0.169454
C87   C     C_R   0.817857 0.239575 0.512428 -0.200261
C88   C     C_R   0.246844 0.617865 0.499510 -0.170829
H1    H     H_    0.594506 0.096492 0.674410 0.132688
H2    H     H_    0.417480 0.857751 0.329382 0.129383
H3    H     H_    0.404852 0.093266 0.325464 0.147836
H4    H     H_    0.582340 0.857942 0.670977 0.128869
H5    H     H_    0.093793 0.594830 0.675545 0.130166
H6    H     H_    0.921408 0.350509 0.329459 0.142050
H7    H     H_    0.906044 0.594657 0.324563 0.130255
H8    H     H_    0.080890 0.356359 0.671444 0.128842
H9    H     H_    0.737991 0.092446 0.323583 0.117310
H10   H     H_    0.293292 0.848786 0.678730 0.154859
H11   H     H_    0.261352 0.093660 0.676158 0.123948
H12   H     H_    0.709863 0.852540 0.320868 0.154800
H13   H     H_    0.239069 0.592405 0.324725 0.116752
H14   H     H_    0.797850 0.344639 0.678492 0.147238
H15   H     H_    0.760966 0.592296 0.675353 0.117643
H16   H     H_    0.200034 0.341954 0.323656 0.153969
H17   H     H_    0.543055 0.116796 0.177523 0.133876
H18   H     H_    0.467076 0.857534 0.798453 0.138825
H19   H     H_    0.457113 0.116409 0.822325 0.133593
H20   H     H_    0.532575 0.856888 0.202510 0.139646
H21   H     H_    0.043294 0.615591 0.176876 0.134066
H22   H     H_    0.965829 0.359973 0.801615 0.137833
H23   H     H_    0.956628 0.615179 0.823282 0.133861
H24   H     H_    0.035009 0.361067 0.196749 0.143430
H25   H     H_    0.299917 0.722868 0.813919 0.147088
H26   H     H_    0.783024 0.111271 0.976181 0.195122
H27   H     H_    0.701745 0.722914 0.184724 0.149715
H28   H     H_    0.216429 0.113265 0.023368 0.198559
H29   H     H_    0.802661 0.223616 0.813014 0.141586
H30   H     H_    0.283699 0.610804 0.976147 0.197040
H31   H     H_    0.199931 0.225814 0.184317 0.141420
H32   H     H_    0.715738 0.611275 0.023674 0.197395
H33   H     H_    0.346328 0.752453 0.952508 0.149288
H34   H     H_    0.666604 0.217489 0.016033 0.159494
H35   H     H_    0.651412 0.750923 0.051195 0.148592
H36   H     H_    0.334594 0.215727 0.984486 0.158427
H37   H     H_    0.841636 0.257316 0.960632 0.152044
H38   H     H_    0.166596 0.713781 0.013023 0.158090
H39   H     H_    0.157324 0.257084 0.040844 0.154545
H40   H     H_    0.833678 0.712319 0.987341 0.158093
N1    N     N_R   0.388930 0.078160 0.705470 -0.106736
N2    N     N_R   0.611070 0.921840 0.294530 -0.106426
N3    N     N_R   0.611070 0.078160 0.294530 -0.107154
N4    N     N_R   0.388930 0.921840 0.705470 -0.106095
N5    N     N_R   0.888930 0.578160 0.705470 -0.107204
N6    N     N_R   0.111070 0.421840 0.294530 -0.106214
N7    N     N_R   0.111070 0.578160 0.294530 -0.107159
N8    N     N_R   0.888930 0.421840 0.705470 -0.107911
N9    N     N_R   0.580500 0.077840 0.556650 -0.037218
N10   N     N_R   0.419500 0.922160 0.443350 -0.048173
N11   N     N_R   0.419500 0.077840 0.443350 -0.043656
N12   N     N_R   0.580500 0.922160 0.556650 -0.047715
N13   N     N_R   0.080500 0.577840 0.556650 -0.035956
N14   N     N_R   0.919500 0.422160 0.443350 -0.036684
N15   N     N_R   0.919500 0.577840 0.443350 -0.035689
N16   N     N_R   0.080500 0.422160 0.556650 -0.046919
N17   N     N_R   0.626210 0.077590 0.443410 -0.050106
N18   N     N_R   0.373790 0.922410 0.556590 -0.049254
N19   N     N_R   0.373790 0.077590 0.556590 -0.048451
N20   N     N_R   0.626210 0.922410 0.443410 -0.049183
N21   N     N_R   0.126210 0.577590 0.443410 -0.050301
N22   N     N_R   0.873790 0.422410 0.556590 -0.048587
N23   N     N_R   0.873790 0.577590 0.556590 -0.050540
N24   N     N_R   0.126210 0.422410 0.443410 -0.050360
N25   N     N_R   0.554800 0.077270 0.294580 -0.059673
N26   N     N_R   0.445200 0.922730 0.705420 -0.060138
N27   N     N_R   0.445200 0.077270 0.705420 -0.058500
N28   N     N_R   0.554800 0.922730 0.294580 -0.061161
N29   N     N_R   0.054800 0.577270 0.294580 -0.057946
N30   N     N_R   0.945200 0.422730 0.705420 -0.059829
N31   N     N_R   0.945200 0.577270 0.705420 -0.058422
N32   N     N_R   0.054800 0.422730 0.294580 -0.056155
Ni1   Ni    Ni4+2 0.382710 0.000000 0.629850 0.196239
Ni2   Ni    Ni4+2 0.617290 0.000000 0.370150 0.194399
Ni3   Ni    Ni4+2 0.882710 0.500000 0.629850 0.193745
Ni4   Ni    Ni4+2 0.117290 0.500000 0.370150 0.194097
Ni5   Ni    Ni4+2 0.513020 0.000000 0.629850 0.203313
Ni6   Ni    Ni4+2 0.486980 0.000000 0.370150 0.211973
Ni7   Ni    Ni4+2 0.013020 0.500000 0.629850 0.202931
Ni8   Ni    Ni4+2 0.986980 0.500000 0.370150 0.205632
O1    O     O_3   0.265212 0.110828 0.838499 -0.792942
H41   H     H_    0.261538 0.063332 0.806783 0.290170
O2    O     O_3   0.732131 0.877762 0.156916 -0.790020
H42   H     H_    0.740511 0.925997 0.181939 0.297896
O3    O     O_3   0.734854 0.111014 0.161444 -0.792545
H43   H     H_    0.738633 0.062930 0.192187 0.289186
O4    O     O_3   0.267427 0.878886 0.844073 -0.788278
H44   H     H_    0.259564 0.926125 0.816668 0.298613
O5    O     O_3   0.765085 0.610361 0.838601 -0.793546
H45   H     H_    0.761685 0.563468 0.805691 0.290720
O6    O     O_3   0.233420 0.382045 0.155347 -0.784728
H46   H     H_    0.240095 0.426724 0.187901 0.298718
O7    O     O_3   0.234932 0.610704 0.161292 -0.793042
H47   H     H_    0.238307 0.563775 0.194274 0.291353
O8    O     O_3   0.766609 0.381745 0.845730 -0.784961
H48   H     H_    0.759654 0.427140 0.814445 0.298542
C89   C     C_3   0.141094 0.080478 0.696278 -0.393772
C90   C     C_3   0.156855 0.994309 0.659890 -0.218308
C91   C     C_3   0.105432 0.939810 0.757231 -0.954529
H49   H     H_    0.114795 0.943065 0.817347 0.270044
H50   H     H_    0.049230 0.955796 0.799271 0.274366
H51   H     H_    0.113843 0.878907 0.726855 0.256649
H52   H     H_    0.151078 0.984661 0.596262 0.213655
H53   H     H_    0.212246 0.979032 0.623469 0.202584
H54   H     H_    0.150125 0.092965 0.755288 0.181886
H55   H     H_    0.083050 0.088326 0.743311 0.220849
C92   C     C_3   0.791630 0.746648 0.275766 -0.379521
C93   C     C_3   0.863934 0.711460 0.177390 -0.158235
C94   C     C_3   0.904412 0.766628 0.077729 -1.024675
H56   H     H_    0.868100 0.792791 0.066064 0.299188
H57   H     H_    0.929856 0.814416 0.088985 0.282005
H58   H     H_    0.946736 0.733742 0.001789 0.265396
H59   H     H_    0.897647 0.699817 0.200457 0.207682
H60   H     H_    0.854842 0.656309 0.150761 0.247204
H61   H     H_    0.758192 0.745155 0.251398 0.194077
H62   H     H_    0.803824 0.807102 0.284625 0.194447
C95   C     C_3   0.859388 0.089106 0.297344 -0.322122
C96   C     C_3   0.849521 0.001210 0.323998 -0.292174
C97   C     C_3   0.898069 0.952223 0.219394 -0.930817
H63   H     H_    0.881211 0.957176 0.168858 0.269782
H64   H     H_    0.954456 0.971365 0.169545 0.272796
H65   H     H_    0.894789 0.890178 0.242878 0.254874
H66   H     H_    0.862551 0.988405 0.378415 0.214608
H67   H     H_    0.793332 0.983558 0.368186 0.204942
H68   H     H_    0.845270 0.104986 0.245685 0.173002
H69   H     H_    0.917440 0.101267 0.243110 0.241312
C98   C     C_3   0.208619 0.745842 0.724759 -0.380346
C99   C     C_3   0.135132 0.711810 0.821860 -0.156538
C100  C     C_3   0.094270 0.767259 0.920911 -1.024022
H70   H     H_    0.129957 0.792581 0.934403 0.297662
H71   H     H_    0.070294 0.815528 0.907512 0.282985
H72   H     H_    0.050805 0.734815 0.996610 0.265573
H73   H     H_    0.102490 0.701107 0.796633 0.206676
H74   H     H_    0.142457 0.656269 0.850177 0.247000
H75   H     H_    0.241208 0.742585 0.750573 0.192190
H76   H     H_    0.198108 0.806981 0.715569 0.197459
C101  C     C_3   0.641218 0.579819 0.693972 -0.393566
C102  C     C_3   0.658261 0.493509 0.658284 -0.228156
C103  C     C_3   0.606874 0.439020 0.755689 -0.945471
H77   H     H_    0.614991 0.443773 0.817166 0.268963
H78   H     H_    0.550703 0.453743 0.795980 0.273042
H79   H     H_    0.616601 0.377831 0.725757 0.255936
H80   H     H_    0.653569 0.482672 0.593673 0.211033
H81   H     H_    0.713529 0.479231 0.623341 0.201373
H82   H     H_    0.648516 0.593226 0.754852 0.179827
H83   H     H_    0.583451 0.586996 0.738116 0.217726
C104  C     C_3   0.289810 0.245169 0.277086 -0.403135
C105  C     C_3   0.365748 0.214646 0.183263 -0.206807
C106  C     C_3   0.406170 0.270029 0.083788 -0.980281
H84   H     H_    0.370456 0.293987 0.069523 0.293301
H85   H     H_    0.429716 0.319073 0.096695 0.278164
H86   H     H_    0.449969 0.237898 0.008287 0.260486
H87   H     H_    0.396356 0.207746 0.212716 0.209187
H88   H     H_    0.363255 0.157817 0.152184 0.217526
H89   H     H_    0.259719 0.239094 0.247156 0.191868
H90   H     H_    0.297261 0.307299 0.287631 0.214613
C107  C     C_3   0.358639 0.579449 0.307407 -0.390520
C108  C     C_3   0.341452 0.493427 0.344847 -0.231631
C109  C     C_3   0.392791 0.438485 0.248599 -0.948630
H91   H     H_    0.385259 0.443208 0.186445 0.269512
H92   H     H_    0.448929 0.452948 0.208946 0.273640
H93   H     H_    0.382360 0.377445 0.279524 0.257539
H94   H     H_    0.346035 0.483507 0.409760 0.210685
H95   H     H_    0.286189 0.478830 0.379880 0.200223
H96   H     H_    0.351075 0.591973 0.246627 0.179322
H97   H     H_    0.416472 0.586866 0.262682 0.217412
C110  C     C_3   0.710658 0.244109 0.725127 -0.381094
C111  C     C_3   0.636700 0.210786 0.821408 -0.162073
C112  C     C_3   0.596337 0.266147 0.920603 -1.020944
H98   H     H_    0.632475 0.291891 0.932894 0.298239
H99   H     H_    0.571799 0.314303 0.908060 0.281286
H100  H     H_    0.553492 0.233581 0.996674 0.264866
H101  H     H_    0.604254 0.201509 0.795544 0.206945
H102  H     H_    0.643201 0.154503 0.849400 0.246261
H103  H     H_    0.742589 0.239973 0.752017 0.188254
H104  H     H_    0.701141 0.305634 0.715528 0.199128
O9    O     O_3   0.582234 0.722204 0.681292 -0.780444
H105  H     H_    0.576729 0.714775 0.748747 0.303092
O10   O     O_3   0.307358 0.080621 0.319802 -0.789583
H106  H     H_    0.285632 0.078547 0.284132 0.315713
O11   O     O_3   0.418416 0.721559 0.319468 -0.781675
H107  H     H_    0.424050 0.714425 0.251878 0.303534
O12   O     O_3   0.688618 0.083647 0.685713 -0.798604
H108  H     H_    0.687693 0.032892 0.656083 0.312955
O13   O     O_3   0.079355 0.219941 0.682584 -0.777870
H109  H     H_    0.074523 0.215233 0.749761 0.305346
O14   O     O_3   0.811022 0.584506 0.312071 -0.796914
H110  H     H_    0.812419 0.533035 0.339892 0.314393
O15   O     O_3   0.927602 0.205955 0.327178 -0.786182
H111  H     H_    0.950229 0.220378 0.359288 0.322871
O16   O     O_3   0.188599 0.584170 0.688399 -0.797397
H112  H     H_    0.187033 0.532845 0.660561 0.311607

loop_
_geom_bond_atom_site_label_1
_geom_bond_atom_site_label_2
_ccdc_geom_bond_type
C70   C85   A    
C68   C80   A    
C22   H29   S    
N6    N32   A    
O2    H42   S    
C65   C89   S    
N7    N29   A    
C111  H102  S    
N25   Ni6   S    
C8    N8    A    
C18   C21   S    
O1    H41   S    
C14   C56   S    
O14   H110  S    
C9    C51   S    
C59   C82   S    
C7    C55   A    
C89   H55   S    
C72   C76   A    
C10   H33   S    
C10   C52   S    
C98   H76   S    
C76   C84   A    
N9    Ni5   S    
C66   C92   S    
C65   C82   A    
N13   N21   A    
C4    N4    A    
C47   N31   A    
C95   C96   S    
C100  H72   S    
C5    N5    A    
N22   Ni3   S    
C48   N32   A    
C11   C19   D    
C14   H37   S    
C41   H17   S    
C4    C52   A    
C3    N3    A    
C101  H83   S    
C15   C53   S    
C5    C53   A    
C42   N26   A    
N2    N28   A    
C10   C18   D    
C1    N1    A    
C6    O6    S    
C91   H50   S    
C43   N27   A    
C92   H61   S    
N17   Ni2   S    
C35   N19   A    
C44   C50   A    
C102  H80   S    
C46   N30   A    
C76   O12   S    
C39   N23   A    
O11   H107  S    
C105  C106  S    
C40   N24   A    
C35   C59   A    
C112  H98   S    
C60   C81   S    
N14   N22   A    
C105  H88   S    
C90   H52   S    
C94   H57   S    
C68   C98   S    
N4    Ni1   S    
C91   H51   S    
C2    C50   A    
C106  H84   S    
C99   H73   S    
C96   H66   S    
C36   N20   A    
C103  H77   S    
N31   Ni7   S    
C4    O4    S    
C28   N12   A    
C70   C74   A    
C80   O16   S    
N4    N26   A    
C104  C105  S    
C95   H68   S    
N26   Ni5   S    
C27   H3    S    
C45   H21   S    
O9    H105  S    
C44   H20   S    
C67   C95   S    
C2    O2    S    
C47   C53   A    
N8    N30   A    
C78   C86   A    
C13   C55   S    
C15   C23   D    
O12   H108  S    
N16   N24   A    
C77   C85   A    
C67   C84   A    
C16   C24   D    
C71   C75   A    
O15   H111  S    
C90   H53   S    
C8    C56   A    
C25   C57   A    
C78   O14   S    
C6    C54   A    
C35   H11   S    
N5    Ni3   S    
N29   Ni8   S    
C73   C81   A    
C29   H5    S    
C3    O3    S    
C17   H26   S    
C9    H34   S    
C41   N25   A    
C108  H94   S    
C109  H92   S    
C66   C78   A    
N18   Ni1   S    
C29   C61   A    
N13   Ni7   S    
C65   C77   A    
C7    O7    S    
N16   Ni7   S    
C13   C21   D    
C97   H63   S    
C44   N28   A    
C31   C63   A    
N3    N25   A    
C67   C79   A    
C99   C100  S    
C32   C64   A    
C20   H27   S    
C28   H4    S    
N19   Ni1   S    
C89   H54   S    
C23   H32   S    
N1    N27   A    
C107  C108  S    
C3    C51   A    
C96   C97   S    
C43   C49   A    
C108  H95   S    
C92   H62   S    
C75   O11   S    
N3    Ni2   S    
C26   N10   A    
C100  H70   S    
O3    H43   S    
C107  H96   S    
C27   N11   A    
C25   N9    A    
O6    H46   S    
C69   C101  S    
N5    N31   A    
C105  H87   S    
O7    H47   S    
C94   H58   S    
C48   C54   A    
C98   C99   S    
C47   H23   S    
O8    H48   S    
C7    N7    A    
C21   H30   S    
C11   C49   S    
C61   C88   S    
C77   O13   S    
C97   H65   S    
C42   H18   S    
C74   O10   S    
C37   C61   A    
O4    H44   S    
C2    N2    A    
C20   C23   S    
N28   Ni6   S    
C79   O15   S    
C29   N13   A    
C111  C112  S    
C12   C20   D    
C101  C102  S    
C57   C84   S    
N1    Ni1   S    
C36   H12   S    
N21   Ni4   S    
C43   H19   S    
C69   C73   A    
C71   C88   A    
C26   C58   A    
C104  H89   S    
N24   Ni4   S    
C28   C60   A    
C73   O9    S    
O5    H45   S    
C13   H38   S    
N11   N19   A    
C8    O8    S    
C9    C17   D    
C48   H24   S    
C110  H103  S    
C95   H69   S    
C5    O5    S    
N23   Ni3   S    
C15   H40   S    
C106  H85   S    
C63   C86   S    
N30   Ni7   S    
C45   N29   A    
C100  H71   S    
C71   C107  S    
C72   C110  S    
C93   H60   S    
C110  C111  S    
C64   C85   S    
C75   C83   A    
C72   C87   A    
C34   C58   A    
C74   C82   A    
C109  H93   S    
N9    N17   A    
N12   Ni5   S    
C108  C109  S    
C24   H31   S    
C33   C57   A    
C79   C87   A    
C32   H8    S    
C68   C83   A    
C38   H14   S    
C37   N21   A    
C93   C94   S    
C36   C60   A    
C98   H75   S    
N12   N20   A    
C12   C50   S    
O10   H106  S    
C39   H15   S    
C41   C51   A    
C26   H2    S    
C39   C63   A    
C62   C87   S    
C46   C56   A    
C25   H1    S    
C17   C22   S    
C30   N14   A    
N10   N18   A    
N10   Ni6   S    
C112  H100  S    
N20   Ni2   S    
C14   C22   D    
C30   C62   A    
C40   H16   S    
C90   C91   S    
O16   H112  S    
C101  H82   S    
C91   H49   S    
C80   C88   A    
C103  H78   S    
C27   C59   A    
C58   C83   S    
C66   C81   A    
C37   H13   S    
C34   N18   A    
N2    Ni2   S    
C89   C90   S    
C12   H35   S    
C19   H28   S    
N27   Ni5   S    
C102  H81   S    
C40   C64   A    
N15   N23   A    
C34   H10   S    
N6    Ni4   S    
C19   C24   S    
C33   H9    S    
C70   C104  S    
N32   Ni8   S    
C31   N15   A    
C94   H56   S    
C16   H39   S    
C16   C54   S    
N15   Ni8   S    
C32   N16   A    
C99   H74   S    
C31   H7    S    
C107  H97   S    
N14   Ni8   S    
C92   C93   S    
C96   H67   S    
C6    N6    A    
C103  H79   S    
C110  H104  S    
C45   C55   A    
C30   H6    S    
C102  C103  S    
C106  H86   S    
C1    O1    S    
C97   H64   S    
N11   Ni6   S    
C18   H25   S    
C46   H22   S    
C11   H36   S    
C112  H99   S    
C93   H59   S    
C111  H101  S    
N7    Ni4   S    
C1    C49   A    
C38   N22   A    
C69   C86   A    
C33   N17   A    
C109  H91   S    
C42   C52   A    
C104  H90   S    
C38   C62   A    
N8    Ni3   S    
O13   H109  S    
