data_mof_unit_39292.cif
_audit_creation_date              2012-12-10T17:58:21-0500
_audit_creation_method            fapswitch 2.2
_symmetry_space_group_name_H-M    P1
_symmetry_Int_Tables_number       1
_space_group_crystal_system       triclinic
_cell_length_a                    9.52246
_cell_length_b                    10.853032
_cell_length_c                    15.502067
_cell_angle_alpha                 90.703282
_cell_angle_beta                  74.450406
_cell_angle_gamma                 91.65758
_cell_volume                      1542.79914018

loop_
_atom_site_label
_atom_site_type_symbol
_atom_type_description
_atom_site_fract_x
_atom_site_fract_y
_atom_site_fract_z
_atom_type_partial_charge
C1    C     C_R   0.997452 0.261888 0.499913 0.892572
C2    C     C_R   0.001663 0.737612 0.501134 0.890434
C3    C     C_R   0.585701 0.463064 0.093716 -0.041680
C4    C     C_R   0.423967 0.576217 0.910206 -0.029847
C5    C     C_R   0.725138 0.430789 0.043598 0.615086
C6    C     C_R   0.288257 0.615361 0.962092 0.610615
C7    C     C_R   0.905596 0.055894 0.457444 -0.104403
C8    C     C_R   0.074262 0.940954 0.556853 -0.090105
C9    C     C_R   0.925339 0.929312 0.450647 0.572460
C10   C     C_R   0.073113 0.069417 0.552580 0.564220
C11   C     C_R   0.005137 0.871314 0.501441 -0.278164
C12   C     C_R   0.991554 0.127463 0.502307 -0.279477
C13   C     C_R   0.545974 0.430818 0.560160 -0.276641
C14   C     C_R   0.453610 0.570844 0.440829 -0.262742
C15   C     C_R   0.397225 0.430970 0.560336 0.700199
C16   C     C_R   0.602430 0.570396 0.440473 0.724352
C17   C     C_R   0.918709 0.500354 0.671853 0.832117
C18   C     C_R   0.081605 0.500649 0.327916 0.831144
C19   C     C_R   0.875935 0.490636 0.769213 -0.160219
C20   C     C_R   0.125810 0.519410 0.230880 -0.146410
C21   C     C_R   0.909771 0.405585 0.903816 0.714770
C22   C     C_R   0.099093 0.626670 0.101870 0.724514
C23   C     C_R   0.959348 0.424394 0.812467 -0.239646
C24   C     C_R   0.045101 0.594260 0.191098 -0.201508
C25   C     C_R   0.745219 0.540224 0.818250 -0.241114
C26   C     C_R   0.259201 0.475928 0.180111 -0.209733
C27   C     C_R   0.678607 0.504950 0.907254 -0.017788
C28   C     C_R   0.329060 0.524057 0.094828 -0.024015
C29   C     C_R   0.769801 0.445112 0.951724 -0.113391
C30   C     C_R   0.240386 0.591353 0.052999 -0.108068
C31   C     C_R   0.528968 0.529975 0.953802 -0.025253
C32   C     C_R   0.480012 0.504229 0.048963 -0.026982
Cu1   Cu    Cu3+1 0.140660 0.500020 0.500000 0.992614
Cu2   Cu    Cu3+1 0.859340 0.499980 0.500000 0.993827
H1    H     H_    0.303390 0.402362 0.208717 0.175980
H2    H     H_    0.702435 0.609301 0.785096 0.174796
H3    H     H_    0.940923 0.628625 0.229156 0.230124
H4    H     H_    0.062593 0.386965 0.775675 0.231169
H5    H     H_    0.579117 0.375576 0.608472 0.188335
H6    H     H_    0.420075 0.627350 0.393292 0.189134
N1    N     N_R   0.352080 0.500030 0.499980 -0.250339
N2    N     N_R   0.647920 0.499970 0.500020 -0.251020
O1    O     O_R   0.118740 0.319660 0.500000 -0.498030
O2    O     O_R   0.881260 0.680340 0.500000 -0.502145
O3    O     O_R   0.881170 0.319630 0.500010 -0.612776
O4    O     O_R   0.118830 0.680370 0.499990 -0.606194
O5    O     O_R   0.055570 0.500030 0.629830 -0.530274
O6    O     O_R   0.944430 0.499970 0.370170 -0.526803
O7    O     O_R   0.818000 0.500000 0.629840 -0.610318
O8    O     O_R   0.182000 0.500000 0.370160 -0.612655
F1    F     F_    0.822729 0.390986 0.086603 -0.627267
F2    F     F_    0.194447 0.666128 0.920968 -0.652292
F3    F     F_    0.997192 0.344059 0.943939 -0.594998
F4    F     F_    0.013881 0.695746 0.064845 -0.597929
C33   C     C_3   0.564552 0.453018 0.194479 -0.321909
C34   C     C_3   0.548622 0.315746 0.221941 -0.329215
C35   C     C_3   0.491308 0.298771 0.322255 -0.862811
H7    H     H_    0.476509 0.198642 0.336458 0.249129
H8    H     H_    0.570715 0.338600 0.356475 0.250847
H9    H     H_    0.384298 0.342304 0.347732 0.285300
H10   H     H_    0.474963 0.264550 0.188492 0.215771
H11   H     H_    0.655831 0.270989 0.200292 0.281902
H12   H     H_    0.661827 0.493555 0.212334 0.249768
H13   H     H_    0.477356 0.511422 0.234510 0.194674
C36   C     C_3   0.437972 0.577667 0.809609 -0.317100
C37   C     C_3   0.465266 0.710378 0.772117 -0.356007
C38   C     C_3   0.503141 0.712190 0.670279 -0.847132
H14   H     H_    0.607238 0.665112 0.641755 0.283501
H15   H     H_    0.414502 0.666489 0.646555 0.249229
H16   H     H_    0.516155 0.809010 0.646536 0.241188
H17   H     H_    0.366633 0.765514 0.797890 0.269285
H18   H     H_    0.553507 0.759016 0.794555 0.211487
H19   H     H_    0.515909 0.510210 0.771342 0.197031
H20   H     H_    0.334228 0.541565 0.797511 0.237398
C39   C     C_3   0.768847 0.101759 0.436870 -0.285006
C40   C     C_3   0.643017 0.090948 0.523120 -0.370790
C41   C     C_3   0.494097 0.106869 0.506980 -0.753908
H21   H     H_    0.484342 0.202056 0.485492 0.263563
H22   H     H_    0.476092 0.040091 0.455885 0.247560
H23   H     H_    0.408900 0.090123 0.570526 0.291988
H24   H     H_    0.642410 0.998254 0.553120 0.228212
H25   H     H_    0.659293 0.160521 0.572927 0.230512
H26   H     H_    0.781828 0.196018 0.408998 0.203041
H27   H     H_    0.741164 0.044371 0.383562 0.251276
C42   C     C_3   0.134365 0.882019 0.627607 -0.325700
C43   C     C_3   0.008973 0.834175 0.705506 -0.422152
C44   C     C_3   0.065838 0.775681 0.777897 -0.661010
H28   H     H_    0.135864 0.696884 0.749793 0.258505
H29   H     H_    0.129128 0.845099 0.806286 0.274624
H30   H     H_    0.972662 0.741235 0.832676 0.275589
H31   H     H_    0.938530 0.912027 0.735572 0.245585
H32   H     H_    0.940482 0.764690 0.681317 0.197112
H33   H     H_    0.210162 0.807607 0.598536 0.209749
H34   H     H_    0.201070 0.949590 0.655090 0.242965
F5    F     F_    0.856309 0.860622 0.399512 -0.615168
F6    F     F_    0.138427 0.138716 0.605232 -0.635666
F7    F     F_    0.299178 0.361542 0.621154 -0.618374
F8    F     F_    0.700315 0.640397 0.380014 -0.613080

loop_
_geom_bond_atom_site_label_1
_geom_bond_atom_site_label_2
_ccdc_geom_bond_type
C33   C34   S    
C27   C29   A    
Cu2   N2    S    
C44   H28   S    
C39   H26   S    
C22   F4    S    
C41   H21   S    
C2    O4    A    
C22   C24   A    
C43   H31   S    
C4    C36   S    
C39   H27   S    
C35   H8    S    
C36   H19   S    
C34   C35   S    
C8    C42   S    
C42   H33   S    
C1    O1    A    
C37   H18   S    
C37   H17   S    
C2    O2    A    
C33   H12   S    
C9    F5    S    
C34   H11   S    
C37   C38   S    
Cu1   O4    S    
C1    C12   S    
C3    C33   S    
C15   F7    S    
C2    C11   S    
C13   N2    A    
C24   H3    S    
C5    C29   A    
C41   H22   S    
C7    C12   A    
C27   C31   A    
C38   H14   S    
Cu1   O1    S    
C20   C24   A    
C28   C32   A    
Cu2   O2    S    
C40   C41   S    
C15   N1    A    
C4    C6    A    
C40   H25   S    
C43   C44   S    
C35   H9    S    
C7    C39   S    
Cu1   O8    S    
C42   C43   S    
C21   C29   A    
C36   H20   S    
C38   H15   S    
C19   C23   A    
C39   C40   S    
C42   H34   S    
C31   C32   A    
C10   F6    S    
C33   H13   S    
Cu1   Cu2   S    
Cu2   O3    S    
C9    C11   A    
C10   C12   A    
C14   N1    A    
C6    C30   A    
C13   C15   A    
Cu1   O5    S    
C14   C16   A    
Cu2   O6    S    
C17   O7    A    
C16   N2    A    
C18   O8    A    
C41   H23   S    
C7    C9    A    
Cu2   O7    S    
C22   C30   A    
C17   O5    A    
C3    C5    A    
C18   O6    A    
C40   H24   S    
C25   C27   A    
C23   H4    S    
C26   C28   A    
C38   H16   S    
Cu1   N1    S    
C21   C23   A    
C43   H32   S    
C21   F3    S    
C1    O3    A    
C35   H7    S    
C20   C26   A    
C8    C11   A    
C28   C30   A    
C17   C19   S    
C18   C20   S    
C3    C32   A    
C19   C25   A    
C13   H5    S    
C4    C31   A    
C25   H2    S    
C14   H6    S    
C16   F8    S    
C26   H1    S    
C8    C10   A    
C36   C37   S    
C44   H30   S    
C44   H29   S    
C34   H10   S    
C5    F1    S    
C6    F2    S    
