data_mof_unit_26590.cif
_audit_creation_date              2012-10-26T18:50:48-0400
_audit_creation_method            fapswitch 2.2
_symmetry_space_group_name_H-M    P1
_symmetry_Int_Tables_number       1
_space_group_crystal_system       triclinic
_cell_length_a                    12.435539
_cell_length_b                    13.289674
_cell_length_c                    17.164083
_cell_angle_alpha                 107.028924
_cell_angle_beta                  73.954083
_cell_angle_gamma                 116.980379
_cell_volume                      2382.50513316

loop_
_atom_site_label
_atom_site_type_symbol
_atom_type_description
_atom_site_fract_x
_atom_site_fract_y
_atom_site_fract_z
_atom_type_partial_charge
C1    C     C_R   0.144563 0.713908 0.509613 0.554684
C2    C     C_R   0.999373 0.457307 0.257616 0.010545
C3    C     C_R   0.736277 0.961558 0.460388 0.232024
C4    C     C_R   0.982944 0.498525 0.652518 0.553291
C5    C     C_R   0.772509 0.164741 0.500354 -0.022318
C6    C     C_R   0.179188 0.911891 0.583507 -0.160684
C7    C     C_R   0.255113 0.011794 0.628691 -0.124290
C8    C     C_R   0.381374 0.041375 0.614725 0.313767
C9    C     C_R   0.434289 0.979999 0.544609 0.090498
C10   C     C_R   0.356154 0.875571 0.500000 -0.014318
C11   C     C_R   0.563235 0.016276 0.519119 0.050648
C12   C     C_R   0.857643 0.472801 0.796551 0.064725
C13   C     C_R   0.609917 0.933592 0.472372 -0.061186
C14   C     C_R   0.532677 0.831804 0.428412 -0.097832
C15   C     C_R   0.411226 0.811373 0.433510 0.123064
C16   C     C_R   0.855398 0.286678 0.495009 0.558230
C17   C     C_R   0.644783 0.133321 0.528963 0.226061
C18   C     C_R   0.817739 0.077651 0.474777 0.100439
C19   C     C_R   0.226996 0.837377 0.525294 -0.022755
C20   C     C_R   0.636837 0.663802 0.643904 0.110140
C21   C     C_R   0.252419 0.352362 0.386244 0.208948
C22   C     C_R   0.342549 0.307787 0.368664 0.215792
C23   C     C_R   0.870581 0.367450 0.151151 -0.146712
C24   C     C_R   0.431259 0.353010 0.420332 0.274910
C25   C     C_R   0.441277 0.452762 0.482552 -0.066024
C26   C     C_R   0.342785 0.489796 0.502548 0.089373
C27   C     C_R   0.544197 0.515263 0.527506 -0.073500
C28   C     C_R   0.009379 0.489540 0.346490 0.556646
C29   C     C_R   0.535983 0.597200 0.601007 0.047446
C30   C     C_R   0.428540 0.614256 0.629580 0.235397
C31   C     C_R   0.345171 0.577860 0.575899 0.231326
C32   C     C_R   0.657145 0.502346 0.501930 0.071440
C33   C     C_R   0.743421 0.644185 0.615286 0.233319
C34   C     C_R   0.881922 0.398144 0.234452 0.056512
C35   C     C_R   0.968514 0.489562 0.739050 -0.047501
C36   C     C_R   0.068572 0.492070 0.763164 -0.111310
C37   C     C_R   0.064388 0.485050 0.842862 0.034609
C38   C     C_R   0.956392 0.472525 0.901078 0.099549
C39   C     C_R   0.852919 0.466480 0.878482 0.305989
C40   C     C_R   0.104397 0.476985 0.194578 0.108069
C41   C     C_R   0.091639 0.440712 0.111324 0.296960
C42   C     C_R   0.974159 0.391179 0.089935 -0.036538
C43   C     C_2   0.953062 0.472788 0.987350 0.148282
C44   C     C_2   0.960010 0.384630 0.006328 -0.130921
Cu1   Cu    Cu3+1 0.900140 0.524980 0.518800 1.014383
Cu2   Cu    Cu3+1 0.099860 0.475020 0.481200 1.020025
H1    H     H_    0.151648 0.498535 0.719434 0.181959
H2    H     H_    0.962559 0.071516 0.501698 0.253167
H3    H     H_    0.719338 0.804287 0.443806 0.320312
H4    H     H_    0.636575 0.270561 0.601405 0.349821
H5    H     H_    0.399978 0.154198 0.718253 0.328516
H6    H     H_    0.336268 0.652752 0.363090 0.257414
H7    H     H_    0.272594 0.744894 0.365921 0.225357
H8    H     H_    0.822789 0.702528 0.717577 0.202044
H9    H     H_    0.876250 0.797381 0.654249 0.195175
H10   H     H_    0.725141 0.278793 0.282983 0.252363
H11   H     H_    0.718506 0.405071 0.288653 0.242631
H12   H     H_    0.570033 0.776359 0.380811 0.150930
H13   H     H_    0.322416 0.662612 0.726889 0.343015
H14   H     H_    0.648269 0.738297 0.764991 0.238697
H15   H     H_    0.702133 0.832987 0.700241 0.220204
H16   H     H_    0.198884 0.317143 0.276441 0.201418
H17   H     H_    0.111942 0.216163 0.335953 0.226435
H18   H     H_    0.477876 0.221205 0.375349 0.384294
H19   H     H_    0.286614 0.199495 0.267182 0.328058
H20   H     H_    0.318348 0.718017 0.617955 0.320804
H21   H     H_    0.232240 0.621846 0.246229 0.234596
H22   H     H_    0.244845 0.498291 0.245787 0.247157
H23   H     H_    0.081554 0.886669 0.601448 0.146436
H24   H     H_    0.684935 0.456213 0.916049 0.366905
H25   H     H_    0.730228 0.388648 0.720878 0.247906
H26   H     H_    0.759326 0.531227 0.758384 0.255471
H27   H     H_    0.022759 0.609376 0.078121 0.240413
H28   H     H_    0.867458 0.542527 0.093138 0.259147
H29   H     H_    0.155044 0.413357 0.874129 0.223498
H30   H     H_    0.193862 0.556056 0.916448 0.274937
H31   H     H_    0.213876 0.060941 0.679494 0.108998
H32   H     H_    0.675710 0.447350 0.445217 0.222242
H33   H     H_    0.964960 0.311532 0.958523 0.102658
H34   H     H_    0.780332 0.328385 0.134290 0.152237
H35   H     H_    0.175936 0.407379 0.000158 0.312629
H36   H     H_    0.971387 0.066639 0.400807 0.263772
N1    N     N_R   0.749710 0.562810 0.547300 -0.235862
N2    N     N_3   0.747914 0.455473 0.772477 -0.629568
N3    N     N_3   0.945977 0.570742 0.049033 -0.568960
N4    N     N_3   0.172569 0.492998 0.863146 -0.605573
N5    N     N_R   0.249640 0.437820 0.453210 -0.218766
N6    N     N_3   0.946509 0.106330 0.460959 -0.575945
N7    N     N_3   0.353464 0.737638 0.363944 -0.612780
N8    N     N_3   0.847861 0.710931 0.655795 -0.552061
N9    N     N_3   0.773240 0.368250 0.295318 -0.588167
N10   N     N_3   0.633451 0.754658 0.713766 -0.532808
N11   N     N_3   0.158478 0.304340 0.336777 -0.543704
N12   N     N_3   0.226066 0.540936 0.212475 -0.544511
O1    O     O_R   0.025490 0.682370 0.523640 -0.473488
O2    O     O_3   0.783802 0.878865 0.431040 -0.703594
O3    O     O_3   0.596637 0.215029 0.554378 -0.609866
O4    O     O_3   0.451470 0.121213 0.673122 -0.679621
O5    O     O_3   0.409541 0.675240 0.709115 -0.647386
O6    O     O_3   0.502177 0.295067 0.415437 -0.687844
O7    O     O_3   0.345624 0.218188 0.303024 -0.720458
O8    O     O_3   0.271055 0.635008 0.596873 -0.658958
O9    O     O_3   0.748632 0.452704 0.937883 -0.668853
O10   O     O_R   0.194150 0.640180 0.491890 -0.448782
O11   O     O_R   0.905900 0.523560 0.631310 -0.495087
O12   O     O_R   0.074570 0.481370 0.599560 -0.445188
O13   O     O_R   0.805850 0.359820 0.508110 -0.481139
O14   O     O_R   0.974510 0.317630 0.476360 -0.445618
O15   O     O_R   0.925430 0.518630 0.400440 -0.472712
O16   O     O_R   0.094100 0.476440 0.368690 -0.505932
O17   O     O_3   0.196826 0.461262 0.052736 -0.649584

loop_
_geom_bond_atom_site_label_1
_geom_bond_atom_site_label_2
_ccdc_geom_bond_type
C6    H23   S    
C21   N5    A    
C27   C29   A    
H13   O5    S    
C41   C42   A    
H20   O8    S    
C35   C36   A    
H19   O7    S    
C7    C8    A    
Cu1   Cu2   S    
C6    C19   A    
C20   N10   S    
C29   C30   A    
C23   C42   A    
C36   H1    S    
C36   C37   A    
H8    N8    S    
H9    N8    S    
C10   C15   A    
C38   C39   A    
Cu1   O15   S    
C5    C17   A    
C12   N2    S    
C3    C18   A    
C8    O4    S    
C34   N9    S    
C5    C16   S    
C16   O13   A    
H10   N9    S    
H35   O17   S    
C8    C9    A    
Cu2   O14   S    
H21   N12   S    
H2    N6    S    
C3    O2    S    
C23   H34   S    
C9    C10   A    
C3    C13   A    
H15   N10   S    
C7    H31   S    
C2    C34   A    
H5    O4    S    
C4    C35   S    
C26   C31   A    
H28   N3    S    
C13   C14   A    
H6    N7    S    
Cu1   N1    S    
C42   C44   S    
Cu1   O11   S    
C20   C29   A    
H14   N10   S    
C14   H12   S    
C1    C19   S    
C43   N3    S    
C31   O8    S    
C4    O12   A    
C37   N4    S    
C24   C25   A    
H24   O9    S    
C26   N5    A    
C5    C18   A    
C28   O16   A    
C25   C26   A    
Cu2   O10   S    
C30   O5    S    
H22   N12   S    
H25   N2    S    
C43   C44   D    
C37   C38   A    
C15   N7    S    
C33   N1    A    
H29   N4    S    
C10   C19   A    
C1    O1    A    
C23   C34   A    
C12   C35   A    
C9    C11   A    
C1    O10   A    
H27   N3    S    
H26   N2    S    
C20   C33   A    
C40   C41   A    
C22   O7    S    
Cu2   O16   S    
H7    N7    S    
C22   C24   A    
Cu1   O1    S    
H30   N4    S    
Cu2   N5    S    
C32   N1    A    
C11   C17   A    
H4    O3    S    
H11   N9    S    
C27   C32   A    
C24   O6    S    
C44   H33   S    
C40   N12   S    
C39   O9    S    
C6    C7    A    
C28   O15   A    
C25   C27   A    
C4    O11   A    
H17   N11   S    
C12   C39   A    
C38   C43   S    
C33   N8    S    
C11   C13   A    
C30   C31   A    
C21   N11   S    
H36   N6    S    
Cu2   O12   S    
H3    O2    S    
C18   N6    S    
C16   O14   A    
C32   H32   S    
C2    C40   A    
H18   O6    S    
C41   O17   S    
H16   N11   S    
C14   C15   A    
C2    C28   S    
C21   C22   A    
C17   O3    S    
Cu1   O13   S    
