data_mof_unit_28742.cif
_audit_creation_date              2013-03-05T15:45:56-0500
_audit_creation_method            fapswitch 2.2
_symmetry_space_group_name_H-M    P1
_symmetry_Int_Tables_number       1
_space_group_crystal_system       triclinic
_cell_length_a                    8.537437
_cell_length_b                    15.508366
_cell_length_c                    19.347085
_cell_angle_alpha                 98.393915
_cell_angle_beta                  94.175179
_cell_angle_gamma                 98.485275
_cell_volume                      2494.72880043

loop_
_atom_site_label
_atom_site_type_symbol
_atom_site_description
_atom_site_fract_x
_atom_site_fract_y
_atom_site_fract_z
_atom_type_partial_charge
P1    P     P_3+3 0.990670 0.707470 0.561860 0.579273
O1    O     O_2   0.164990 0.721870 0.541490 -0.298371
O2    O     O_3   0.893010 0.608480 0.539150 -0.448151
O3    O     O_3   0.389100 0.667490 0.413860 -0.337154
O4    O     O_2   0.320557 0.823066 0.467509 -0.370453
O5    O     O_3   0.032080 0.746438 0.653407 -0.538565
O6    O     O_3   0.377157 0.810662 0.338885 -0.552448
C1    C     C_3   0.523095 0.848817 0.243950 -0.972285
H1    H     H_    0.421272 0.879696 0.225021 0.307363
H2    H     H_    0.612251 0.901008 0.277258 0.212439
P2    P     P_3+3 0.340140 0.430100 0.338890 0.405815
P3    P     P_3+3 0.923426 0.606589 0.284793 0.499495
O7    O     O_2   0.172070 0.457600 0.329050 -0.381178
O8    O     O_3   0.964370 0.622050 0.377340 -0.423019
O9    O     O_2   0.037692 0.546344 0.253244 -0.324643
O10   O     O_3   0.268477 0.313985 0.330208 -0.674821
O11   O     O_3   0.995805 0.707907 0.259817 -0.412712
C2    C     C_3   0.899713 0.769718 0.284160 0.342675
H3    H     H_    0.869841 0.765130 0.338685 -0.045124
H4    H     H_    0.789666 0.758810 0.248061 0.044575
C3    C     C_3   0.986638 0.863142 0.285002 0.091252
H5    H     H_    0.099283 0.874740 0.319844 0.154275
C4    C     C_3   0.807018 0.352442 0.319491 0.433506
H6    H     H_    0.692531 0.373558 0.328156 0.103494
H7    H     H_    0.903989 0.405148 0.344437 0.123371
C5    C     C_3   0.825775 0.337746 0.241048 -0.841087
H8    H     H_    0.754417 0.274768 0.214252 0.317733
H9    H     H_    0.788767 0.392431 0.216304 0.242108
H10   H     H_    0.951546 0.336007 0.232650 0.207299
Ba1   Ba    Ba6+2 0.161750 0.544670 0.467760 1.628123
C6    C     C_3   0.020306 0.680920 0.696053 0.265986
H11   H     H_    0.132925 0.654085 0.698479 0.067944
H12   H     H_    0.910177 0.633479 0.679409 0.127016
C7    C     C_3   0.006579 0.720602 0.771445 0.080376
H13   H     H_    0.091706 0.783342 0.785594 0.103362
H14   H     H_    0.886400 0.736316 0.774594 0.094336
C8    C     C_3   0.298813 0.251303 0.272365 1.198516
C9    C     C_3   0.261856 0.272891 0.197379 -0.132903
H15   H     H_    0.191312 0.327325 0.197699 0.058118
H16   H     H_    0.186320 0.213764 0.164376 0.182328
P4    P     P_3+3 0.819620 0.292520 0.438080 0.544305
O12   O     O_2   0.645300 0.278070 0.458480 -0.288192
O13   O     O_3   0.917280 0.391520 0.460790 -0.480806
O14   O     O_3   0.421200 0.332510 0.586090 -0.347189
O15   O     O_3   0.804306 0.272865 0.346188 -0.511926
P5    P     P_3+3 0.878622 0.389269 0.714817 0.553223
O16   O     O_3   0.383620 0.545480 0.584560 -0.354659
O17   O     O_3   0.845920 0.377940 0.622610 -0.390725
O18   O     O_2   0.768673 0.452541 0.745112 -0.317239
O19   O     O_3   0.803842 0.289549 0.740362 -0.485532
Ba2   Ba    Ba6+2 0.648430 0.455320 0.532180 1.614818
P6    P     P_3+3 0.438568 0.783081 0.420179 0.497516
C10   C     C_3   0.465118 0.775856 0.285890 1.067897
H17   H     H_    0.568856 0.747634 0.305842 -0.184998
H18   H     H_    0.579622 0.820920 0.197561 0.246055
O20   O     O_3   0.426680 0.454510 0.415380 -0.467688
C11   C     C_3   0.523863 0.751586 0.699870 1.006328
C12   C     C_3   0.580269 0.819161 0.768719 0.849697
H19   H     H_    0.666137 0.788573 0.799243 -0.095181
P7    P     P_3+3 0.463970 0.566165 0.674478 0.553902
O21   O     O_2   0.638220 0.542340 0.670930 -0.336296
O22   O     O_3   0.462596 0.672651 0.722917 -0.677326
H20   H     H_    0.911032 0.911616 0.305665 0.040663
C13   C     C_3   0.840189 0.220777 0.691552 0.400330
H21   H     H_    0.778742 0.219964 0.638867 0.055234
H22   H     H_    0.970684 0.227637 0.688194 0.003188
C14   C     C_3   0.781792 0.133174 0.714597 0.161768
H23   H     H_    0.649844 0.120028 0.710620 0.134088
H24   H     H_    0.817106 0.080558 0.676486 0.010504
P8    P     P_3+3 0.367429 0.216079 0.577076 0.443008
C15   C     C_3   0.362323 0.213483 0.713722 0.934356
H25   H     H_    0.293836 0.267477 0.703379 -0.094216
O23   O     O_2   0.484777 0.180186 0.527948 -0.390677
O24   O     O_3   0.424267 0.174868 0.653219 -0.610261
H26   H     H_    0.139487 0.124436 0.702525 0.053560
C16   C     C_3   0.248374 0.142130 0.739364 -0.016434
H27   H     H_    0.306968 0.083243 0.742096 0.102666
C17   C     C_R   0.652757 0.828001 0.456882 -0.011494
H28   H     H_    0.538467 0.946447 0.393236 0.174096
C18   C     C_R   0.893693 0.793858 0.517740 0.131480
C19   C     C_R   0.063528 0.228111 0.513686 0.232685
C20   C     C_R   0.160952 0.170077 0.534879 0.055025
C21   C     C_R   0.106569 0.079374 0.521752 -0.366425
C22   C     C_R   0.947724 0.043287 0.494127 0.070026
C23   C     C_R   0.851608 0.103810 0.466521 -0.229775
C24   C     C_R   0.883452 0.948921 0.491684 -0.097672
C25   C     C_R   0.727911 0.917009 0.457539 -0.139314
C26   C     C_R   0.647475 0.974118 0.424613 -0.345619
C27   C     C_R   0.700340 0.065847 0.430214 0.647617
C28   C     C_R   0.962773 0.884983 0.523822 0.404656
C29   C     C_R   0.737703 0.769292 0.487283 0.208029
C30   C     C_R   0.913123 0.199447 0.476397 0.126995
H29   H     H_    0.193879 0.039004 0.533000 0.238107
C31   C     C_R   0.618110 0.514312 0.290899 -0.454510
C32   C     C_R   0.458197 0.480529 0.271777 0.304799
C33   C     C_R   0.394409 0.487073 0.203565 -0.095895
C34   C     C_R   0.492711 0.523175 0.155188 0.116713
C35   C     C_R   0.652478 0.561732 0.179304 -0.246191
C36   C     C_R   0.714222 0.558865 0.248295 0.182513
C37   C     C_R   0.463025 0.590356 0.043539 -0.120058
C38   C     C_R   0.411442 0.583044 0.971779 -0.149617
C39   C     C_R   0.333275 0.501944 0.932664 0.277653
C40   C     C_R   0.300711 0.429994 0.968924 -0.088834
C41   C     C_R   0.343102 0.438840 0.041301 -0.130213
C42   C     C_R   0.430716 0.517926 0.079475 0.131912
C43   C     C_R   0.125777 0.454385 0.826804 0.360092
C44   C     C_R   0.085098 0.436143 0.753334 0.037359
C45   C     C_R   0.352304 0.501159 0.733776 0.076680
C46   C     C_R   0.397734 0.515243 0.807650 0.305343
C47   C     C_R   0.284064 0.491563 0.854726 -0.322515
C48   C     C_R   0.198934 0.460213 0.707909 0.108898
H30   H     H_    0.431260 0.641648 0.947598 0.104229
H31   H     H_    0.525570 0.653272 0.071301 0.145191
H32   H     H_    0.269207 0.464720 0.187603 0.144135
H33   H     H_    0.241119 0.366408 0.941239 0.190783
H34   H     H_    0.308547 0.382491 0.066536 0.194807
H35   H     H_    0.729343 0.591633 0.144269 0.157601
H36   H     H_    0.671348 0.504466 0.339827 0.068305
Cl1   Cl    Cl    0.336254 0.690604 0.228072 -0.578248
O25   O     O_3   0.021231 0.657211 0.816145 -0.615614
C49   C     C_3   0.152807 0.687141 0.866967 -0.133450
H37   H     H_    0.150376 0.754828 0.895730 0.142265
H38   H     H_    0.265267 0.684490 0.841610 0.162754
H39   H     H_    0.147224 0.642721 0.906839 0.185713
O26   O     O_3   0.213143 0.166103 0.275384 -0.660876
C50   C     C_3   0.052579 0.166349 0.286542 -0.165041
H40   H     H_    0.042657 0.200646 0.339966 0.147628
H41   H     H_    0.994279 0.096647 0.283450 0.195184
H42   H     H_    0.989575 0.194197 0.244796 0.144858
Cl2   Cl    Cl    0.493214 0.230590 0.286069 -0.578302
Cl3   Cl    Cl    0.432591 0.289581 0.149028 -0.642732
Cl4   Cl    Cl    0.690437 0.737803 0.651804 -0.758964
O27   O     O_3   0.397565 0.779661 0.661754 -0.632165
C51   C     C_3   0.451244 0.839376 0.616726 -0.071853
H43   H     H_    0.554687 0.890042 0.638910 0.121531
H44   H     H_    0.354786 0.875372 0.603155 0.220278
H45   H     H_    0.482613 0.801228 0.568593 0.205160
O28   O     O_3   0.650466 0.903023 0.754294 -0.686420
C52   C     C_3   0.813956 0.924179 0.779775 -0.270772
H46   H     H_    0.879107 0.869635 0.764274 0.117340
H47   H     H_    0.829147 0.946459 0.838048 0.184174
H48   H     H_    0.871407 0.977577 0.753416 0.219236
O29   O     O_3   0.453803 0.825620 0.812560 -0.665887
C53   C     C_3   0.377057 0.899296 0.806669 -0.105948
H49   H     H_    0.319788 0.895366 0.752646 0.149241
H50   H     H_    0.459792 0.962853 0.823303 0.172484
H51   H     H_    0.282362 0.899237 0.843098 0.132840
O30   O     O_3   0.856195 0.130051 0.781871 -0.578064
C54   C     C_3   0.750885 0.141202 0.834598 0.167670
H52   H     H_    0.634997 0.097367 0.820405 0.077704
H53   H     H_    0.733861 0.210973 0.847055 0.179989
H54   H     H_    0.805011 0.123547 0.882888 0.126938
O31   O     O_3   0.491604 0.239914 0.766270 -0.658453
C55   C     C_3   0.496753 0.327676 0.797400 0.031112
H55   H     H_    0.389892 0.335405 0.825384 0.109592
H56   H     H_    0.508275 0.370564 0.756662 0.155178
H57   H     H_    0.602181 0.347399 0.836467 0.217489
Cl5   Cl    Cl    0.195327 0.177418 0.825294 -0.611872
O32   O     O_3   0.660622 0.687430 0.493556 -0.576449
C56   C     C_3   0.674402 0.630634 0.432061 0.193418
H58   H     H_    0.759792 0.586747 0.438168 0.133423
H59   H     H_    0.685816 0.662196 0.384208 -0.031141
H60   H     H_    0.569348 0.583060 0.422899 0.167966
O33   O     O_3   0.102762 0.910784 0.566384 -0.604038
C57   C     C_3   0.064932 0.943764 0.634071 -0.221209
H61   H     H_    0.979763 0.894967 0.655356 0.185371
H62   H     H_    0.012074 0.004711 0.633211 0.123761
H63   H     H_    0.176383 0.959076 0.669997 0.144601
O34   O     O_3   0.118816 0.316396 0.529600 -0.618753
C58   C     C_3   0.216257 0.340380 0.478009 0.170582
H64   H     H_    0.300884 0.294511 0.462530 0.095365
H65   H     H_    0.284806 0.405128 0.500333 0.219091
H66   H     H_    0.144562 0.346430 0.430406 0.129026
O35   O     O_3   0.611064 0.118246 0.396023 -0.571485
C59   C     C_3   0.444133 0.087938 0.388699 0.101208
H67   H     H_    0.381118 0.145675 0.391150 0.177514
H68   H     H_    0.401312 0.052952 0.431790 0.068023
H69   H     H_    0.408057 0.045423 0.336944 0.147005
O36   O     O_3   0.557574 0.528380 0.832120 -0.594737
C60   C     C_3   0.624531 0.618322 0.843587 0.074031
H70   H     H_    0.536815 0.664564 0.848859 0.066534
H71   H     H_    0.697266 0.631355 0.800291 0.171145
H72   H     H_    0.705782 0.632255 0.892651 0.147934
Cl6   Cl    Cl    0.976063 0.433663 0.883692 -0.583110
O37   O     O_3   0.163080 0.441309 0.636355 -0.590928
C61   C     C_3   0.075047 0.503801 0.614245 0.212618
H73   H     H_    0.145916 0.566403 0.608868 0.076917
H74   H     H_    0.982244 0.517633 0.647711 0.030220
H75   H     H_    0.013488 0.476568 0.563134 0.209474
Cl7   Cl    Cl    0.029905 0.880519 0.198909 -0.544302

loop_
_geom_bond_atom_site_label_1
_geom_bond_atom_site_label_2
_geom_bond_distance
_ccdc_geom_bond_type
C17   C25   1.431638 A    
Ba1   Ba2   4.710279 S    
C57   H61   1.114973 S    
C4    O15   1.403487 S    
C2    C3    1.524534 S    
C31   H36   1.061129 S    
P4    O12   1.560064 D    
C11   Cl4   1.776827 S    
C32   C33   1.413959 A    
Ba2   O21   2.836551 S    
C25   C26   1.393665 A    
C33   H32   1.081397 S    
C51   H45   1.100530 S    
C19   C20   1.396048 A    
C11   C12   1.566705 S    
C11   O22   1.405462 S    
C59   H68   1.113997 S    
C10   H17   1.113051 S    
O25   C49   1.412853 S    
C38   H30   1.078783 S    
P5    O18   1.539971 D    
C16   Cl5   1.784841 S    
C37   C42   1.409152 A    
C38   C39   1.414500 A    
O3    P6    1.764053 S    
C21   C22   1.421659 A    
O33   C57   1.412652 S    
C22   C24   1.477860 A    
O6    P6    1.753300 S    
C7    H13   1.111052 S    
C54   H53   1.106977 S    
C9    H15   1.106562 S    
C52   H48   1.107367 S    
C43   C44   1.415223 A    
O29   C53   1.412758 S    
C21   H29   1.071828 S    
O19   C13   1.404225 S    
C8    Cl2   1.745328 S    
C2    H4    1.105499 S    
P7    O22   1.777933 S    
P1    O1    1.559833 D    
O34   C58   1.401668 S    
C4    C5    1.525116 S    
O35   C59   1.423222 S    
H28   C26   1.068925 S    
P3    C36   1.873523 S    
O16   P7    1.788364 S    
C41   H34   1.076348 S    
C19   C30   1.403547 A    
C12   O29   1.426779 S    
C23   C27   1.425007 A    
O17   Ba2   2.850329 S    
O37   C61   1.405805 S    
O32   C56   1.396477 S    
P2    Ba1   3.427970 S    
C1    H1    1.116615 S    
C49   H39   1.105763 S    
P3    O11   1.750102 S    
P8    O24   1.753967 S    
C4    H6    1.092250 S    
C6    H12   1.100730 S    
O4    P6    1.546302 D    
O14   P8    1.775766 S    
C19   O34   1.362800 S    
C29   O32   1.367334 S    
P7    C45   1.858681 S    
C60   H72   1.108583 S    
O12   Ba2   2.901465 S    
C34   C42   1.507338 S    
C12   O28   1.424368 S    
O5    C6    1.396408 S    
C55   H56   1.103771 S    
C57   H62   1.107552 S    
C3    H5    1.109409 S    
C33   C34   1.422153 A    
P4    O13   1.617834 S    
C11   O27   1.418629 S    
C39   C40   1.407082 A    
C27   O35   1.394697 S    
O8    Ba1   2.849635 S    
C53   H51   1.110519 S    
P6    C17   1.903681 S    
C1    H18   1.112165 S    
C41   C42   1.411947 A    
C23   C30   1.478147 A    
C60   H71   1.102846 S    
C34   C35   1.421591 A    
C59   H69   1.111125 S    
C8    O26   1.424004 S    
C7    O25   1.413783 S    
P5    O17   1.764296 S    
C48   O37   1.374558 S    
C3    H20   1.111142 S    
C14   H23   1.109726 S    
C56   H60   1.059977 S    
O7    Ba1   2.836295 S    
C22   C23   1.466099 A    
C55   H57   1.107783 S    
C53   H50   1.114831 S    
C24   C28   1.464679 A    
C54   H54   1.100236 S    
O2    Ba2   2.902062 S    
C24   C25   1.423922 A    
C2    H3    1.112943 S    
C51   H44   1.098053 S    
C50   H42   1.111432 S    
C12   H19   1.110210 S    
Ba1   O20   2.991866 S    
P1    O5    1.777777 S    
C28   O33   1.373294 S    
P7    O21   1.588714 D    
C14   H24   1.108926 S    
C13   H22   1.111001 S    
O2    Ba1   2.980509 S    
C40   H33   1.084529 S    
H26   C16   1.103907 S    
C13   C14   1.517366 S    
C8    C9    1.556498 S    
C52   H47   1.122068 S    
Ba1   O16   2.838306 S    
P2    O10   1.793561 S    
C46   O36   1.386919 S    
C6    H11   1.103211 S    
P3    O9    1.544774 D    
P5    C44   1.861051 S    
P8    O23   1.538093 D    
O11   C2    1.403658 S    
C55   H55   1.106831 S    
C6    C7    1.517925 S    
C16   H27   1.110010 S    
C43   Cl6   1.770670 S    
C49   H37   1.117835 S    
O14   Ba2   2.874535 S    
P3    O8    1.773256 S    
C35   C36   1.408280 A    
C57   H63   1.110719 S    
C5    H8    1.106534 S    
O27   C51   1.412433 S    
Ba1   O13   2.901393 S    
C39   C47   1.514266 S    
O6    C10   1.405957 S    
C61   H74   1.085031 S    
C15   C16   1.526385 S    
C14   O30   1.416677 S    
C60   H70   1.110740 S    
C35   H35   1.082529 S    
C43   C47   1.422420 A    
P2    C32   1.888877 S    
P5    O19   1.738162 S    
C50   H41   1.112572 S    
C44   C48   1.403328 A    
C37   H31   1.084956 S    
Ba2   O20   2.837683 S    
C53   H49   1.110583 S    
C1    C10   1.531328 S    
C15   O24   1.409774 S    
O16   Ba2   2.990996 S    
C52   H46   1.097236 S    
C10   Cl1   1.780285 S    
C51   H43   1.105941 S    
C17   C29   1.410654 A    
O10   C8    1.436408 S    
C5    H9    1.106258 S    
C45   C48   1.390894 A    
O1    Ba1   2.900836 S    
C9    Cl3   1.795734 S    
C61   H75   1.081339 S    
C61   H73   1.088451 S    
C15   H25   1.122257 S    
C59   H67   1.107661 S    
C54   H52   1.106290 S    
C56   H58   1.079813 S    
C9    H16   1.122047 S    
P2    O7    1.562544 D    
O13   Ba2   2.981251 S    
C3    Cl7   1.781773 S    
O26   C50   1.403604 S    
C58   H65   1.095669 S    
C31   C36   1.388365 A    
C18   C29   1.391548 A    
C50   H40   1.106323 S    
C13   H21   1.109400 S    
P1    Ba1   3.457693 S    
C7    H14   1.092873 S    
O30   C54   1.416616 S    
C4    H7    1.101534 S    
C18   C28   1.433243 A    
C31   C32   1.390693 A    
P8    C20   1.879397 S    
C49   H38   1.112904 S    
O28   C52   1.419972 S    
O36   C60   1.406246 S    
C45   C46   1.429690 A    
P4    C30   1.958693 S    
C26   C27   1.413337 A    
C5    H10   1.101259 S    
C1    H2    1.115451 S    
C20   C21   1.394464 A    
C58   H64   1.112969 S    
C40   C41   1.402176 A    
P1    C18   1.940951 S    
P4    O15   1.751261 S    
C37   C38   1.408749 A    
P1    O2    1.617704 S    
O31   C55   1.398663 S    
C46   C47   1.423853 A    
P4    Ba2   3.458229 S    
O3    Ba1   2.875151 S    
P2    O20   1.572849 S    
C56   H59   1.112479 S    
C58   H66   1.091674 S    
C15   O31   1.414652 S    
