data_mof_unit_35595.cif
_audit_creation_date              2012-12-11T20:57:51-0500
_audit_creation_method            fapswitch 2.2
_symmetry_space_group_name_H-M    P1
_symmetry_Int_Tables_number       1
_space_group_crystal_system       triclinic
_cell_length_a                    8.253116
_cell_length_b                    18.793748
_cell_length_c                    22.827455
_cell_angle_alpha                 99.926059
_cell_angle_beta                  89.635527
_cell_angle_gamma                 91.468555
_cell_volume                      3486.5446992

loop_
_atom_site_label
_atom_site_type_symbol
_atom_type_description
_atom_site_fract_x
_atom_site_fract_y
_atom_site_fract_z
_atom_type_partial_charge
Ba1   Ba    Ba6+2 0.157800 0.534120 0.474430 1.642471
Ba2   Ba    Ba6+2 0.652390 0.465870 0.525520 1.647913
C1    C     C_3   0.362085 0.703567 0.261899 -0.308445
C2    C     C_R   0.072176 0.904715 0.560253 -0.086333
C3    C     C_R   0.211520 0.047025 0.548549 -0.104504
C4    C     C_3   0.913304 0.725908 0.354228 0.348176
C5    C     C_R   0.056801 0.023019 0.525942 0.019178
C6    C     C_R   0.268768 0.117243 0.548434 -0.069946
C7    C     C_R   0.174827 0.167253 0.525835 -0.016512
C8    C     C_R   0.023844 0.143673 0.499042 -0.012592
C9    C     C_R   0.965194 0.071133 0.498471 0.023380
C10   C     C_R   0.227069 0.240235 0.529185 0.070203
C11   C     C_R   0.126100 0.289101 0.508862 -0.263906
C12   C     C_3   0.390533 0.684808 0.323089 0.320477
C13   C     C_R   0.983147 0.266291 0.478407 0.032514
C14   C     C_R   0.932642 0.192370 0.472087 -0.045599
C15   C     C_R   0.844218 0.928293 0.500330 0.025921
C16   C     C_3   0.928928 0.800807 0.337781 -0.361225
C17   C     C_R   0.785391 0.855802 0.500006 -0.001627
C18   C     C_R   0.876118 0.807353 0.527449 -0.039477
C19   C     C_R   0.013885 0.834595 0.560169 -0.020878
C20   C     C_R   0.794748 0.165316 0.439379 -0.015322
C21   C     C_R   0.736722 0.095070 0.438948 -0.089047
C22   C     C_R   0.815674 0.047383 0.470349 0.011134
C23   C     C_3   0.481556 0.687516 0.622213 0.304886
C24   C     C_R   0.752937 0.976295 0.472581 0.018921
C25   C     C_R   0.599026 0.951962 0.449350 -0.102774
C26   C     C_R   0.634992 0.832024 0.472802 -0.035105
C27   C     C_R   0.541970 0.881713 0.449429 -0.088577
C28   C     C_3   0.825226 0.374876 0.343197 0.324848
C29   C     C_R   0.581993 0.759265 0.469992 -0.001864
C30   C     C_R   0.680387 0.710888 0.492397 -0.304272
C31   C     C_R   0.825048 0.733557 0.521850 0.040547
C32   C     C_R   0.642959 0.524953 0.335585 -0.304703
C33   C     C_R   0.385085 0.555252 0.945852 -0.024878
C34   C     C_3   0.482488 0.769118 0.641365 -0.382758
C35   C     C_R   0.335728 0.550804 0.886297 0.588711
C36   C     C_R   0.269074 0.424419 0.879806 0.584457
C37   C     C_R   0.317403 0.427093 0.939448 -0.023651
C38   C     C_R   0.375893 0.492976 0.972521 -0.052412
C39   C     C_R   0.443500 0.620656 0.979337 -0.074336
C40   C     C_3   0.829532 0.356173 0.275422 0.233687
C41   C     C_R   0.492077 0.624251 0.038208 -0.073840
C42   C     C_R   0.483556 0.562577 0.065491 -0.017412
C43   C     C_R   0.425306 0.496687 0.032552 -0.053026
C44   C     C_R   0.309731 0.365379 0.966707 -0.067493
C45   C     C_3   0.902873 0.276117 0.651111 0.665460
C46   C     C_R   0.359168 0.368973 0.025631 -0.066835
C47   C     C_R   0.417109 0.434478 0.059277 -0.028106
C48   C     C_R   0.467163 0.439142 0.118965 0.596282
C49   C     C_R   0.531133 0.565673 0.125105 0.575449
C50   C     C_2   0.083337 0.462409 0.772320 -0.072059
C51   C     C_3   0.035489 0.472450 0.710278 -0.030779
C52   C     C_3   0.996247 0.628882 0.657607 0.291605
C53   C     C_1   0.310883 0.507525 0.693361 0.010082
C54   C     C_2   0.355652 0.506138 0.748781 -0.099027
C55   C     C_2   0.235600 0.482532 0.791813 0.205171
C56   C     C_3   0.844723 0.200738 0.660545 0.230926
C57   C     C_R   0.712111 0.542718 0.235826 -0.084551
C58   C     C_R   0.750831 0.550289 0.296214 -0.029677
C59   C     C_R   0.500809 0.487686 0.314785 0.024986
C60   C     C_R   0.459082 0.481483 0.254472 -0.114883
C61   C     C_R   0.563582 0.509790 0.214282 0.205000
C62   C     C_2   0.180180 0.472473 0.670187 -0.278873
C63   C     C_3   0.032304 0.656726 0.723031 -0.359448
C64   C     C_3   0.319507 0.312939 0.390958 0.315196
C65   C     C_3   0.322629 0.231355 0.371380 -0.365372
C66   C     C_3   0.445041 0.317157 0.676167 0.281201
C67   C     C_3   0.461550 0.298558 0.738059 -0.322246
C68   C     C_R   0.993668 0.952104 0.528470 0.014044
H1    H     H_    0.952943 0.338376 0.260896 0.099165
H2    H     H_    0.276679 0.203366 0.407262 0.037941
H3    H     H_    0.448750 0.214382 0.360446 0.133266
H4    H     H_    0.519521 0.670585 0.326539 -0.038268
H5    H     H_    0.358831 0.653360 0.228353 0.120408
H6    H     H_    0.607730 0.670646 0.611563 0.023107
H7    H     H_    0.405082 0.673768 0.581774 0.058327
H8    H     H_    0.530848 0.795757 0.604887 0.057136
H9    H     H_    0.357193 0.787512 0.652016 0.118039
H10   H     H_    0.460535 0.740433 0.250806 0.126810
H11   H     H_    0.869922 0.840805 0.372229 0.076319
H12   H     H_    0.108980 0.608981 0.634896 0.019673
H13   H     H_    0.858332 0.282128 0.606454 0.000769
H14   H     H_    0.711834 0.195255 0.653884 0.082517
H15   H     H_    0.900898 0.158623 0.626668 -0.000937
H16   H     H_    0.333456 0.348067 0.674574 0.042422
H17   H     H_    0.471908 0.349098 0.771244 0.112007
H18   H     H_    0.571646 0.266685 0.740780 0.172134
H19   H     H_    0.975212 0.727341 0.397541 0.077112
H20   H     H_    0.353877 0.266559 0.748784 0.142850
H21   H     H_    0.388093 0.131531 0.566565 0.113862
H22   H     H_    0.728272 0.198009 0.413805 0.103984
H23   H     H_    0.904469 0.584151 0.653780 0.050886
H24   H     H_    0.423358 0.867161 0.430737 0.116735
H25   H     H_    0.293855 0.012236 0.565841 0.073975
H26   H     H_    0.630018 0.079481 0.412455 0.063497
H27   H     H_    0.782262 0.712656 0.358760 -0.055527
H28   H     H_    0.351314 0.320162 0.044842 0.131955
H29   H     H_    0.265714 0.313916 0.942481 0.130466
H30   H     H_    0.536186 0.675737 0.062371 0.125485
H31   H     H_    0.452050 0.669431 0.960088 0.127032
H32   H     H_    0.991595 0.447980 0.802794 0.105605
H33   H     H_    0.346447 0.454170 0.238871 0.121809
H34   H     H_    0.118284 0.703777 0.727335 0.150397
H35   H     H_    0.675206 0.529978 0.382011 0.084461
H36   H     H_    0.180304 0.441451 0.625397 0.085912
H37   H     H_    0.869298 0.801141 0.294357 0.128217
H38   H     H_    0.700838 0.388916 0.358115 -0.016645
H39   H     H_    0.908878 0.421803 0.357293 0.005232
H40   H     H_    0.311439 0.637463 0.327535 0.106115
H41   H     H_    0.609826 0.322567 0.255542 0.326841
H42   H     H_    0.804377 0.404522 0.255397 -0.037713
H43   H     H_    0.193257 0.329107 0.400737 -0.002264
H44   H     H_    0.560238 0.785116 0.681225 0.136998
H45   H     H_    0.087495 0.614560 0.744186 0.076657
H46   H     H_    0.106701 0.280958 0.692981 0.313027
H47   H     H_    0.990424 0.169873 0.717090 0.314277
H48   H     H_    0.549073 0.351075 0.667506 0.116553
H49   H     H_    0.164135 0.345345 0.513866 0.061487
H50   H     H_    0.079895 0.802186 0.586140 0.096617
H51   H     H_    0.640311 0.655065 0.489013 0.076360
H52   H     H_    0.178490 0.920582 0.586917 0.063112
H53   H     H_    0.517192 0.986426 0.431458 0.072879
H54   H     H_    0.798252 0.561609 0.205629 0.114390
H55   H     H_    0.477131 0.523576 0.763634 0.119732
H56   H     H_    0.918400 0.673734 0.746987 0.123253
H57   H     H_    0.058832 0.816662 0.334672 0.140063
H58   H     H_    0.395660 0.327860 0.431348 0.059031
H59   H     H_    0.244171 0.730323 0.260560 0.148255
H60   H     H_    0.245156 0.214925 0.331495 0.138494
N1    N     N_R   0.280017 0.485769 0.853750 -0.429187
N2    N     N_R   0.520082 0.504679 0.151849 -0.425662
O1    O     O_2   0.110690 0.676100 0.539200 -0.468862
O2    O     O_2   0.708324 0.453170 0.701780 -0.515242
O3    O     O_3   0.840189 0.329361 0.696211 -0.606380
O4    O     O_3   0.863220 0.586720 0.534720 -0.482459
O5    O     O_3   0.450900 0.461390 0.429220 -0.485442
O6    O     O_2   0.599830 0.538970 0.641850 -0.455489
O7    O     O_3   0.419432 0.654580 0.668677 -0.631224
O8    O     O_2   0.567055 0.241952 0.527338 -0.513728
O9    O     O_3   0.442345 0.253898 0.633672 -0.611034
O10   O     O_2   0.340773 0.605105 0.863495 -0.591744
O11   O     O_2   0.218701 0.367395 0.850917 -0.595183
O12   O     O_3   0.378784 0.345578 0.344403 -0.628227
O13   O     O_2   0.465677 0.384580 0.141378 -0.585378
O14   O     O_2   0.581489 0.623069 0.153344 -0.614760
O15   O     O_3   0.368310 0.629070 0.432760 -0.487571
O16   O     O_2   0.243782 0.756790 0.474779 -0.488425
O17   O     O_3   0.935976 0.686117 0.633362 -0.641287
O18   O     O_3   0.351428 0.744240 0.366528 -0.610921
O19   O     O_2   0.210480 0.460990 0.358130 -0.467981
O20   O     O_3   0.959520 0.592090 0.401630 -0.485278
O21   O     O_2   0.087219 0.543151 0.295054 -0.503666
O22   O     O_3   0.717574 0.300168 0.255014 -0.670382
O23   O     O_3   0.986529 0.675793 0.309713 -0.596880
O24   O     O_3   0.072345 0.280023 0.651284 -0.799362
O25   O     O_3   0.879895 0.189715 0.718320 -0.694912
O26   O     O_2   0.699610 0.323860 0.460780 -0.469656
O27   O     O_3   0.947090 0.413280 0.465240 -0.489264
O28   O     O_3   0.442000 0.370930 0.567190 -0.491539
O29   O     O_3   0.873020 0.314657 0.366480 -0.625330
O30   O     O_3   0.359410 0.538600 0.570730 -0.478026
O31   O     O_3   0.850780 0.407910 0.598320 -0.478868
P1    P     P_3+3 0.935930 0.665430 0.555670 0.979350
P2    P     P_3+3 0.382700 0.439650 0.365620 0.989614
P3    P     P_3+3 0.946592 0.588958 0.324909 0.941737
P4    P     P_3+3 0.874370 0.334570 0.444280 0.985799
P5    P     P_3+3 0.863076 0.415166 0.675929 0.958803
P6    P     P_3+3 0.386526 0.722646 0.436875 0.934674
P7    P     P_3+3 0.417570 0.560780 0.645454 0.957099
P8    P     P_3+3 0.421231 0.277030 0.562970 0.941519

loop_
_geom_bond_atom_site_label_1
_geom_bond_atom_site_label_2
_ccdc_geom_bond_type
C53   C54   D    
O1    P1    D    
C64   H43   S    
O21   P3    D    
O6    P7    D    
C66   H16   S    
C36   O11   D    
C17   C18   A    
C44   H29   S    
C34   H44   S    
Ba2   O30   S    
C5    C68   A    
C2    C68   A    
C52   C63   S    
C54   C55   S    
C5    C9    A    
C50   H32   S    
C24   C25   A    
Ba1   O20   S    
C23   H7    S    
C15   C24   A    
C12   H4    S    
C26   C27   A    
C23   O7    S    
C22   C24   A    
Ba1   Ba2   S    
C19   H50   S    
C36   C37   A    
C51   C62   S    
O18   P6    S    
C64   O12   S    
C45   O24   S    
O23   P3    S    
C13   C14   A    
C9    C22   A    
O9    P8    S    
C16   H11   S    
C21   H26   S    
O7    P7    S    
C65   H2    S    
C3    H25   S    
C40   H42   S    
C16   H37   S    
C52   H23   S    
C66   H48   S    
Ba1   P1    S    
C64   H58   S    
C6    C7    A    
O3    P5    S    
Ba1   O19   S    
C65   H3    S    
C43   C47   A    
C52   O17   S    
Ba1   O4    S    
C1    H5    S    
C7    C8    A    
C53   P7    S    
C4    O23   S    
C67   H17   S    
C45   O3    S    
C64   C65   S    
C15   C68   A    
C32   C58   A    
C39   C41   A    
C13   P4    S    
O27   P4    S    
Ba1   O1    S    
C1    H10   S    
O5    P2    S    
C11   H49   S    
O26   P4    D    
C10   P8    S    
C38   C43   A    
C4    C16   S    
C44   C46   A    
C35   O10   D    
C28   H39   S    
H47   O25   S    
Ba2   O6    S    
C4    H27   S    
Ba1   O27   S    
C31   P1    S    
C41   H30   S    
C8    C9    A    
C37   C38   A    
C3    C5    A    
C25   H53   S    
C66   C67   S    
C29   P6    S    
C49   O14   D    
H41   O22   S    
C54   H55   S    
C34   H9    S    
C32   C59   A    
C58   P3    S    
C35   N1    Am   
C30   C31   A    
C41   C42   A    
C60   C61   A    
C56   H14   S    
C16   H57   S    
C51   P5    S    
C29   C30   A    
O30   P7    S    
Ba1   P2    S    
Ba2   O26   S    
C53   C62   D    
C12   O18   S    
O16   P6    D    
C2    H52   S    
C66   O9    S    
O17   P1    S    
C61   N2    S    
C10   C11   A    
C17   C26   A    
C67   H18   S    
O29   P4    S    
C1    C12   S    
C48   N2    Am   
C37   C44   A    
C18   C31   A    
C48   O13   D    
C46   C47   A    
C40   O22   S    
Ba1   O30   S    
O8    P8    D    
C45   H13   S    
C11   C13   A    
O2    P5    D    
Ba1   O15   S    
C65   H60   S    
Ba2   O27   S    
C67   H20   S    
C56   H15   S    
C52   H12   S    
Ba1   O5    S    
C50   C51   S    
C42   C49   A    
C60   H33   S    
O4    P1    S    
C33   C35   A    
C57   H54   S    
C12   H40   S    
C14   C20   A    
C21   C22   A    
C28   H38   S    
C1    H59   S    
C32   H35   S    
C30   H51   S    
C55   N1    S    
C26   C29   A    
C42   C43   A    
C56   O25   S    
Ba2   O31   S    
C3    C6    A    
O20   P3    S    
C49   N2    Am   
C6    H21   S    
C62   H36   S    
Ba2   O5    S    
C4    H19   S    
C46   H28   S    
C57   C61   A    
C63   H34   S    
O12   P2    S    
C23   H6    S    
C36   N1    Am   
C33   C38   A    
C63   H45   S    
C8    C14   A    
C63   H56   S    
C45   C56   S    
C2    C19   A    
C27   H24   S    
C25   C27   A    
C40   H1    S    
C15   C17   A    
O28   P8    S    
C39   H31   S    
O31   P5    S    
C59   P2    S    
C59   C60   A    
C33   C39   A    
C7    C10   A    
Ba2   O4    S    
H46   O24   S    
C50   C55   D    
C23   C34   S    
C57   C58   A    
O19   P2    D    
C18   C19   A    
Ba2   O28   S    
C47   C48   A    
C20   H22   S    
C20   C21   A    
C28   C40   S    
C34   H8    S    
C28   O29   S    
Ba2   P4    S    
O15   P6    S    
