data_mof_unit_22168.cif
_audit_creation_date              2012-12-10T18:43:33-0500
_audit_creation_method            fapswitch 2.2
_symmetry_space_group_name_H-M    P1
_symmetry_Int_Tables_number       1
_space_group_crystal_system       triclinic
_cell_length_a                    19.377141
_cell_length_b                    18.205299
_cell_length_c                    10.889595
_cell_angle_alpha                 90.035944
_cell_angle_beta                  90.69899
_cell_angle_gamma                 90.04833
_cell_volume                      3841.19788863

loop_
_atom_site_label
_atom_site_type_symbol
_atom_type_description
_atom_site_fract_x
_atom_site_fract_y
_atom_site_fract_z
_atom_type_partial_charge
C1    C     C_R   0.367795 0.499903 0.498960 0.928822
C2    C     C_R   0.632273 0.500062 0.501328 0.926930
C3    C     C_R   0.707769 0.499616 0.504691 -0.265093
C4    C     C_R   0.292455 0.498912 0.500789 -0.269192
C5    C     C_R   0.964274 0.559506 0.507380 0.514642
C6    C     C_R   0.036092 0.559503 0.506345 0.510394
C7    C     C_R   0.072415 0.492855 0.510979 -0.322834
C8    C     C_R   0.927956 0.492955 0.516052 -0.312643
C9    C     C_R   0.036178 0.426276 0.519994 0.457709
C10   C     C_R   0.964271 0.426349 0.522851 0.458396
C11   C     C_R   0.482269 0.721442 0.396062 -0.056919
C12   C     C_R   0.517597 0.721258 0.604290 -0.050166
C13   C     C_R   0.482225 0.798649 0.394141 0.443147
C14   C     C_R   0.517571 0.798443 0.606935 0.442182
C15   C     C_R   0.499847 0.838535 0.500733 -0.148973
C16   C     C_R   0.556662 0.960947 0.546580 -0.094804
C17   C     C_R   0.442376 0.960575 0.455918 -0.091499
C18   C     C_R   0.556593 0.038183 0.546374 -0.190673
C19   C     C_R   0.442037 0.037806 0.456494 -0.192057
C20   C     C_R   0.499201 0.078074 0.501545 0.160370
C21   C     C_R   0.498703 0.499955 0.265131 0.870680
C22   C     C_R   0.501184 0.499991 0.734881 0.876455
C23   C     C_R   0.499627 0.921027 0.501125 0.204772
C24   C     C_R   0.465529 0.200843 0.408207 -0.374797
C25   C     C_R   0.533106 0.201139 0.593850 -0.367476
C26   C     C_R   0.464509 0.278487 0.410411 0.558908
C27   C     C_R   0.535404 0.278715 0.589785 0.554552
C28   C     C_R   0.499065 0.160922 0.501440 0.018850
C29   C     C_2   0.498695 0.439212 0.932861 -0.163002
C30   C     C_2   0.501940 0.439243 0.067068 -0.158098
C31   C     C_2   0.505355 0.500884 0.867057 -0.290402
C32   C     C_2   0.494229 0.500753 0.132991 -0.297013
C33   C     C_R   0.743581 0.454720 0.421947 0.341871
C34   C     C_R   0.258962 0.461191 0.595504 0.339216
C35   C     C_R   0.815870 0.453633 0.426268 -0.269282
C36   C     C_R   0.186841 0.460276 0.598105 -0.243589
C37   C     C_R   0.852091 0.493123 0.516672 0.051802
C38   C     C_R   0.148101 0.492800 0.503407 0.045935
C39   C     C_R   0.815905 0.534608 0.604204 0.442727
C40   C     C_R   0.181864 0.526302 0.403629 0.436107
C41   C     C_R   0.743903 0.541497 0.593368 0.237848
C42   C     C_R   0.254147 0.532541 0.405757 0.247445
Cu1   Cu    Cu3+1 0.500000 0.573360 0.500000 0.959650
Cu2   Cu    Cu3+1 0.500000 0.426640 0.500000 0.998933
H1    H     H_    0.491811 0.386449 0.887660 0.187445
H2    H     H_    0.509977 0.386670 0.112183 0.191775
H3    H     H_    0.601955 0.932286 0.580608 0.160708
H4    H     H_    0.397252 0.931604 0.421655 0.164029
H5    H     H_    0.602213 0.066590 0.579638 0.134713
H6    H     H_    0.396327 0.065923 0.423175 0.136068
H7    H     H_    0.441443 0.172098 0.331987 0.157258
H8    H     H_    0.557461 0.172707 0.670033 0.156398
H9    H     H_    0.515584 0.553797 0.908844 0.147895
H10   H     H_    0.483011 0.553437 0.091350 0.145508
H11   H     H_    0.843927 0.423127 0.357560 0.189800
H12   H     H_    0.160997 0.435145 0.675140 0.189840
H13   H     H_    0.468294 0.692152 0.313300 0.171246
H14   H     H_    0.531425 0.691790 0.686852 0.170804
N1    N     N_R   0.500000 0.683620 0.500000 -0.237568
N2    N     N_R   0.500000 0.316380 0.500000 -0.250424
O1    O     O_R   0.400190 0.561980 0.499980 -0.578666
O2    O     O_R   0.599810 0.561980 0.500020 -0.574575
O3    O     O_R   0.400190 0.438070 0.500040 -0.579676
O4    O     O_R   0.599810 0.438070 0.499960 -0.571094
O5    O     O_R   0.500000 0.561940 0.321950 -0.603065
O6    O     O_R   0.500000 0.561940 0.678050 -0.597493
O7    O     O_R   0.500010 0.438030 0.322010 -0.537780
O8    O     O_R   0.499990 0.438030 0.677990 -0.548549
F1    F     F_    0.466777 0.834009 0.287635 -0.665352
F2    F     F_    0.533200 0.833532 0.713717 -0.662848
O9    O     O_3   0.434221 0.316703 0.314485 -0.591945
C43   C     C_3   0.362244 0.305099 0.312531 0.039791
H15   H     H_    0.339838 0.314155 0.405032 0.141791
H16   H     H_    0.349909 0.248445 0.280813 0.134059
C44   C     C_3   0.329520 0.359537 0.222509 -0.295944
H17   H     H_    0.342743 0.416526 0.250970 0.242298
H18   H     H_    0.350538 0.350118 0.129252 0.217208
C45   C     C_3   0.251289 0.351274 0.217581 -0.904525
H19   H     H_    0.236764 0.294704 0.189012 0.262203
H20   H     H_    0.229609 0.390542 0.149524 0.260369
H21   H     H_    0.229099 0.363146 0.309075 0.256563
O10   O     O_3   0.569645 0.317230 0.681419 -0.590137
C46   C     C_3   0.641221 0.303609 0.674710 0.048760
H22   H     H_    0.660106 0.312714 0.579836 0.149285
H23   H     H_    0.653255 0.246345 0.703395 0.130251
C47   C     C_3   0.679378 0.356046 0.761491 -0.326023
H24   H     H_    0.666331 0.413762 0.737549 0.230474
H25   H     H_    0.662754 0.345707 0.857302 0.222642
C48   C     C_3   0.757299 0.345579 0.753694 -0.891041
H26   H     H_    0.771424 0.287674 0.773828 0.267731
H27   H     H_    0.783363 0.381321 0.822266 0.254221
H28   H     H_    0.775649 0.360495 0.660739 0.267137
O11   O     O_3   0.707028 0.418859 0.329315 -0.599690
C49   C     C_3   0.722567 0.342956 0.327992 0.076051
H29   H     H_    0.738654 0.321619 0.420065 0.140562
H30   H     H_    0.765012 0.332709 0.262369 0.157069
C50   C     C_3   0.658228 0.300997 0.285096 -0.330351
H31   H     H_    0.613740 0.317132 0.342432 0.241932
H32   H     H_    0.645963 0.315726 0.188202 0.220922
C51   C     C_3   0.668140 0.218085 0.294996 -0.908994
H33   H     H_    0.712286 0.200253 0.238139 0.266914
H34   H     H_    0.620707 0.189699 0.261802 0.267898
H35   H     H_    0.677734 0.202096 0.392171 0.250677
O12   O     O_3   0.297576 0.430937 0.690683 -0.600832
C52   C     C_3   0.289390 0.353750 0.691326 0.092892
H36   H     H_    0.284431 0.330519 0.596726 0.134070
H37   H     H_    0.242613 0.338960 0.744135 0.158494
C53   C     C_3   0.352720 0.319295 0.753374 -0.339411
H38   H     H_    0.399986 0.338086 0.706082 0.251855
H39   H     H_    0.355876 0.337469 0.850776 0.218285
C54   C     C_3   0.350064 0.235591 0.748442 -0.903956
H40   H     H_    0.303355 0.215017 0.795555 0.265158
H41   H     H_    0.396524 0.212659 0.795152 0.265560
H42   H     H_    0.349400 0.216398 0.651536 0.253955
O13   O     O_3   0.850794 0.573681 0.694909 -0.564399
C55   C     C_3   0.872389 0.526235 0.790902 0.062113
H43   H     H_    0.925337 0.543138 0.819324 0.176396
H44   H     H_    0.875869 0.467194 0.763833 0.132495
C56   C     C_3   0.824481 0.534735 0.900778 -0.328290
H45   H     H_    0.820439 0.593799 0.925546 0.240557
H46   H     H_    0.772100 0.514475 0.875545 0.237846
C57   C     C_3   0.851231 0.492099 0.012282 -0.910008
H47   H     H_    0.856507 0.432868 0.989935 0.254686
H48   H     H_    0.814434 0.497912 0.089080 0.275854
H49   H     H_    0.902198 0.513956 0.042610 0.260082
O14   O     O_3   0.145293 0.557107 0.306257 -0.568538
C58   C     C_3   0.112404 0.502127 0.234418 0.086950
H50   H     H_    0.056014 0.504256 0.251550 0.151241
H51   H     H_    0.130377 0.445172 0.254947 0.134506
C59   C     C_3   0.124759 0.518334 0.098731 -0.322415
H52   H     H_    0.105145 0.574161 0.076289 0.240408
H53   H     H_    0.181117 0.517172 0.080886 0.233207
C60   C     C_3   0.088554 0.462367 0.015677 -0.908005
H54   H     H_    0.108270 0.406207 0.034841 0.263563
H55   H     H_    0.098633 0.475814 0.918051 0.261631
H56   H     H_    0.031944 0.463616 0.030446 0.256631
O15   O     O_3   0.708224 0.582931 0.678195 -0.612448
C61   C     C_3   0.714452 0.658241 0.648351 0.110724
H57   H     H_    0.678681 0.671745 0.570963 0.154751
H58   H     H_    0.767856 0.673773 0.621363 0.195665
C62   C     C_3   0.695292 0.704159 0.760281 -0.343599
H59   H     H_    0.641707 0.691038 0.787857 0.228021
H60   H     H_    0.730455 0.690235 0.838227 0.229827
C63   C     C_3   0.700979 0.786197 0.733379 -0.822294
H61   H     H_    0.755324 0.801043 0.713530 0.254851
H62   H     H_    0.683911 0.818060 0.814484 0.284030
H63   H     H_    0.667923 0.801190 0.653275 0.259429
O16   O     O_3   0.287843 0.562607 0.306386 -0.610069
C64   C     C_3   0.285512 0.639967 0.314746 0.109870
H64   H     H_    0.316723 0.659173 0.395103 0.150916
H65   H     H_    0.231673 0.660452 0.324118 0.201010
C65   C     C_3   0.315524 0.672559 0.197758 -0.367826
H66   H     H_    0.369936 0.654433 0.188277 0.221920
H67   H     H_    0.285688 0.652139 0.116813 0.237061
C66   C     C_3   0.312723 0.756308 0.199675 -0.819523
H68   H     H_    0.258254 0.775264 0.200088 0.254742
H69   H     H_    0.338124 0.778454 0.116672 0.283649
H70   H     H_    0.339801 0.777998 0.282476 0.274253
F3    F     F_    0.930092 0.624360 0.497317 -0.586145
F4    F     F_    0.070287 0.624530 0.500443 -0.584698
F5    F     F_    0.070435 0.361248 0.523100 -0.619887
F6    F     F_    0.930008 0.361569 0.532939 -0.621197

loop_
_geom_bond_atom_site_label_1
_geom_bond_atom_site_label_2
_ccdc_geom_bond_type
C38   C40   A    
O14   C58   S    
C66   H69   S    
C19   C20   A    
C45   H21   S    
C17   H4    S    
C44   H17   S    
C42   O16   S    
C50   H31   S    
C39   C41   A    
C55   H43   S    
C25   C28   A    
C52   H37   S    
C17   C23   A    
C4    C42   A    
C35   C37   A    
C24   C26   A    
C27   N2    A    
C62   H60   S    
C5    C6    A    
C45   H20   S    
C3    C33   A    
C1    O1    A    
O13   C55   S    
C53   H38   S    
C18   C20   A    
C22   O6    A    
C50   H32   S    
C12   N1    A    
C62   H59   S    
C54   H40   S    
C55   H44   S    
C5    F3    S    
C60   H56   S    
C48   H27   S    
C9    C10   A    
C41   O15   S    
Cu1   N1    S    
C12   H14   S    
C24   H7    S    
C15   C23   S    
C10   F6    S    
C21   O7    A    
C66   H70   S    
C29   C31   D    
C26   O9    S    
C14   F2    S    
C63   H63   S    
C11   N1    A    
C1    O3    A    
C16   H3    S    
C32   H10   S    
O12   C52   S    
C21   C32   S    
C2    O4    A    
C56   H46   S    
Cu2   O3    S    
C52   C53   S    
C4    C34   A    
C22   C31   S    
C47   H25   S    
C35   H11   S    
O16   C64   S    
C43   H16   S    
C62   C63   S    
C47   H24   S    
C63   H61   S    
C20   C28   S    
C49   C50   S    
C47   C48   S    
C51   H35   S    
C34   O12   S    
C9    F5    S    
C29   H1    S    
C59   H53   S    
Cu1   Cu2   S    
C58   H51   S    
C29   C30   S    
C36   H12   S    
C40   C42   A    
C46   H22   S    
C65   C66   S    
Cu1   O5    S    
C40   O14   S    
C51   H34   S    
C54   H41   S    
O11   C49   S    
C31   H9    S    
C48   H28   S    
C49   H30   S    
C44   H18   S    
C22   O8    A    
C61   H58   S    
C63   H62   S    
C46   H23   S    
C65   H67   S    
C16   C23   A    
C39   O13   S    
C13   C15   A    
C60   H54   S    
C64   C65   S    
C59   C60   S    
C8    C37   S    
C57   H48   S    
C58   H50   S    
Cu2   O4    S    
C50   C51   S    
Cu1   O1    S    
C52   H36   S    
C56   C57   S    
C7    C9    A    
C3    C41   A    
C21   O5    A    
C45   H19   S    
C30   H2    S    
C27   O10   S    
C24   C28   A    
C12   C14   A    
C43   H15   S    
C61   C62   S    
C33   O11   S    
C5    C8    A    
C6    F4    S    
C56   H45   S    
C53   C54   S    
C6    C7    A    
C25   C27   A    
O15   C61   S    
C55   C56   S    
C1    C4    S    
C16   C18   A    
C57   H49   S    
C64   H65   S    
C59   H52   S    
C57   H47   S    
C25   H8    S    
O9    C43   S    
C37   C39   A    
C64   H64   S    
C30   C32   D    
C11   C13   A    
C19   H6    S    
C43   C44   S    
C13   F1    S    
Cu2   N2    S    
Cu1   O6    S    
C36   C38   A    
C51   H33   S    
C33   C35   A    
C7    C38   S    
C53   H39   S    
C2    C3    S    
C54   H42   S    
C34   C36   A    
C49   H29   S    
C44   C45   S    
C58   C59   S    
Cu2   O8    S    
C61   H57   S    
C17   C19   A    
C46   C47   S    
C65   H66   S    
C18   H5    S    
C8    C10   A    
O10   C46   S    
C66   H68   S    
C60   H55   S    
C14   C15   A    
Cu2   O7    S    
C48   H26   S    
C11   H13   S    
C26   N2    A    
C2    O2    A    
Cu1   O2    S    
