data_mof_unit_28658.cif
_audit_creation_date              2012-12-10T19:25:47-0500
_audit_creation_method            fapswitch 2.2
_symmetry_space_group_name_H-M    P1
_symmetry_Int_Tables_number       1
_space_group_crystal_system       triclinic
_cell_length_a                    9.828081
_cell_length_b                    10.538492
_cell_length_c                    16.624783
_cell_angle_alpha                 89.716859
_cell_angle_beta                  84.239913
_cell_angle_gamma                 89.733999
_cell_volume                      1713.15138446

loop_
_atom_site_label
_atom_site_type_symbol
_atom_type_description
_atom_site_fract_x
_atom_site_fract_y
_atom_site_fract_z
_atom_type_partial_charge
C1    C     C_R   0.499939 0.742227 0.497997 0.873761
C2    C     C_R   0.500072 0.257777 0.501923 0.871354
C3    C     C_3   0.397623 0.963124 0.459159 0.239661
C4    C     C_3   0.602394 0.036905 0.540628 0.240045
C5    C     C_3   0.517733 0.046008 0.423662 -0.232457
C6    C     C_3   0.482274 0.954068 0.576126 -0.231344
C7    C     C_3   0.500983 0.122606 0.502165 -0.065159
C8    C     C_3   0.499034 0.877432 0.497637 -0.067372
C9    C     C_3   0.379750 0.041620 0.537281 -0.199724
C10   C     C_3   0.620255 0.958431 0.462503 -0.200199
C11   C     C_3   0.951588 0.614590 0.493024 -0.181762
C12   C     C_3   0.048456 0.385327 0.506896 -0.182162
C13   C     C_3   0.058377 0.547759 0.433893 0.217683
C14   C     C_3   0.941640 0.451980 0.565989 0.214925
C15   C     C_3   0.037420 0.565657 0.559163 0.198443
C16   C     C_3   0.962479 0.434162 0.440837 0.197484
C17   C     C_R   0.479675 0.498972 0.653205 0.864721
C18   C     C_R   0.520276 0.493590 0.347124 0.861657
C19   C     C_R   0.464220 0.481416 0.740178 -0.064157
C20   C     C_R   0.536150 0.453059 0.263520 -0.063873
C21   C     C_R   0.567612 0.520550 0.785857 -0.229782
C22   C     C_R   0.439808 0.370217 0.236821 -0.231040
C23   C     C_R   0.562356 0.486946 0.866518 -0.198219
C24   C     C_R   0.458245 0.322506 0.159227 -0.204825
C25   C     C_R   0.452421 0.415522 0.902887 0.167823
C26   C     C_R   0.571364 0.359791 0.106362 0.150168
C27   C     C_R   0.343068 0.381940 0.858492 0.206177
C28   C     C_R   0.675149 0.435356 0.134841 0.220776
C29   C     C_R   0.351214 0.414627 0.776662 -0.256615
C30   C     C_R   0.655578 0.481525 0.213857 -0.240527
C31   C     C_2   0.450137 0.385600 0.988635 -0.224473
C32   C     C_2   0.562892 0.344297 0.019691 -0.243518
H1    H     H_    0.653400 0.320030 0.979841 0.153202
H2    H     H_    0.359210 0.411946 0.027690 0.157273
N1    N     N_3   0.136700 0.499970 0.500060 -0.139981
N2    N     N_3   0.863300 0.500030 0.499940 -0.140506
O1    O     O_R   0.383390 0.686040 0.500000 -0.644662
O2    O     O_R   0.616610 0.313960 0.500000 -0.646450
O3    O     O_R   0.616650 0.686050 0.499970 -0.608893
O4    O     O_R   0.383350 0.313950 0.500030 -0.611878
O5    O     O_R   0.369590 0.500020 0.615820 -0.628609
O6    O     O_R   0.630410 0.499980 0.384180 -0.626629
O7    O     O_R   0.602840 0.500020 0.615790 -0.628911
O8    O     O_R   0.397160 0.499980 0.384210 -0.631727
Zn1   Zn    Zn3+2 0.344250 0.499990 0.500020 0.908260
Zn2   Zn    Zn3+2 0.655750 0.500010 0.499980 0.910665
H3    H     H_    0.652856 0.576205 0.759088 0.147435
H4    H     H_    0.350483 0.341683 0.276086 0.157450
H5    H     H_    0.906667 0.710697 0.487643 0.142268
H6    H     H_    0.093464 0.289236 0.512188 0.142036
C33   C     C_3   0.085341 0.649060 0.625950 -0.352641
C34   C     C_3   0.966280 0.701058 0.682481 -0.959893
H7    H     H_    0.875974 0.720721 0.649388 0.274399
H8    H     H_    0.936985 0.631995 0.731697 0.259077
H9    H     H_    0.997579 0.790152 0.710734 0.262607
H10   H     H_    0.152276 0.593591 0.662730 0.231268
H11   H     H_    0.144926 0.729420 0.597147 0.210466
C35   C     C_3   0.913986 0.349955 0.374586 -0.347436
C36   C     C_3   0.032371 0.297664 0.317764 -0.970459
H12   H     H_    0.061858 0.366785 0.268614 0.259952
H13   H     H_    0.122513 0.277319 0.350799 0.272470
H14   H     H_    0.000379 0.208896 0.289424 0.263301
H15   H     H_    0.854832 0.269730 0.403880 0.211104
H16   H     H_    0.846538 0.404799 0.337938 0.230921
H17   H     H_    0.732444 0.541787 0.236132 0.143365
H18   H     H_    0.272532 0.382863 0.740488 0.150336
C37   C     C_3   0.220707 0.307459 0.895349 -0.443050
C38   C     C_3   0.256940 0.167825 0.906200 -0.853966
H19   H     H_    0.294920 0.125675 0.846991 0.258547
H20   H     H_    0.336461 0.156853 0.948666 0.266281
H21   H     H_    0.164371 0.115309 0.931165 0.244954
H22   H     H_    0.180386 0.348918 0.954283 0.195505
H23   H     H_    0.135920 0.312910 0.855889 0.206424
C39   C     C_3   0.803144 0.474885 0.082566 -0.446850
C40   C     C_3   0.792438 0.612221 0.054246 -0.866427
H24   H     H_    0.700137 0.625469 0.021670 0.261591
H25   H     H_    0.786357 0.677624 0.106686 0.258099
H26   H     H_    0.884309 0.636720 0.012765 0.247047
H27   H     H_    0.892898 0.465174 0.117933 0.204538
H28   H     H_    0.824867 0.412763 0.029269 0.194125
H29   H     H_    0.379632 0.262474 0.138566 0.148766
H30   H     H_    0.644187 0.517572 0.900783 0.151500
H31   H     H_    0.531452 0.087633 0.361894 0.142805
H32   H     H_    0.468503 0.912622 0.637930 0.137426
C41   C     C_3   0.281363 0.917783 0.412433 -0.407140
C42   C     C_3   0.200623 0.028569 0.382150 -0.889731
H33   H     H_    0.154181 0.085439 0.433953 0.260957
H34   H     H_    0.268551 0.089734 0.341175 0.259866
H35   H     H_    0.117431 0.992028 0.348210 0.254967
H36   H     H_    0.325531 0.861331 0.359886 0.200035
H37   H     H_    0.211079 0.857715 0.452703 0.215059
C43   C     C_3   0.718762 0.082133 0.587296 -0.408167
C44   C     C_3   0.799805 0.971357 0.617343 -0.885964
H38   H     H_    0.732095 0.910050 0.658330 0.261133
H39   H     H_    0.846168 0.914615 0.565460 0.260283
H40   H     H_    0.883080 0.007928 0.651210 0.255251
H41   H     H_    0.788884 0.142291 0.546996 0.214882
H42   H     H_    0.674652 0.138373 0.639961 0.203084
H43   H     H_    0.281889 0.078986 0.567466 0.143210
H44   H     H_    0.718135 0.921095 0.432330 0.143519
C45   C     C_3   0.128852 0.606144 0.356422 -0.350385
C46   C     C_3   0.028172 0.676005 0.307678 -0.942748
H45   H     H_    0.947136 0.610649 0.291582 0.264868
H46   H     H_    0.980508 0.756935 0.342738 0.257586
H47   H     H_    0.083256 0.713683 0.251067 0.258785
H48   H     H_    0.207389 0.673246 0.372557 0.216552
H49   H     H_    0.180896 0.530963 0.318440 0.225364
C47   C     C_3   0.870565 0.392533 0.642819 -0.341782
C48   C     C_3   0.970025 0.322334 0.692038 -0.956695
H50   H     H_    0.021800 0.244029 0.656334 0.260482
H51   H     H_    0.047291 0.389154 0.710926 0.261500
H52   H     H_    0.913270 0.281181 0.747093 0.259342
H53   H     H_    0.819147 0.467595 0.680690 0.223533
H54   H     H_    0.791901 0.326050 0.626168 0.218387

loop_
_geom_bond_atom_site_label_1
_geom_bond_atom_site_label_2
_ccdc_geom_bond_type
C25   C31   S    
C22   H4    S    
C26   C32   S    
C44   H38   S    
C23   H30   S    
C3    C41   S    
C1    C8    S    
C2    C7    S    
C24   H29   S    
C28   C39   S    
C6    C9    S    
C41   H37   S    
C43   H42   S    
C20   C30   A    
C41   C42   S    
C34   H7    S    
C45   C46   S    
C11   H5    S    
C11   N2    S    
C19   C21   A    
C24   C26   A    
C13   N1    S    
C18   O6    A    
C14   N2    S    
C5    H31   S    
C42   H34   S    
C27   C29   A    
C45   H48   S    
C47   C48   S    
C46   H47   S    
C37   H22   S    
O6    Zn2   S    
C47   H54   S    
C11   C15   S    
C12   C16   S    
C38   H19   S    
N2    Zn2   S    
C37   H23   S    
C15   C33   S    
C34   H9    S    
C1    O1    A    
C14   C47   S    
C36   H12   S    
C9    H43   S    
C39   H28   S    
C4    C7    S    
C15   N1    S    
O7    Zn2   S    
C34   H8    S    
C43   H41   S    
C35   H16   S    
O4    Zn1   S    
C36   H13   S    
C6    H32   S    
C39   C40   S    
C33   C34   S    
C4    C6    S    
C3    C8    S    
C48   H52   S    
C5    C7    S    
C42   H33   S    
C6    C8    S    
C35   C36   S    
C37   C38   S    
C47   H53   S    
C10   H44   S    
C40   H24   S    
C17   O7    A    
C3    C9    S    
C18   O8    A    
C2    O2    A    
C31   C32   D    
C31   H2    S    
C16   C35   S    
C12   N1    S    
C46   H46   S    
C40   H25   S    
O3    Zn2   S    
C33   H11   S    
C8    C10   S    
C12   C14   S    
C44   H40   S    
C39   H27   S    
C21   C23   A    
C22   C24   A    
C13   C45   S    
N1    Zn1   S    
O8    Zn1   S    
C35   H15   S    
C7    C9    S    
C36   H14   S    
C33   H10   S    
C4    C10   S    
C20   C22   A    
C3    C5    S    
C42   H35   S    
C12   H6    S    
C41   H36   S    
C25   C27   A    
C26   C28   A    
C32   H1    S    
C48   H51   S    
C5    C10   S    
C48   H50   S    
C16   N2    S    
C11   C13   S    
C44   H39   S    
C38   H21   S    
C28   C30   A    
C43   C44   S    
C17   C19   S    
C18   C20   S    
C23   C25   A    
C46   H45   S    
C40   H26   S    
C17   O5    A    
O2    Zn2   S    
C30   H17   S    
C27   C37   S    
C1    O3    A    
C29   H18   S    
C2    O4    A    
C38   H20   S    
C13   C16   S    
C45   H49   S    
O5    Zn1   S    
C14   C15   S    
C21   H3    S    
O1    Zn1   S    
C4    C43   S    
C19   C29   A    
