data_mof_unit_8826.cif
_audit_creation_date              2012-12-11T14:13:29-0500
_audit_creation_method            fapswitch 2.2
_symmetry_space_group_name_H-M    P1
_symmetry_Int_Tables_number       1
_space_group_crystal_system       triclinic
_cell_length_a                    11.654829
_cell_length_b                    18.592024
_cell_length_c                    10.243682
_cell_angle_alpha                 89.883053
_cell_angle_beta                  111.127783
_cell_angle_gamma                 90.256235
_cell_volume                      2070.44153602

loop_
_atom_site_label
_atom_site_type_symbol
_atom_type_description
_atom_site_fract_x
_atom_site_fract_y
_atom_site_fract_z
_atom_type_partial_charge
C1    C     C_R   0.075101 0.645865 0.142518 0.599504
C2    C     C_2   0.627610 0.063317 0.015455 0.228679
C3    C     C_2   0.602739 0.428359 0.047666 0.254775
C4    C     C_2   0.371918 0.560524 0.002967 0.242937
C5    C     C_2   0.483902 0.961039 0.990509 0.092716
C6    C     C_2   0.516855 0.038728 0.009103 0.094526
C7    C     C_2   0.498740 0.451433 0.061958 0.142326
C8    C     C_2   0.482597 0.528583 0.069499 0.152369
C9    C     C_2   0.041350 0.930621 0.135055 0.157050
C10   C     C_2   0.958244 0.069311 0.864275 0.159475
C11   C     C_2   0.963723 0.429626 0.866001 0.186478
C12   C     C_R   0.922820 0.354940 0.856977 0.617694
C13   C     C_2   0.019894 0.574309 0.128620 0.167774
C14   C     C_2   0.993304 0.960610 0.009471 0.317138
C15   C     C_2   0.007800 0.039177 0.989511 0.316307
C16   C     C_2   0.001591 0.463480 0.989400 0.248511
C17   C     C_2   0.981932 0.541922 0.004436 0.251244
C18   C     C_R   0.471895 0.647238 0.442540 0.618773
C19   C     C_R   0.530335 0.353671 0.558825 0.636554
C20   C     C_R   0.527942 0.147015 0.557788 0.623409
C21   C     C_R   0.471640 0.853381 0.441494 0.633539
C22   C     C_R   0.353243 0.638080 0.009753 0.586771
C23   C     C_R   0.919865 0.144342 0.855557 0.581692
C24   C     C_R   0.623750 0.354464 0.033035 0.617197
C25   C     C_R   0.646153 0.138279 0.993917 0.622939
C26   C     C_R   0.354024 0.861797 0.005686 0.628182
C27   C     C_R   0.501964 0.425887 0.491172 0.041563
C28   C     C_R   0.509981 0.577274 0.516988 0.072614
C29   C     C_R   0.507119 0.924957 0.511076 0.049997
C30   C     C_R   0.490964 0.076296 0.485562 0.051762
C31   C     C_R   0.290559 0.429633 0.503334 0.265179
C32   C     C_R   0.719503 0.578572 0.506122 0.258607
C33   C     C_R   0.710565 0.933029 0.481169 0.295712
C34   C     C_R   0.080055 0.855635 0.144357 0.587375
C35   C     C_R   0.287262 0.068811 0.514176 0.298922
C36   C     C_R   0.209655 0.465477 0.555128 0.085936
C37   C     C_R   0.802703 0.546265 0.454339 0.082229
C38   C     C_R   0.785453 0.970251 0.422574 0.082362
C39   C     C_R   0.211763 0.031737 0.572121 0.084907
C40   C     C_R   0.236352 0.535202 0.606475 -0.024735
C41   C     C_R   0.783058 0.476060 0.406297 -0.016435
C42   C     C_R   0.754631 0.039690 0.371536 -0.063906
C43   C     C_R   0.242247 0.962289 0.623373 -0.065121
C44   C     C_R   0.341961 0.570121 0.606686 0.223961
C45   C     C_R   0.402627 0.463729 0.509388 -0.038233
C46   C     C_R   0.686525 0.435013 0.416826 0.198227
C47   C     C_R   0.652989 0.074106 0.383101 0.206240
C48   C     C_R   0.344064 0.927678 0.612578 0.203307
C49   C     C_R   0.418962 0.537355 0.545314 -0.044348
C50   C     C_R   0.599356 0.465902 0.469356 -0.057508
C51   C     C_R   0.580237 0.038962 0.448959 -0.057655
C52   C     C_R   0.417142 0.962428 0.546656 -0.056919
C53   C     C_R   0.610515 0.540861 0.500459 -0.043533
C54   C     C_R   0.600004 0.964957 0.482417 -0.038688
C55   C     C_R   0.397593 0.036450 0.513102 -0.035390
C56   C     C_2   0.372795 0.936643 0.983216 0.227459
Cl1   Cl    Cl    0.242651 0.345158 0.420434 -0.426565
Cl2   Cl    Cl    0.238426 0.987526 0.938384 -0.718567
Cl3   Cl    Cl    0.240077 0.509544 0.912388 -0.638873
Cl4   Cl    Cl    0.703969 0.483952 0.997870 -0.594011
Cl5   Cl    Cl    0.115326 0.093622 0.119479 -0.460769
Cl6   Cl    Cl    0.886550 0.905957 0.879104 -0.447887
Cl7   Cl    Cl    0.881917 0.594771 0.868966 -0.490937
Cl8   Cl    Cl    0.107318 0.414360 0.127798 -0.522948
Cl9   Cl    Cl    0.757478 0.665659 0.581013 -0.399944
Cl10  Cl    Cl    0.765870 0.850338 0.566340 -0.408959
Cl11  Cl    Cl    0.233977 0.152399 0.431143 -0.416219
Cl12  Cl    Cl    0.385823 0.650764 0.702355 -0.433527
Cl13  Cl    Cl    0.677312 0.348027 0.346157 -0.543509
Cl14  Cl    Cl    0.612755 0.158763 0.300904 -0.474204
Cl15  Cl    Cl    0.384542 0.843658 0.697043 -0.453352
Cl16  Cl    Cl    0.761793 0.012610 0.057118 -0.719488
Cr1   Cr    Cr6+3 0.187610 0.750000 0.979860 1.183540
Cr2   Cr    Cr6+3 0.812390 0.250000 0.020140 1.194920
Cr3   Cr    Cr6+3 0.245810 0.750000 0.341640 1.117950
Cr4   Cr    Cr6+3 0.754190 0.250000 0.658360 1.144020
Cr5   Cr    Cr6+3 0.485760 0.750000 0.219910 1.093709
Cr6   Cr    Cr6+3 0.514240 0.250000 0.780090 1.106189
H1    H     H_    0.174890 0.562466 0.647542 0.206875
H2    H     H_    0.868875 0.890605 0.356549 0.282664
H3    H     H_    0.044178 0.077030 0.478892 0.280098
H4    H     H_    0.128452 0.111461 0.638147 0.283184
H5    H     H_    0.404517 0.073206 0.111633 0.311721
H6    H     H_    0.361000 0.100762 0.937424 0.297801
H7    H     H_    0.596371 0.925450 0.889068 0.314533
H8    H     H_    0.640417 0.899685 0.064432 0.297073
H9    H     H_    0.584735 0.590940 0.233607 0.253363
H10   H     H_    0.616770 0.604327 0.083049 0.322776
H11   H     H_    0.371656 0.371122 0.989769 0.280448
H12   H     H_    0.844984 0.452455 0.361481 0.187988
H13   H     H_    0.449781 0.368999 0.164876 0.284761
H14   H     H_    0.001540 0.001195 0.735008 0.296661
H15   H     H_    0.888307 0.056921 0.648508 0.254807
H16   H     H_    0.998078 0.000925 0.260898 0.297524
H17   H     H_    0.105043 0.942697 0.350310 0.254668
H18   H     H_    0.967951 0.493022 0.232722 0.283771
H19   H     H_    0.117764 0.521460 0.304967 0.259375
H20   H     H_    0.992999 0.510648 0.743931 0.302926
H21   H     H_    0.842712 0.482650 0.704121 0.262085
H22   H     H_    0.812241 0.068013 0.325805 0.210729
H23   H     H_    0.184373 0.934130 0.668975 0.209015
H24   H     H_    0.047253 0.415267 0.456753 0.275602
H25   H     H_    0.125910 0.385395 0.620705 0.292587
H26   H     H_    0.961583 0.600920 0.549472 0.276270
H27   H     H_    0.877025 0.630104 0.386238 0.286636
H28   H     H_    0.953521 0.925478 0.515292 0.278815
N1    N     N_3   0.100297 0.431424 0.558258 -0.558406
N2    N     N_3   0.076196 0.974016 0.260108 -0.574024
N3    N     N_3   0.026906 0.537519 0.254656 -0.584435
N4    N     N_3   0.934370 0.466888 0.735414 -0.582479
N5    N     N_3   0.907723 0.584362 0.448423 -0.564454
N6    N     N_3   0.893950 0.938200 0.414260 -0.624655
N7    N     N_3   0.103237 0.064009 0.579996 -0.623819
N8    N     N_3   0.433555 0.090213 0.031171 -0.524431
N9    N     N_3   0.567714 0.909307 0.970317 -0.515421
N10   N     N_3   0.593177 0.567504 0.146602 -0.595561
N11   N     N_3   0.408701 0.402739 0.079568 -0.525189
N12   N     N_3   0.922792 0.026040 0.738992 -0.571211
O1    O     O_R   0.267710 0.668200 0.902110 -0.409556
O2    O     O_R   0.883280 0.330790 0.732340 -0.478474
O3    O     O_R   0.883280 0.169210 0.732340 -0.527817
O4    O     O_R   0.116720 0.830790 0.267660 -0.527912
O5    O     O_R   0.366710 0.675440 0.427590 -0.455859
O6    O     O_R   0.633290 0.324560 0.572410 -0.435928
O7    O     O_R   0.633290 0.175440 0.572410 -0.453004
O8    O     O_R   0.366710 0.824560 0.427590 -0.451095
O9    O     O_R   0.534870 0.669390 0.371760 -0.513357
O10   O     O_R   0.465130 0.330610 0.628240 -0.464827
O11   O     O_R   0.465130 0.169390 0.628240 -0.487812
O12   O     O_R   0.732290 0.331800 0.097890 -0.428165
O13   O     O_R   0.534870 0.830610 0.371760 -0.481642
O14   O     O_R   0.453080 0.674480 0.075160 -0.515387
O15   O     O_R   0.546920 0.325520 0.924840 -0.525845
O16   O     O_R   0.546920 0.174480 0.924840 -0.493968
O17   O     O_R   0.453080 0.825520 0.075160 -0.477860
O18   O     O_3   0.306390 0.750000 0.180470 -0.377207
O19   O     O_3   0.693610 0.250000 0.819530 -0.356874
O20   O     O_R   0.732290 0.168200 0.097890 -0.424855
O21   O     O_R   0.267710 0.831800 0.902110 -0.418937
O22   O     O_R   0.099480 0.674460 0.038850 -0.471753
O23   O     O_R   0.900520 0.325540 0.961150 -0.452666
O24   O     O_R   0.900520 0.174460 0.961150 -0.459527
O25   O     O_R   0.099480 0.825540 0.038850 -0.456815
O26   O     O_R   0.116720 0.669210 0.267660 -0.496548

loop_
_geom_bond_atom_site_label_1
_geom_bond_atom_site_label_2
_ccdc_geom_bond_type
C24   O15   A    
C44   C49   A    
C30   C51   A    
H20   N4    S    
Cr3   O4    S    
C7    N11   S    
C5    C56   D    
C20   O11   A    
C4    C8    D    
Cr6   O10   S    
C7    C8    S    
C23   O3    A    
C20   C30   S    
Cr4   O19   S    
C9    N2    S    
Cr2   O20   S    
H16   N2    S    
Cr4   O2    S    
C34   O25   A    
Cr3   O5    S    
Cr4   O3    S    
Cr6   O11   S    
C38   C42   A    
C48   C52   A    
C3    C7    D    
C10   C15   D    
C5    C6    S    
C29   C54   A    
C14   Cl6   S    
C19   O10   A    
H7    N9    S    
C4    C22   S    
C12   O23   A    
Cr5   O13   S    
H14   N12   S    
C21   O13   A    
C46   Cl13  S    
C13   N3    S    
C26   O17   A    
C12   O2    A    
C6    N8    S    
C16   C17   S    
C39   N7    S    
C41   C46   A    
H13   N11   S    
C23   O24   A    
Cr5   O18   S    
C45   C49   A    
C19   C27   S    
C43   C48   A    
Cr5   O9    S    
C27   C50   A    
C18   O5    A    
C3    Cl4   S    
C27   C45   A    
C41   H12   S    
H27   N5    S    
C34   O4    A    
C5    N9    S    
C11   N4    S    
C37   C41   A    
Cr4   O7    S    
H5    N8    S    
C3    C24   S    
C2    C6    D    
C2    Cl16  S    
C33   Cl10  S    
C22   O1    A    
H28   N6    S    
Cr2   O19   S    
C19   O6    A    
C50   C53   A    
C35   C55   A    
Cr4   O6    S    
C36   C40   A    
C18   C28   S    
C26   O21   A    
Cr3   O26   S    
Cr3   O18   S    
C39   C43   A    
Cr1   O21   S    
H21   N4    S    
C21   C29   S    
H8    N9    S    
Cr5   O14   S    
H10   N10   S    
C35   C39   A    
C9    C14   D    
C43   H23   S    
C47   Cl14  S    
C10   N12   S    
C42   H22   S    
C18   O9    A    
H19   N3    S    
C28   C49   A    
Cr1   O18   S    
C35   Cl11  S    
C28   C53   A    
H2    N6    S    
C15   Cl5   S    
C40   H1    S    
H24   N1    S    
C32   C37   A    
C25   O16   A    
Cr6   O16   S    
H9    N10   S    
C1    O22   A    
Cr2   O23   S    
H11   N11   S    
Cr2   O12   S    
C9    C34   S    
C44   Cl12  S    
C1    C13   S    
H15   N12   S    
C48   Cl15  S    
C38   N6    S    
Cr6   O19   S    
C32   C53   A    
Cr1   O25   S    
C33   C54   A    
H6    N8    S    
C22   O14   A    
C14   C15   S    
C30   C55   A    
H4    N7    S    
C26   C56   S    
H26   N5    S    
C47   C51   A    
C11   C12   S    
C52   C55   A    
Cr1   O22   S    
C10   C23   S    
C16   Cl8   S    
H18   N3    S    
C46   C50   A    
C33   C38   A    
C13   C17   D    
C51   C54   A    
Cr3   O8    S    
C25   O20   A    
C20   O7    A    
C1    O26   A    
C17   Cl7   S    
C31   Cl1   S    
C4    Cl3   S    
C56   Cl2   S    
C2    C25   S    
C42   C47   A    
Cr2   O24   S    
Cr6   O15   S    
C37   N5    S    
C11   C16   D    
H17   N2    S    
C8    N10   S    
Cr1   O1    S    
C24   O12   A    
C40   C44   A    
C31   C45   A    
H3    N7    S    
C31   C36   A    
H25   N1    S    
Cr5   O17   S    
C21   O8    A    
C32   Cl9   S    
C36   N1    S    
C29   C52   A    
