data_mof_unit_57303.cif
_audit_creation_date              2012-12-10T16:34:41-0500
_audit_creation_method            fapswitch 2.2
_symmetry_space_group_name_H-M    P1
_symmetry_Int_Tables_number       1
_space_group_crystal_system       triclinic
_cell_length_a                    28.232448
_cell_length_b                    18.422342
_cell_length_c                    17.057038
_cell_angle_alpha                 90.025522
_cell_angle_beta                  60.853797
_cell_angle_gamma                 90.029954
_cell_volume                      7748.18618886

loop_
_atom_site_label
_atom_site_type_symbol
_atom_type_description
_atom_site_fract_x
_atom_site_fract_y
_atom_site_fract_z
_atom_type_partial_charge
C1    C     C_R   0.701924 0.268810 0.675823 0.898514
C2    C     C_R   0.298171 0.731363 0.324127 0.894773
C3    C     C_R   0.298177 0.268622 0.324115 0.895051
C4    C     C_R   0.701801 0.731449 0.675825 0.901188
C5    C     C_R   0.201829 0.768637 0.675872 0.894773
C6    C     C_R   0.798075 0.231190 0.324177 0.898515
C7    C     C_R   0.798199 0.768551 0.324174 0.901188
C8    C     C_R   0.201822 0.231378 0.675885 0.895051
C9    C     C_R   0.916202 0.500054 0.454312 0.073473
C10   C     C_R   0.083660 0.499967 0.546190 0.066844
C11   C     C_R   0.416340 0.000033 0.453809 0.066844
C12   C     C_R   0.583798 0.999946 0.545688 0.073473
C13   C     C_R   0.077709 0.368937 0.557039 -0.232389
C14   C     C_R   0.922175 0.631077 0.443435 -0.212326
C15   C     C_R   0.922438 0.369082 0.442355 -0.219593
C16   C     C_R   0.077476 0.630951 0.558042 -0.230696
C17   C     C_R   0.577825 0.868923 0.556565 -0.212327
C18   C     C_R   0.422291 0.131063 0.442960 -0.232389
C19   C     C_R   0.422524 0.869049 0.441957 -0.230697
C20   C     C_R   0.577562 0.130918 0.557644 -0.219593
C21   C     C_R   0.721913 0.267620 0.952386 0.007345
C22   C     C_R   0.280223 0.737187 0.045426 0.010702
C23   C     C_R   0.280212 0.262723 0.045458 0.010512
C24   C     C_R   0.721999 0.733701 0.951845 0.010427
C25   C     C_R   0.219777 0.762813 0.954574 0.010702
C26   C     C_R   0.778085 0.232378 0.047616 0.007345
C27   C     C_R   0.778001 0.766300 0.048154 0.010425
C28   C     C_R   0.219788 0.237276 0.954542 0.010512
C29   C     C_R   0.727743 0.195084 0.971489 -0.241482
C30   C     C_R   0.225407 0.716740 0.084121 -0.236365
C31   C     C_R   0.225430 0.283266 0.084138 -0.236313
C32   C     C_R   0.695963 0.770734 0.034271 -0.238912
C33   C     C_R   0.274593 0.783260 0.915879 -0.236364
C34   C     C_R   0.772255 0.304913 0.028512 -0.241483
C35   C     C_R   0.804037 0.729268 0.965728 -0.238910
C36   C     C_R   0.274570 0.216734 0.915862 -0.236313
C37   C     C_R   0.755166 0.177160 0.018928 0.182128
C38   C     C_R   0.195308 0.728932 0.039691 0.180614
C39   C     C_R   0.195339 0.271159 0.039672 0.180555
C40   C     C_R   0.723364 0.787510 0.082070 0.194748
C41   C     C_R   0.304692 0.771068 0.960309 0.180614
C42   C     C_R   0.744833 0.322838 0.981074 0.182127
C43   C     C_R   0.776636 0.712493 0.917929 0.194748
C44   C     C_R   0.304661 0.228841 0.960327 0.180555
C45   C     C_R   0.644046 0.327365 0.945833 -0.155233
C46   C     C_R   0.356746 0.674354 0.053448 -0.152381
C47   C     C_R   0.356750 0.325554 0.053449 -0.152600
C48   C     C_R   0.644600 0.672499 0.945301 -0.172693
C49   C     C_R   0.143254 0.825645 0.946552 -0.152381
C50   C     C_R   0.855953 0.172633 0.054168 -0.155234
C51   C     C_R   0.855401 0.827501 0.054698 -0.172692
C52   C     C_R   0.143250 0.174446 0.946551 -0.152600
C53   C     C_R   0.616670 0.347268 0.898416 -0.071050
C54   C     C_R   0.383635 0.653344 0.101333 -0.073054
C55   C     C_R   0.383645 0.346612 0.101317 -0.072830
C56   C     C_R   0.616974 0.652511 0.898188 -0.070083
C57   C     C_R   0.116365 0.846655 0.898667 -0.073054
C58   C     C_R   0.883329 0.152731 0.101584 -0.071050
C59   C     C_R   0.883026 0.847488 0.101811 -0.070083
C60   C     C_R   0.116354 0.153388 0.898683 -0.072830
C61   C     C_R   0.633300 0.321971 0.813315 -0.252650
C62   C     C_R   0.367003 0.678491 0.186510 -0.258431
C63   C     C_R   0.367018 0.321493 0.186495 -0.258432
C64   C     C_R   0.633344 0.677919 0.813213 -0.253088
C65   C     C_R   0.132997 0.821509 0.813490 -0.258431
C66   C     C_R   0.866699 0.178029 0.186686 -0.252650
C67   C     C_R   0.866656 0.822080 0.186787 -0.253088
C68   C     C_R   0.132982 0.178507 0.813505 -0.258432
C69   C     C_R   0.679837 0.281615 0.770876 -0.057107
C70   C     C_R   0.320649 0.719214 0.228826 -0.057949
C71   C     C_R   0.320656 0.280746 0.228817 -0.058103
C72   C     C_R   0.679635 0.718756 0.770798 -0.059278
C73   C     C_R   0.179351 0.780786 0.771174 -0.057949
C74   C     C_R   0.820163 0.218384 0.229124 -0.057107
C75   C     C_R   0.820364 0.781245 0.229202 -0.059278
C76   C     C_R   0.179344 0.219254 0.771182 -0.058103
C77   C     C_R   0.708352 0.260890 0.816725 -0.177508
C78   C     C_R   0.292797 0.741287 0.182398 -0.183134
C79   C     C_R   0.292794 0.258628 0.182399 -0.183097
C80   C     C_R   0.708004 0.740113 0.816527 -0.149813
C81   C     C_R   0.207202 0.758712 0.817602 -0.183134
C82   C     C_R   0.791647 0.239108 0.183275 -0.177509
C83   C     C_R   0.791995 0.759888 0.183473 -0.149814
C84   C     C_R   0.207206 0.241372 0.817601 -0.183097
C85   C     C_R   0.691292 0.129271 0.534507 0.904687
C86   C     C_R   0.308717 0.870721 0.465445 0.902300
C87   C     C_R   0.308692 0.129261 0.465535 0.902715
C88   C     C_R   0.691323 0.870745 0.534401 0.906101
C89   C     C_R   0.191283 0.629279 0.534555 0.902300
C90   C     C_R   0.808708 0.370729 0.465493 0.904687
C91   C     C_R   0.808677 0.629255 0.465599 0.906102
C92   C     C_R   0.191308 0.370739 0.534465 0.902716
C93   C     C_R   0.690729 0.284537 0.904788 0.106469
C94   C     C_R   0.311291 0.719651 0.093269 0.111431
C95   C     C_R   0.311291 0.280244 0.093280 0.111476
C96   C     C_R   0.690890 0.716197 0.904256 0.107497
C97   C     C_R   0.188709 0.780348 0.906731 0.111431
C98   C     C_R   0.809269 0.215460 0.095213 0.106470
C99   C     C_R   0.809110 0.783804 0.095743 0.107496
C100  C     C_R   0.188709 0.219756 0.906720 0.111476
C101  C     C_R   0.074094 0.099672 0.933949 0.910559
C102  C     C_R   0.925765 0.900500 0.066158 0.921710
C103  C     C_R   0.925985 0.099721 0.065989 0.921527
C104  C     C_R   0.074098 0.900341 0.933932 0.911062
C105  C     C_R   0.574235 0.599500 0.933842 0.921710
C106  C     C_R   0.425906 0.400328 0.066051 0.910559
C107  C     C_R   0.425902 0.599659 0.066068 0.911062
C108  C     C_R   0.574014 0.400279 0.934011 0.921527
C109  C     C_R   0.538263 0.131648 0.530391 0.109616
C110  C     C_R   0.461891 0.868322 0.469064 0.106613
C111  C     C_R   0.461504 0.131729 0.470388 0.105329
C112  C     C_R   0.538675 0.868250 0.529006 0.113531
C113  C     C_R   0.038109 0.631678 0.530936 0.106612
C114  C     C_R   0.961737 0.368352 0.469609 0.109616
C115  C     C_R   0.961325 0.631749 0.470994 0.113531
C116  C     C_R   0.038496 0.368271 0.529612 0.105329
C117  C     C_R   0.518225 0.197462 0.516944 -0.184693
C118  C     C_R   0.481920 0.802509 0.482536 -0.188837
C119  C     C_R   0.481263 0.197513 0.484655 -0.195829
C120  C     C_R   0.518901 0.802466 0.514784 -0.174604
C121  C     C_R   0.018080 0.697491 0.517464 -0.188835
C122  C     C_R   0.981775 0.302538 0.483055 -0.184694
C123  C     C_R   0.981099 0.697534 0.485216 -0.174602
C124  C     C_R   0.018737 0.302487 0.515345 -0.195828
C125  C     C_R   0.480122 0.065810 0.486336 0.036847
C126  C     C_R   0.520094 0.934165 0.512980 0.040767
C127  C     C_R   0.519867 0.065778 0.513721 0.037516
C128  C     C_R   0.480340 0.934195 0.485615 0.038392
C129  C     C_R   0.979906 0.565835 0.487019 0.040766
C130  C     C_R   0.019878 0.434190 0.513664 0.036847
C131  C     C_R   0.019660 0.565805 0.514385 0.038392
C132  C     C_R   0.980133 0.434222 0.486279 0.037516
C133  C     C_R   0.959482 0.500042 0.474079 -0.040315
C134  C     C_R   0.040317 0.499983 0.526574 -0.045412
C135  C     C_R   0.459683 0.000017 0.473426 -0.045411
C136  C     C_R   0.540518 0.999957 0.525921 -0.040314
C137  C     C_R   0.894059 0.433726 0.445953 0.060594
C138  C     C_R   0.105855 0.566297 0.554413 0.058165
C139  C     C_R   0.105951 0.433630 0.554010 0.058986
C140  C     C_R   0.893949 0.566384 0.446394 0.064021
C141  C     C_R   0.394145 0.933703 0.445587 0.058165
C142  C     C_R   0.605941 0.066274 0.554047 0.060594
C143  C     C_R   0.606051 0.933616 0.553606 0.064021
C144  C     C_R   0.394049 0.066370 0.445989 0.058986
C145  C     C_R   0.843585 0.434808 0.444908 -0.110028
C146  C     C_R   0.156386 0.565207 0.555266 -0.112539
C147  C     C_R   0.156429 0.434775 0.555076 -0.112569
C148  C     C_R   0.843534 0.565227 0.445119 -0.109361
C149  C     C_R   0.343614 0.934793 0.444734 -0.112539
C150  C     C_R   0.656415 0.065192 0.555092 -0.110028
C151  C     C_R   0.656466 0.934772 0.554881 -0.109361
C152  C     C_R   0.343571 0.065225 0.444924 -0.112569
C153  C     C_R   0.821009 0.500007 0.440148 -0.295262
C154  C     C_R   0.178983 0.500000 0.559964 -0.297300
C155  C     C_R   0.321017 1.000000 0.440036 -0.297300
C156  C     C_R   0.678991 0.999993 0.559852 -0.295262
H1    H     H_    0.033038 0.251062 0.526658 0.138074
H2    H     H_    0.966822 0.748956 0.473844 0.138678
H3    H     H_    0.967680 0.251149 0.471133 0.139044
H4    H     H_    0.032213 0.748882 0.529297 0.137298
H5    H     H_    0.533178 0.751044 0.526156 0.138678
H6    H     H_    0.466962 0.248938 0.473342 0.138074
H7    H     H_    0.467787 0.751118 0.470703 0.137298
H8    H     H_    0.532320 0.248851 0.528867 0.139044
H9    H     H_    0.782501 0.499986 0.440492 0.194251
H10   H     H_    0.217532 0.500019 0.559478 0.195436
H11   H     H_    0.282468 0.999981 0.440522 0.195436
H12   H     H_    0.717499 0.000014 0.559508 0.194251
H13   H     H_    0.084998 0.318156 0.580715 0.177700
H14   H     H_    0.914963 0.681846 0.419636 0.176512
H15   H     H_    0.915147 0.318405 0.418394 0.178633
H16   H     H_    0.084836 0.681643 0.581883 0.177613
H17   H     H_    0.585037 0.818154 0.580364 0.176512
H18   H     H_    0.415002 0.181844 0.419285 0.177700
H19   H     H_    0.415164 0.818357 0.418117 0.177613
H20   H     H_    0.584853 0.181595 0.581605 0.178633
H21   H     H_    0.709922 0.152174 0.950872 0.174291
H22   H     H_    0.206142 0.689611 0.148625 0.174551
H23   H     H_    0.206192 0.310408 0.148650 0.174706
H24   H     H_    0.654163 0.787643 0.061056 0.172451
H25   H     H_    0.293858 0.810389 0.851374 0.174551
H26   H     H_    0.790077 0.347823 0.049129 0.174291
H27   H     H_    0.845837 0.712359 0.938943 0.172451
H28   H     H_    0.293808 0.189592 0.851349 0.174706
H29   H     H_    0.630337 0.347180 0.013340 0.164470
H30   H     H_    0.369703 0.653261 0.986725 0.166852
H31   H     H_    0.369702 0.346630 0.986734 0.166823
H32   H     H_    0.631628 0.651740 0.012169 0.161596
H33   H     H_    0.130297 0.846739 0.013275 0.166853
H34   H     H_    0.869661 0.152817 0.986661 0.164470
H35   H     H_    0.868372 0.848259 0.987830 0.161596
H36   H     H_    0.130298 0.153370 0.013266 0.166823
H37   H     H_    0.611975 0.338042 0.777656 0.178762
H38   H     H_    0.387948 0.661652 0.222511 0.177010
H39   H     H_    0.387969 0.338373 0.222494 0.176899
H40   H     H_    0.612025 0.661622 0.777602 0.178935
H41   H     H_    0.112052 0.838348 0.777489 0.177010
H42   H     H_    0.888025 0.161958 0.222344 0.178762
H43   H     H_    0.887975 0.838378 0.222398 0.178934
H44   H     H_    0.112031 0.161626 0.777506 0.176899
H45   H     H_    0.745410 0.229506 0.783036 0.160447
H46   H     H_    0.256049 0.773303 0.215948 0.159795
H47   H     H_    0.256034 0.226604 0.215948 0.159821
H48   H     H_    0.744366 0.772929 0.783202 0.168056
H49   H     H_    0.243951 0.726697 0.784051 0.159795
H50   H     H_    0.754589 0.270492 0.216964 0.160447
H51   H     H_    0.755632 0.727074 0.216799 0.168055
H52   H     H_    0.243966 0.273396 0.784051 0.159821
O1    O     O_R   0.746490 0.236330 0.638080 -0.633577
O2    O     O_R   0.253510 0.763670 0.361920 -0.632925
O3    O     O_R   0.253510 0.236330 0.361920 -0.632888
O4    O     O_R   0.746490 0.763670 0.638080 -0.627832
O5    O     O_R   0.246490 0.736330 0.638080 -0.632925
O6    O     O_R   0.753510 0.263670 0.361920 -0.633578
O7    O     O_R   0.753510 0.736330 0.361920 -0.627834
O8    O     O_R   0.246490 0.263670 0.638080 -0.632888
O9    O     O_R   0.674170 0.186160 0.516270 -0.641179
O10   O     O_R   0.325830 0.813840 0.483730 -0.641840
O11   O     O_R   0.325830 0.186160 0.483730 -0.641955
O12   O     O_R   0.674170 0.813840 0.516270 -0.637242
O13   O     O_R   0.174170 0.686160 0.516270 -0.641840
O14   O     O_R   0.825830 0.313840 0.483730 -0.641179
O15   O     O_R   0.825830 0.686160 0.483730 -0.637241
O16   O     O_R   0.174170 0.313840 0.516270 -0.641955
O17   O     O_R   0.739960 0.127620 0.525000 -0.624044
O18   O     O_R   0.260040 0.872380 0.475000 -0.623717
O19   O     O_R   0.260040 0.127620 0.475000 -0.623814
O20   O     O_R   0.739960 0.872380 0.525000 -0.625577
O21   O     O_R   0.239960 0.627620 0.525000 -0.623717
O22   O     O_R   0.760040 0.372380 0.475000 -0.624044
O23   O     O_R   0.760040 0.627620 0.475000 -0.625577
O24   O     O_R   0.239960 0.372380 0.525000 -0.623815
O25   O     O_R   0.680700 0.294870 0.629350 -0.631462
O26   O     O_R   0.319300 0.705130 0.370650 -0.633283
O27   O     O_R   0.319300 0.294870 0.370650 -0.633442
O28   O     O_R   0.680700 0.705130 0.629350 -0.633432
O29   O     O_R   0.180700 0.794870 0.629350 -0.633283
O30   O     O_R   0.819300 0.205130 0.370650 -0.631462
O31   O     O_R   0.819300 0.794870 0.370650 -0.633432
O32   O     O_R   0.180700 0.205130 0.629350 -0.633442
O33   O     O_R   0.062020 0.072840 0.007170 -0.623431
O34   O     O_R   0.937980 0.927160 0.992830 -0.622139
O35   O     O_R   0.937980 0.072840 0.992830 -0.621220
O36   O     O_R   0.062020 0.927160 0.007170 -0.623324
O37   O     O_R   0.562020 0.572840 0.007170 -0.622138
O38   O     O_R   0.437980 0.427160 0.992830 -0.623431
O39   O     O_R   0.437980 0.572840 0.992830 -0.623324
O40   O     O_R   0.562020 0.427160 0.007170 -0.621220
O41   O     O_R   0.947860 0.073950 0.109290 -0.621602
O42   O     O_R   0.052140 0.926050 0.890710 -0.625861
O43   O     O_R   0.052140 0.073950 0.890710 -0.626153
O44   O     O_R   0.947860 0.926050 0.109290 -0.621363
O45   O     O_R   0.447860 0.573950 0.109290 -0.625861
O46   O     O_R   0.552140 0.426050 0.890710 -0.621603
O47   O     O_R   0.552140 0.573950 0.890710 -0.621362
O48   O     O_R   0.447860 0.426050 0.109290 -0.626153
Zn1   Zn    Zn3+2 0.792340 0.208750 0.507670 0.952742
Zn2   Zn    Zn3+2 0.207660 0.791250 0.492330 0.948323
Zn3   Zn    Zn3+2 0.207660 0.208750 0.492330 0.948134
Zn4   Zn    Zn3+2 0.792340 0.791250 0.507670 0.960923
Zn5   Zn    Zn3+2 0.292340 0.708750 0.507670 0.948323
Zn6   Zn    Zn3+2 0.707660 0.291250 0.492330 0.952742
Zn7   Zn    Zn3+2 0.707660 0.708750 0.492330 0.960921
Zn8   Zn    Zn3+2 0.292340 0.291250 0.507670 0.948134
Zn9   Zn    Zn3+2 0.505960 0.500000 0.080520 0.954985
Zn10  Zn    Zn3+2 0.494040 0.500000 0.919480 0.962711
Zn11  Zn    Zn3+2 0.005960 1.000000 0.080520 0.962712
Zn12  Zn    Zn3+2 0.994040 0.000000 0.919480 0.954985
I1    I     I_    0.742950 0.434171 0.950152 -0.351119
I2    I     I_    0.385742 0.810028 0.896989 -0.384823
I3    I     I_    0.385664 0.189775 0.897035 -0.383593
I4    I     I_    0.819566 0.650501 0.798494 -0.345143
I5    I     I_    0.114257 0.689972 0.103011 -0.384823
I6    I     I_    0.757048 0.065826 0.049849 -0.351114
I7    I     I_    0.680435 0.849510 0.201501 -0.345135
I8    I     I_    0.114336 0.310225 0.102965 -0.383593

loop_
_geom_bond_atom_site_label_1
_geom_bond_atom_site_label_2
_ccdc_geom_bond_type
C39   I8    S    
O48   Zn9   S    
O22   Zn6   S    
O3    Zn3   S    
O27   Zn8   S    
C36   H28   S    
C31   H23   S    
C70   C78   A    
C18   C144  A    
C22   C94   S    
C69   C77   A    
O36   Zn11  S    
C34   C42   A    
C82   H50   S    
C13   C116  A    
C14   H14   S    
C131  C134  A    
C45   C93   A    
C16   C113  A    
O18   Zn2   S    
C71   C79   A    
C109  C117  A    
C113  C131  A    
C101  O43   A    
O35   Zn12  S    
C30   C38   A    
C6    O30   A    
C27   C99   S    
C5    O29   A    
C54   C107  S    
C102  O44   A    
C13   C139  A    
C107  O39   A    
C109  C127  A    
C138  C146  A    
C90   O14   A    
C90   C145  S    
C67   H43   S    
C117  C119  A    
C89   O13   A    
O15   Zn4   S    
C25   C38   A    
C9    C140  A    
C22   C41   A    
C49   H33   S    
C156  H12   S    
C35   H27   S    
C14   C115  A    
C66   C74   A    
C108  O46   A    
C47   C95   A    
C8    C76   S    
C65   C73   A    
C107  O45   A    
O30   Zn1   S    
C111  C119  A    
C52   H36   S    
C81   H49   S    
C77   C93   A    
C7    O31   A    
C147  C154  A    
C84   H52   S    
C85   C150  S    
C141  C149  A    
C83   H51   S    
C52   C60   A    
C59   C67   A    
C45   C53   A    
O39   Zn10  S    
C9    C137  A    
C2    O26   A    
O26   Zn5   S    
C1    O25   A    
C132  C133  A    
C80   H48   S    
C121  H4    S    
C55   C63   A    
C111  C125  A    
C103  O35   A    
C122  H3    S    
O33   Zn11  S    
C113  C121  A    
C102  O34   A    
C87   O11   A    
C80   C96   A    
C116  C124  A    
C11   C144  A    
C16   C138  A    
C112  C126  A    
C127  C136  A    
O19   Zn3   S    
C3    O27   A    
C125  C135  A    
C13   H13   S    
C47   C55   A    
C126  C136  A    
C19   C141  A    
C29   H21   S    
C1    C69   S    
C92   C147  S    
C3    O3    A    
C82   C98   A    
C62   C70   A    
C140  C148  A    
C130  C134  A    
C53   C61   A    
C74   C82   A    
C2    C70   S    
O45   Zn9   S    
C119  H6    S    
C73   C81   A    
C91   C148  S    
C62   H38   S    
C4    O28   A    
C17   H17   S    
C6    C74   S    
C51   C59   A    
C19   H19   S    
C8    O32   A    
C117  H8    S    
C51   C99   A    
C89   C146  S    
C85   O9    A    
C118  H7    S    
C2    O2    A    
O29   Zn2   S    
C104  O42   A    
C55   C106  S    
C1    O1    A    
C103  O41   A    
C75   C83   A    
O7    Zn7   S    
O31   Zn4   S    
C92   O16   A    
C115  C123  A    
C18   C111  A    
O8    Zn8   S    
C20   H20   S    
C128  C135  A    
C155  H11   S    
C112  C120  A    
C86   C149  S    
C49   C97   A    
C7    C75   S    
O40   Zn9   S    
C54   C62   A    
C28   C39   A    
C27   C35   A    
C104  O36   A    
C85   O17   A    
C21   C29   A    
O4    Zn4   S    
C86   O10   A    
C23   C44   A    
C88   O12   A    
C91   O23   A    
C83   C99   A    
C23   C31   A    
C130  C132  A    
C146  C154  A    
C24   C32   A    
C79   C95   A    
O41   Zn11  S    
C20   C142  A    
C37   I6    S    
C81   C97   A    
C16   H16   S    
O44   Zn11  S    
O1    Zn1   S    
C46   C94   A    
C152  C155  A    
C27   C40   A    
C139  C147  A    
C124  H1    S    
C46   C54   A    
C25   C33   A    
C56   C64   A    
C30   H22   S    
C15   C114  A    
C15   H15   S    
C41   I2    S    
C38   I5    S    
O24   Zn8   S    
C151  C156  A    
C106  O38   A    
C125  C127  A    
C110  C118  A    
C11   C141  A    
C105  O37   A    
C43   I4    S    
C66   H42   S    
C120  H5    S    
C26   C98   S    
O16   Zn3   S    
C65   H41   S    
C12   C142  A    
C18   H18   S    
C25   C97   S    
C50   C58   A    
O47   Zn10  S    
C63   C71   A    
C14   C140  A    
O34   Zn12  S    
C87   C152  S    
C44   I3    S    
C33   H25   S    
C86   O18   A    
C87   O19   A    
C129  C133  A    
C36   C44   A    
O12   Zn7   S    
C67   C75   A    
C10   C139  A    
C105  O47   A    
C91   O15   A    
C60   C101  S    
C45   H29   S    
C17   C112  A    
C61   H37   S    
C15   C137  A    
C4    C72   S    
C47   H31   S    
C51   H35   S    
C58   C66   A    
C115  C129  A    
C19   C110  A    
C137  C145  A    
C145  C153  A    
C48   C56   A    
C57   C104  S    
O23   Zn7   S    
O46   Zn10  S    
C126  C128  A    
C76   C84   A    
C48   C96   A    
C153  H9    S    
C59   C102  S    
C114  C132  A    
O6    Zn6   S    
O37   Zn9   S    
O11   Zn8   S    
C78   H46   S    
C4    O4    A    
C57   C65   A    
C8    O8    A    
C77   H45   S    
C49   C57   A    
C154  H10   S    
O20   Zn4   S    
C26   C37   A    
C48   H32   S    
C3    C71   S    
C123  H2    S    
O21   Zn5   S    
O2    Zn2   S    
C106  O48   A    
C108  O40   A    
C52   C100  A    
C32   H24   S    
C40   I7    S    
C12   C143  A    
C68   H44   S    
C17   C143  A    
C79   H47   S    
C33   C41   A    
C142  C150  A    
C42   I1    S    
C24   C96   S    
C101  O33   A    
C149  C155  A    
C35   C43   A    
O42   Zn12  S    
C26   C34   A    
C72   C80   A    
C22   C30   A    
O9    Zn6   S    
C68   C76   A    
C53   C108  S    
C28   C100  S    
C88   O20   A    
C21   C93   S    
C24   C43   A    
C78   C94   A    
C5    O5    A    
C64   H40   S    
C46   H30   S    
C143  C151  A    
C88   C151  S    
C23   C95   S    
C34   H26   S    
C63   H39   S    
C61   C69   A    
C32   C40   A    
O32   Zn3   S    
C5    C73   S    
C50   H34   S    
C118  C120  A    
C56   C105  S    
C121  C123  A    
O14   Zn1   S    
C84   C100  A    
C60   C68   A    
O17   Zn1   S    
C20   C109  A    
C114  C122  A    
C50   C98   A    
C10   C134  A    
C116  C130  A    
C28   C36   A    
O28   Zn7   S    
C144  C152  A    
C12   C136  A    
C29   C37   A    
C6    O6    A    
C31   C39   A    
O10   Zn5   S    
C92   O24   A    
C90   O22   A    
C150  C156  A    
C58   C103  S    
C10   C138  A    
O5    Zn5   S    
C89   O21   A    
C148  C153  A    
O38   Zn10  S    
C122  C124  A    
O43   Zn12  S    
C21   C42   A    
C7    O7    A    
C11   C135  A    
O13   Zn2   S    
C64   C72   A    
C110  C128  A    
O25   Zn6   S    
C129  C131  A    
C9    C133  A    
