data_mof_unit_38224.cif
_audit_creation_date              2012-12-10T18:23:11-0500
_audit_creation_method            fapswitch 2.2
_symmetry_space_group_name_H-M    P1
_symmetry_Int_Tables_number       1
_space_group_crystal_system       triclinic
_cell_length_a                    15.010419
_cell_length_b                    14.140504
_cell_length_c                    10.486853
_cell_angle_alpha                 90.376699
_cell_angle_beta                  90.005939
_cell_angle_gamma                 90.001051
_cell_volume                      2225.83770892

loop_
_atom_site_label
_atom_site_type_symbol
_atom_type_description
_atom_site_fract_x
_atom_site_fract_y
_atom_site_fract_z
_atom_type_partial_charge
C1    C     C_R   0.326809 0.499999 0.500039 0.879426
C2    C     C_R   0.954316 0.333224 0.438490 -0.216722
C3    C     C_R   0.577263 0.799961 0.523106 0.468587
C4    C     C_R   0.422345 0.200663 0.522705 0.431621
C5    C     C_R   0.422340 0.799333 0.477304 0.431634
C6    C     C_R   0.577258 0.200041 0.476880 0.468616
C7    C     C_R   0.419503 0.899477 0.491138 -0.089115
C8    C     C_R   0.580114 0.100360 0.491272 -0.062980
C9    C     C_R   0.580116 0.899642 0.508717 -0.062981
C10   C     C_R   0.419505 0.100519 0.508869 -0.089106
C11   C     C_R   0.499805 0.949737 0.499845 0.007914
C12   C     C_R   0.673473 0.500001 0.499957 0.864793
C13   C     C_R   0.499805 0.050262 0.500155 0.007909
C14   C     C_R   0.338859 0.950500 0.493594 -0.181699
C15   C     C_R   0.660751 0.049424 0.493439 -0.179010
C16   C     C_R   0.660752 0.950582 0.506540 -0.179025
C17   C     C_R   0.338860 0.049493 0.506422 -0.181684
C18   C     C_R   0.500037 0.499632 0.257419 0.836751
C19   C     C_R   0.500119 0.500368 0.742581 0.836740
C20   C     C_3   0.426947 0.544562 0.042872 -0.175383
C21   C     C_3   0.573593 0.455423 0.957099 -0.189220
C22   C     C_3   0.500290 0.590369 0.960788 -0.150088
C23   C     C_R   0.954303 0.500004 0.499962 0.067654
C24   C     C_3   0.500229 0.409632 0.039212 -0.150117
C25   C     C_3   0.426943 0.455478 0.957048 -0.175348
C26   C     C_3   0.573598 0.544538 0.042982 -0.189167
C27   C     C_3   0.500272 0.501143 0.877637 0.041523
C28   C     C_3   0.500220 0.498858 0.122363 0.041517
C29   C     C_R   0.815831 0.416681 0.471047 -0.263340
C30   C     C_R   0.185386 0.582549 0.533835 -0.252014
C31   C     C_R   0.769737 0.500005 0.499941 -0.084171
C32   C     C_R   0.231070 0.499997 0.500036 -0.100687
C33   C     C_R   0.815835 0.583331 0.528832 -0.263339
C34   C     C_R   0.046959 0.500002 0.499986 0.067796
C35   C     C_R   0.185382 0.417447 0.466214 -0.252033
C36   C     C_R   0.907962 0.583884 0.530223 0.111287
C37   C     C_R   0.093280 0.416450 0.467529 0.107969
C38   C     C_3   0.646062 0.741366 0.699827 0.158214
C39   C     C_3   0.712859 0.805099 0.767857 -0.946685
C40   C     C_3   0.338512 0.242763 0.693171 0.108929
C41   C     C_3   0.256982 0.297946 0.736985 -0.837977
C42   C     C_3   0.338476 0.757227 0.306845 0.108936
C43   C     C_3   0.256962 0.702003 0.263031 -0.837915
C44   C     C_3   0.646009 0.258636 0.300141 0.158220
C45   C     C_R   0.907958 0.416127 0.469680 0.111296
C46   C     C_3   0.712734 0.194848 0.232082 -0.946727
C47   C     C_R   0.093284 0.583550 0.532469 0.107963
C48   C     C_R   0.954323 0.666786 0.561428 -0.216728
C49   C     C_R   0.046883 0.333501 0.436879 -0.224352
C50   C     C_R   0.046890 0.666504 0.563087 -0.224355
H1    H     H_    0.367226 0.419538 0.917511 0.131170
H2    H     H_    0.221354 0.353995 0.438924 0.205448
H3    H     H_    0.919044 0.731482 0.584835 0.146866
H4    H     H_    0.082140 0.269035 0.412241 0.148509
H5    H     H_    0.082149 0.730969 0.587740 0.148511
H6    H     H_    0.919034 0.268531 0.415063 0.146873
H7    H     H_    0.275561 0.913887 0.488813 0.170010
H8    H     H_    0.724016 0.086039 0.488547 0.181648
H9    H     H_    0.724018 0.913969 0.511422 0.181645
H10   H     H_    0.275563 0.086103 0.511210 0.170014
H11   H     H_    0.663589 0.666960 0.721857 0.169351
H12   H     H_    0.633215 0.580609 0.082842 0.135931
H13   H     H_    0.578386 0.753845 0.741164 0.117776
H14   H     H_    0.693680 0.880364 0.756625 0.261643
H15   H     H_    0.713892 0.788285 0.871139 0.226151
H16   H     H_    0.780601 0.793917 0.727940 0.258947
H17   H     H_    0.398153 0.273197 0.741549 0.155588
H18   H     H_    0.329983 0.168095 0.724022 0.126150
H19   H     H_    0.196668 0.271966 0.686362 0.259393
H20   H     H_    0.247435 0.288650 0.841149 0.199634
H21   H     H_    0.266097 0.374365 0.717615 0.254783
H22   H     H_    0.398121 0.726826 0.258458 0.155560
H23   H     H_    0.367233 0.580534 0.082343 0.131168
H24   H     H_    0.329910 0.831893 0.276001 0.126152
H25   H     H_    0.196645 0.727952 0.313659 0.259393
H26   H     H_    0.247392 0.711297 0.158869 0.199615
H27   H     H_    0.266112 0.625588 0.282397 0.254781
H28   H     H_    0.663582 0.333029 0.278102 0.169317
H29   H     H_    0.578307 0.246212 0.258838 0.117822
H30   H     H_    0.693495 0.119598 0.243304 0.261642
H31   H     H_    0.713753 0.211669 0.128804 0.226156
H32   H     H_    0.780497 0.205963 0.271981 0.258962
H33   H     H_    0.633209 0.419320 0.917307 0.135933
H34   H     H_    0.500217 0.664094 0.925079 0.129571
H35   H     H_    0.500099 0.335906 0.074920 0.129577
H36   H     H_    0.780569 0.352353 0.448506 0.213602
H37   H     H_    0.221360 0.646000 0.561137 0.205427
H38   H     H_    0.780578 0.647659 0.551367 0.213627
N1    N     N_R   0.500000 0.750030 0.500000 -0.194210
N2    N     N_R   0.500000 0.249970 0.500000 -0.194221
O1    O     O_R   0.367850 0.580280 0.500030 -0.563875
O2    O     O_3   0.346376 0.248516 0.559049 -0.591626
O3    O     O_3   0.346366 0.751475 0.440966 -0.591622
O4    O     O_3   0.652135 0.246106 0.434074 -0.616774
O5    O     O_R   0.632150 0.419720 0.499970 -0.584523
O6    O     O_R   0.632150 0.580280 0.499970 -0.584535
O7    O     O_R   0.367850 0.419720 0.500030 -0.563886
O8    O     O_R   0.499970 0.580260 0.313950 -0.623621
O9    O     O_R   0.500030 0.419740 0.686050 -0.623625
O10   O     O_R   0.500030 0.580260 0.686050 -0.647261
O11   O     O_R   0.499970 0.419740 0.313950 -0.647259
O12   O     O_3   0.652151 0.753896 0.565892 -0.616774
Zn1   Zn    Zn3+2 0.500000 0.607200 0.500000 0.978073
Zn2   Zn    Zn3+2 0.500000 0.392800 0.500000 0.978067

loop_
_geom_bond_atom_site_label_1
_geom_bond_atom_site_label_2
_ccdc_geom_bond_type
C30   C32   A    
C21   C26   S    
C8    C13   A    
C23   C45   A    
C42   O3    S    
C7    C11   A    
C39   H14   S    
C35   C37   A    
C33   H38   S    
C38   C39   S    
C20   C25   S    
C10   C17   A    
O8    Zn1   S    
C34   C37   A    
C33   C36   A    
C46   H32   S    
C7    C14   A    
C21   H33   S    
C6    O4    S    
C40   H17   S    
C31   C33   A    
C12   O5    A    
C19   C27   S    
C24   H35   S    
C41   H21   S    
C38   H11   S    
C48   C50   A    
O9    Zn2   S    
C21   C27   S    
C1    O1    A    
N1    Zn1   S    
C39   H15   S    
C14   C17   A    
C44   C46   S    
C47   C50   A    
C4    N2    A    
C2    C45   A    
C43   H25   S    
C48   H3    S    
C42   H24   S    
C15   C16   A    
C32   C35   A    
C30   C47   A    
C18   C28   S    
C24   C25   S    
C1    O7    A    
C5    C7    A    
C19   O9    A    
C6    C8    A    
C8    C15   A    
C20   C28   S    
C6    N2    A    
O10   Zn1   S    
C29   C45   A    
C16   H9    S    
C22   H34   S    
C25   H1    S    
C3    C9    A    
C2    C49   A    
C46   H31   S    
C37   C49   A    
C23   C34   A    
C42   H22   S    
C40   O2    S    
C9    C11   A    
N2    Zn2   S    
C29   H36   S    
C3    O12   S    
C40   C41   S    
C20   C22   S    
O11   Zn2   S    
C22   C27   S    
C12   C31   S    
C40   H18   S    
C39   H16   S    
C21   C24   S    
C43   H27   S    
C42   C43   S    
C4    C10   A    
O5    Zn2   S    
C41   H19   S    
C38   H13   S    
C43   H26   S    
C14   H7    S    
C9    C16   A    
C44   H29   S    
C24   C28   S    
O1    Zn1   S    
C10   C13   A    
C5    O3    S    
C19   O10   A    
C25   C27   S    
C26   C28   S    
C50   H5    S    
C3    N1    A    
C44   H28   S    
C26   H12   S    
C38   O12   S    
C2    H6    S    
C46   H30   S    
C11   C13   A    
C15   H8    S    
C20   H23   S    
C36   C48   A    
C1    C32   S    
O7    Zn2   S    
C44   O4    S    
C17   H10   S    
C29   C31   A    
C23   C36   A    
C22   C26   S    
O6    Zn1   S    
C35   H2    S    
C12   O6    A    
C34   C47   A    
C18   O8    A    
C30   H37   S    
C18   O11   A    
C5    N1    A    
C49   H4    S    
C41   H20   S    
C4    O2    S    
