data_mof_unit_50587.cif
_audit_creation_date              2012-12-11T14:56:46-0500
_audit_creation_method            fapswitch 2.2
_symmetry_space_group_name_H-M    P1
_symmetry_Int_Tables_number       1
_space_group_crystal_system       triclinic
_cell_length_a                    10.53802
_cell_length_b                    10.694013
_cell_length_c                    17.094193
_cell_angle_alpha                 80.292547
_cell_angle_beta                  90.26755
_cell_angle_gamma                 119.364266
_cell_volume                      1648.02539309

loop_
_atom_site_label
_atom_site_type_symbol
_atom_type_description
_atom_site_fract_x
_atom_site_fract_y
_atom_site_fract_z
_atom_type_partial_charge
C1    C     C_R   0.221680 0.853607 0.128464 0.544473
C2    C     C_1   0.656664 0.352518 0.708247 -0.020502
C3    C     C_R   0.536991 0.747709 0.780661 0.270979
C4    C     C_R   0.638500 0.282324 0.086032 0.566958
C5    C     C_R   0.523008 0.764183 0.700079 0.242372
C6    C     C_R   0.648665 0.859817 0.648749 -0.072918
C7    C     C_R   0.768500 0.972554 0.676859 -0.147321
C8    C     C_R   0.771583 0.975515 0.758204 0.206665
C9    C     C_R   0.656519 0.860194 0.811499 -0.021883
C10   C     C_R   0.263748 0.969715 0.756481 0.179794
C11   C     C_R   0.250312 0.952306 0.677340 0.200574
C12   C     C_R   0.823017 0.444970 0.257345 -0.201052
C13   C     C_R   0.160240 0.813449 0.661339 -0.009691
C14   C     C_R   0.094570 0.689518 0.722739 -0.140309
C15   C     C_R   0.113089 0.703985 0.801742 0.208584
C16   C     C_R   0.643684 0.856031 0.124276 0.547731
C17   C     C_R   0.194021 0.844723 0.818246 0.042321
C18   C     C_R   0.710738 0.772739 0.353593 0.549211
C19   C     C_R   0.727722 0.461286 0.383244 0.566279
C20   C     C_R   0.102996 0.809922 0.359026 0.540877
C21   C     C_R   0.673607 0.808068 0.580224 0.547635
C22   C     C_R   0.680715 0.385247 0.625056 0.587162
C23   C     C_R   0.803753 0.408616 0.182967 -0.187370
C24   C     C_R   0.101060 0.801877 0.585388 0.587437
C25   C     C_R   0.224373 0.864341 0.898868 0.613640
C26   C     C_R   0.638631 0.287601 0.861605 0.577122
C27   C     C_R   0.639248 0.869679 0.894945 0.571191
C28   C     C_R   0.560097 0.380497 0.188736 0.254396
C29   C     C_R   0.585297 0.429763 0.261986 0.226936
C30   C     C_R   0.710178 0.444388 0.299994 0.007054
C31   C     C_3   0.316770 0.214918 0.197842 -0.072227
C32   C     C_3   0.087126 0.490379 0.872479 -0.047488
C33   C     C_3   0.460141 0.512382 0.837543 -0.082333
C34   C     C_R   0.668462 0.364133 0.151014 0.010083
C35   C     C_3   0.005187 0.068383 0.790965 -0.092493
C36   C     C_1   0.685180 0.832493 0.201866 -0.031041
C37   C     C_1   0.702840 0.807821 0.270639 -0.018964
C38   C     C_1   0.178576 0.824145 0.210960 -0.057452
C39   C     C_1   0.149415 0.818553 0.279530 -0.061617
C40   C     C_1   0.648371 0.330691 0.778906 0.001742
Cr1   Cr    Cr6+3 0.402240 0.783890 0.019450 1.061256
Cr2   Cr    Cr6+3 0.382360 0.097900 0.991800 1.041672
Cr3   Cr    Cr6+3 0.715380 0.118170 0.988700 1.041031
Cr4   Cr    Cr6+3 0.936650 0.882420 0.465510 1.032186
Cr5   Cr    Cr6+3 0.605770 0.565620 0.493360 1.079353
Cr6   Cr    Cr6+3 0.921340 0.550490 0.496380 1.032923
H1    H     H_    0.018636 0.582797 0.710143 0.164675
H2    H     H_    0.189799 0.537832 0.901990 0.185129
H3    H     H_    0.103685 0.460391 0.815604 0.160473
H4    H     H_    0.429108 0.477670 0.257249 0.351538
H5    H     H_    0.564903 0.543601 0.865190 0.109941
H6    H     H_    0.464745 0.480565 0.779326 0.144084
H7    H     H_    0.372502 0.414924 0.877679 0.136158
H8    H     H_    0.385963 0.718586 0.619550 0.335904
H9    H     H_    0.093481 0.158018 0.816196 0.157843
H10   H     H_    0.049191 0.070832 0.731350 0.111207
H11   H     H_    0.976217 0.963553 0.831918 0.120110
H12   H     H_    0.924726 0.467831 0.282951 0.157762
H13   H     H_    0.360850 0.183471 0.729592 0.321101
H14   H     H_    0.891710 0.403691 0.153682 0.162882
H15   H     H_    0.863327 0.052858 0.636663 0.161835
H16   H     H_    0.281769 0.229481 0.255164 0.147158
H17   H     H_    0.348071 0.128506 0.209372 0.134578
H18   H     H_    0.220804 0.176072 0.162382 0.153538
H19   H     H_    0.281748 0.135234 0.617592 0.317824
H20   H     H_    0.009203 0.388017 0.913372 0.149866
O1    O     O_R   0.521780 0.757110 0.108900 -0.495683
O2    O     O_R   0.805020 0.410040 0.421340 -0.508412
O3    O     O_R   0.049240 0.685450 0.403290 -0.515959
O4    O     O_R   0.275160 0.783810 0.101120 -0.492901
O5    O     O_R   0.077520 0.903010 0.551800 -0.480726
O6    O     O_R   0.802980 0.872780 0.546830 -0.506048
O7    O     O_R   0.578090 0.681300 0.569920 -0.489077
O8    O     O_R   0.608530 0.436370 0.586530 -0.491670
O9    O     O_R   0.798770 0.401880 0.597100 -0.500562
O10   O     O_R   0.043450 0.677890 0.566230 -0.514607
O11   O     O_3   0.821250 0.666180 0.485090 -0.319238
O12   O     O_R   0.513330 0.228330 0.898660 -0.484372
O13   O     O_R   0.237900 0.972600 0.090980 -0.532279
O14   O     O_R   0.511190 0.220540 0.061620 -0.466119
O15   O     O_R   0.736920 0.257720 0.063840 -0.533534
O16   O     O_R   0.710450 0.984050 0.081720 -0.505980
O17   O     O_R   0.524090 0.765520 0.933110 -0.477112
O18   O     O_R   0.277300 0.791600 0.938160 -0.487751
O19   O     O_R   0.240210 0.981010 0.915190 -0.487583
O20   O     O_3   0.430825 0.347937 0.154307 -0.572471
O21   O     O_3   0.321845 0.069176 0.614969 -0.668792
O22   O     O_3   0.029827 0.586074 0.862477 -0.581496
O23   O     O_R   0.739230 0.266130 0.888050 -0.484172
O24   O     O_3   0.488528 0.459565 0.297885 -0.680297
O25   O     O_3   0.425704 0.625514 0.828966 -0.542465
O26   O     O_3   0.391134 0.671645 0.673800 -0.661529
O27   O     O_3   0.884860 0.091945 0.784852 -0.541643
O28   O     O_3   0.344654 0.106323 0.775645 -0.692885
O29   O     O_R   0.712580 0.991850 0.918770 -0.461745
O30   O     O_3   0.499990 0.999980 0.999980 -0.271374
O31   O     O_R   0.083770 0.911170 0.376030 -0.513445
O32   O     O_R   0.808770 0.880340 0.383890 -0.499385
O33   O     O_R   0.584340 0.689460 0.394160 -0.468220
O34   O     O_R   0.614320 0.443940 0.423590 -0.429047

loop_
_geom_bond_atom_site_label_1
_geom_bond_atom_site_label_2
_ccdc_geom_bond_type
Cr2   O14   S    
C11   C13   A    
C27   O29   A    
Cr6   O10   S    
C7    C8    A    
Cr1   O1    S    
C33   H6    S    
Cr6   O2    S    
C12   C23   A    
C26   O12   A    
Cr2   O30   S    
C3    O25   S    
C28   C29   A    
C18   C37   S    
C4    O14   A    
C33   O25   S    
C38   C39   T    
Cr1   O30   S    
C10   O28   S    
C10   C17   A    
Cr1   O17   S    
C21   O7    A    
Cr4   O5    S    
Cr5   O7    S    
Cr6   O9    S    
Cr6   O3    S    
Cr4   O32   S    
H4    O24   S    
C7    H15   S    
C20   O31   A    
C11   O21   S    
C8    C9    A    
C2    C22   S    
C25   O18   A    
Cr3   O29   S    
H13   O28   S    
C12   H12   S    
C28   C34   A    
Cr2   O13   S    
C31   O20   S    
C13   C14   A    
C32   H2    S    
C31   H16   S    
C22   O9    A    
C16   O16   A    
C29   O24   S    
H19   O21   S    
C35   O27   S    
C33   H7    S    
C23   H14   S    
C4    C34   S    
C4    O15   A    
C21   O6    A    
C35   H9    S    
C31   H17   S    
Cr5   O33   S    
C16   O1    A    
C20   C39   S    
C24   O10   A    
C6    C21   S    
C13   C24   S    
Cr5   O8    S    
C26   O23   A    
H8    O26   S    
C29   C30   A    
C3    C9    A    
Cr4   O31   S    
C23   C34   A    
C25   O19   A    
Cr3   O30   S    
C19   O2    A    
Cr2   O19   S    
Cr3   O23   S    
C14   H1    S    
C1    C38   S    
Cr2   O12   S    
C28   O20   S    
C1    O13   A    
C20   O3    A    
C18   O33   A    
C22   O8    A    
C9    C27   S    
C32   H20   S    
C15   C17   A    
C36   C37   T    
C12   C30   A    
C35   H10   S    
C31   H18   S    
C8    O27   S    
C3    C5    A    
Cr5   O34   S    
Cr6   O11   S    
C19   O34   A    
C6    C7    A    
C33   H5    S    
Cr4   O11   S    
C1    O4    A    
C35   H11   S    
C17   C25   S    
C27   O17   A    
C16   C36   S    
Cr1   O18   S    
C26   C40   S    
C5    C6    A    
Cr3   O15   S    
Cr4   O6    S    
C32   H3    S    
C5    O26   S    
C10   C11   A    
C2    C40   T    
Cr3   O16   S    
C14   C15   A    
Cr1   O4    S    
Cr5   O11   S    
C18   O32   A    
C19   C30   S    
C24   O5    A    
C15   O22   S    
C32   O22   S    
