data_mof_unit_51985.cif
_audit_creation_date              2013-03-05T15:45:15-0500
_audit_creation_method            fapswitch 2.2
_symmetry_space_group_name_H-M    P1
_symmetry_Int_Tables_number       1
_space_group_crystal_system       triclinic
_cell_length_a                    16.718227
_cell_length_b                    7.147311
_cell_length_c                    17.05036
_cell_angle_alpha                 90.00694
_cell_angle_beta                  100.675555
_cell_angle_gamma                 89.985063
_cell_volume                      2002.0910326

loop_
_atom_site_label
_atom_site_type_symbol
_atom_site_description
_atom_site_fract_x
_atom_site_fract_y
_atom_site_fract_z
_atom_type_partial_charge
O1    O     O_R   0.579510 0.506290 0.439030 -0.575888
O2    O     O_R   0.420490 0.006290 0.560970 -0.578345
O3    O     O_R   0.412540 0.170090 0.405290 -0.535553
O4    O     O_R   0.587460 0.670090 0.594710 -0.536095
C1    C     C_R   0.386328 0.345780 0.381133 1.023243
C2    C     C_R   0.613638 0.845783 0.618899 1.023350
O5    O     O_R   0.578390 0.176230 0.429330 -0.577466
O6    O     O_R   0.421610 0.676230 0.570670 -0.580229
O7    O     O_R   0.587530 0.011250 0.585190 -0.565056
O8    O     O_R   0.412470 0.511250 0.414810 -0.564777
C3    C     C_R   0.605402 0.346616 0.414565 1.071031
C4    C     C_R   0.394543 0.846717 0.585413 1.072799
O9    O     O_3   0.502800 0.340940 0.551110 -0.255006
O10   O     O_3   0.497200 0.840940 0.448890 -0.251785
V1    V     V_3+5 0.499480 0.064020 0.490520 1.365482
V2    V     V_3+5 0.500520 0.564020 0.509480 1.364249
C5    C     C_R   0.168061 0.898439 0.863063 -0.335168
C6    C     C_R   0.832258 0.398056 0.137273 -0.333735
C7    C     C_R   0.330369 0.871255 0.635616 -0.298161
C8    C     C_R   0.669988 0.370023 0.364855 -0.307437
C9    C     C_R   0.223465 0.067337 0.673215 -0.150321
C10   C     C_R   0.778901 0.562015 0.328894 -0.108226
C11   C     C_R   0.274171 0.021503 0.619569 0.369442
C12   C     C_R   0.727418 0.517371 0.381956 0.371430
C13   C     C_R   0.331546 0.766091 0.705561 -0.072522
C14   C     C_R   0.668383 0.266132 0.294521 -0.054295
C15   C     C_R   0.280165 0.812978 0.760617 -0.008986
C16   C     C_R   0.722651 0.307193 0.241578 -0.012721
C17   C     C_R   0.225202 0.966052 0.743771 -0.030329
C18   C     C_R   0.777266 0.460909 0.258279 -0.030383
C19   C     C_R   0.170117 0.010394 0.795513 0.331493
C20   C     C_R   0.831535 0.507116 0.205949 0.323818
C21   C     C_R   0.224004 0.750104 0.880045 -0.132717
C22   C     C_R   0.776688 0.248961 0.120555 -0.145526
C23   C     C_R   0.280709 0.708537 0.831220 0.354479
C24   C     C_R   0.722868 0.201232 0.171519 0.367366
H1    H     H_    0.224062 0.665418 0.932757 0.202676
H2    H     H_    0.777117 0.163174 0.068230 0.199162
H3    H     H_    0.180599 0.180782 0.657492 0.202635
H4    H     H_    0.821982 0.674845 0.344961 0.199532
H5    H     H_    0.373707 0.650317 0.716924 0.190972
H6    H     H_    0.622294 0.159143 0.280092 0.198195
C25   C     C_3   0.738546 0.780632 0.841586 0.147159
C26   C     C_3   0.261473 0.280490 0.158453 0.149502
H7    H     H_    0.720437 0.844671 0.894481 0.152848
H8    H     H_    0.279695 0.344507 0.105613 0.154770
C27   C     C_3   0.659596 0.771376 0.772250 0.380294
C28   C     C_3   0.340363 0.271103 0.227836 0.380279
H9    H     H_    0.876899 0.702976 0.756274 0.231896
H10   H     H_    0.123120 0.202894 0.243711 0.231851
H11   H     H_    0.754510 0.616616 0.676285 0.260624
H12   H     H_    0.245436 0.116688 0.323873 0.260820
C29   C     C_3   0.835567 0.824539 0.742357 -0.347630
C30   C     C_3   0.164400 0.324499 0.257637 -0.348201
C31   C     C_3   0.766714 0.097939 0.792930 0.045861
C32   C     C_3   0.233252 0.597857 0.207084 0.046544
C33   C     C_3   0.807488 0.907219 0.817379 -0.302209
C34   C     C_3   0.192504 0.407147 0.182629 -0.303797
H13   H     H_    0.814603 0.196044 0.781981 0.221845
H14   H     H_    0.185346 0.696043 0.217980 0.222382
C35   C     C_3   0.681911 0.864149 0.693766 -0.392039
C36   C     C_3   0.318035 0.364107 0.306288 -0.389565
C37   C     C_3   0.761334 0.770959 0.677495 -0.242449
C38   C     C_3   0.238608 0.271040 0.322566 -0.243223
C39   C     C_3   0.702024 0.077261 0.714750 0.134976
C40   C     C_3   0.297883 0.577201 0.285301 0.135684
H15   H     H_    0.645004 0.142332 0.725364 0.197269
H16   H     H_    0.354892 0.642285 0.274736 0.199016
H17   H     H_    0.873849 0.929101 0.718420 0.227958
H18   H     H_    0.126055 0.429045 0.281528 0.228783
H19   H     H_    0.773382 0.812963 0.618170 0.248241
H20   H     H_    0.226517 0.313285 0.381858 0.248372
O11   O     O_R   0.087500 0.266000 0.085220 -0.559991
O12   O     O_R   0.912500 0.766000 0.914780 -0.560034
O13   O     O_R   0.921600 0.589950 0.070670 -0.550415
O14   O     O_R   0.078400 0.089950 0.929330 -0.548487
C41   C     C_R   0.895363 0.420169 0.086212 1.090143
C42   C     C_R   0.104607 0.920148 0.913755 1.087907
O15   O     O_R   0.087460 0.596020 0.094710 -0.562615
O16   O     O_R   0.912540 0.096020 0.905290 -0.563491
O17   O     O_R   0.079520 0.760970 0.939020 -0.606947
O18   O     O_R   0.920480 0.260970 0.060980 -0.608637
C43   C     C_R   0.118217 0.426415 0.114899 0.971239
C44   C     C_R   0.881788 0.926438 0.885095 0.967315
O19   O     O_3   0.997180 0.425140 0.948910 -0.257178
O20   O     O_3   0.002820 0.925140 0.051090 -0.258565
V3    V     V_3+5 0.000520 0.702080 0.009480 1.334825
V4    V     V_3+5 0.999480 0.202080 0.990520 1.335732
N1    N     N_R   0.113035 0.160955 0.776645 0.234505
O21   O     O_R   0.138292 0.333507 0.781425 -0.371923
O22   O     O_R   0.035628 0.125696 0.755615 -0.400676
N2    N     N_R   0.888528 0.657849 0.224791 0.234078
O23   O     O_R   0.862973 0.830066 0.221754 -0.367905
O24   O     O_R   0.966182 0.623441 0.242697 -0.403416
Br1   Br    Br    0.619071 0.516847 0.753875 -0.331576
Br2   Br    Br    0.380739 0.016448 0.246307 -0.339332
Br3   Br    Br    0.715563 0.195829 0.880120 -0.355551
Br4   Br    Br    0.284485 0.695609 0.119943 -0.362462
N3    N     N_R   0.726973 0.182218 0.648780 0.252540
O25   O     O_R   0.797638 0.157417 0.628847 -0.355977
O26   O     O_R   0.680133 0.314051 0.613519 -0.329450
N4    N     N_R   0.272840 0.682146 0.351255 0.252109
O27   O     O_R   0.202085 0.657615 0.371015 -0.356906
O28   O     O_R   0.319655 0.813858 0.386618 -0.328654
N5    N     N_R   0.337759 0.559164 0.854474 0.247484
O29   O     O_R   0.415296 0.588376 0.858981 -0.262556
O30   O     O_R   0.314282 0.406771 0.885324 -0.315092
N6    N     N_R   0.671715 0.039768 0.152416 0.252691
O31   O     O_R   0.671824 0.907850 0.205038 -0.353607
O32   O     O_R   0.637716 0.007392 0.078652 -0.257829
N7    N     N_R   0.264766 0.124572 0.546498 0.227455
O33   O     O_R   0.257931 0.305917 0.547003 -0.397696
O34   O     O_R   0.246666 0.035378 0.479251 -0.363811
N8    N     N_R   0.736509 0.620186 0.455022 0.226352
O35   O     O_R   0.742121 0.801760 0.454398 -0.389529
O36   O     O_R   0.756293 0.531178 0.522159 -0.363357
N9    N     N_R   0.770024 0.599026 0.871316 0.284672
O37   O     O_R   0.813221 0.499370 0.831123 -0.391967
O38   O     O_R   0.772351 0.559876 0.946300 -0.352386
N10   N     N_R   0.230005 0.098945 0.128651 0.284456
O39   O     O_R   0.186747 0.999322 0.168766 -0.391768
O40   O     O_R   0.227772 0.059821 0.053674 -0.349543
N11   N     N_R   0.591020 0.870487 0.797910 0.240886
O41   O     O_R   0.531798 0.937531 0.744933 -0.422469
O42   O     O_R   0.576174 0.840532 0.869197 -0.226310
N12   N     N_R   0.409007 0.369773 0.202147 0.237726
O43   O     O_R   0.467904 0.438318 0.255053 -0.425461
O44   O     O_R   0.424285 0.338041 0.131142 -0.247034

loop_
_geom_bond_atom_site_label_1
_geom_bond_atom_site_label_2
_geom_bond_distance
_ccdc_geom_bond_type
C40   H16   1.105020 S    
H9    C29   1.108005 S    
C12   N8    1.429965 S    
N12   O43   1.301673 A    
C31   H13   1.105991 S    
C24   N6    1.437516 S    
C40   N4    1.475312 S    
N7    O33   1.301298 A    
O1    C3    1.315416 A    
C32   Br4   1.975191 S    
O16   C44   1.336634 A    
O2    C4    1.315296 A    
C2    O7    1.351462 A    
O15   V3    2.004037 S    
N8    O35   1.301364 A    
N11   O41   1.301663 A    
O5    C3    1.338969 A    
N5    O30   1.301504 A    
C14   H6    1.081202 S    
H10   C30   1.107989 S    
C30   C38   1.549750 S    
C2    C35   1.552335 S    
O14   C42   1.333465 A    
N9    O38   1.302331 A    
O20   V4    2.228603 S    
N11   O42   1.302559 A    
C15   C17   1.423232 A    
C26   N10   1.455953 S    
N6    O31   1.301386 A    
C35   C37   1.555523 S    
N2    O23   1.300708 A    
C36   C38   1.555573 S    
C28   C36   1.598465 S    
C8    C12   1.418697 A    
C26   C34   1.579362 S    
C19   N1    1.434580 S    
C30   H18   1.109806 S    
O12   V3    2.025046 S    
N1    O22   1.301930 A    
C28   Br2   1.946367 S    
O14   V4    1.995209 S    
O18   V4    1.988027 S    
O5    V1    1.995690 S    
C29   H17   1.109861 S    
O6    V2    1.995311 S    
O16   V4    2.004193 S    
C5    C21   1.407769 A    
C31   C39   1.560218 S    
C26   H8    1.102589 S    
O19   V3    2.228407 S    
C3    C8    1.500489 S    
C36   C40   1.586332 S    
H11   C37   1.108850 S    
C39   N3    1.475177 S    
O4    C2    1.368134 A    
H12   C38   1.108864 S    
C13   H5    1.080841 S    
C29   C33   1.558187 S    
O20   V3    1.742468 S    
C15   C23   1.415134 A    
C9    C17   1.399774 A    
C21   H1    1.083487 S    
C32   H14   1.105996 S    
O4    V2    2.004219 S    
C7    C11   1.419539 A    
O11   V4    2.025132 S    
C23   N5    1.437413 S    
C6    C22   1.407928 A    
C27   N11   1.480854 S    
N3    O25   1.300486 A    
C9    H3    1.082337 S    
O6    C4    1.339603 A    
C10   H4    1.082256 S    
C31   Br3   1.975160 S    
N2    O24   1.300815 A    
C33   C44   1.537405 S    
N7    O34   1.297698 A    
O1    V2    1.986038 S    
N4    O28   1.299121 A    
O2    V1    1.986239 S    
O13   C41   1.333639 A    
O17   V3    1.988237 S    
C25   N9    1.455907 S    
O13   V3    1.995585 S    
N3    O26   1.299161 A    
C37   H19   1.108816 S    
C31   C33   1.546273 S    
C5    C19   1.408154 A    
C10   C12   1.396385 A    
C6    C20   1.408505 A    
O3    V1    2.004065 S    
N10   O39   1.296731 A    
N10   O40   1.302335 A    
C30   C34   1.558290 S    
O19   V4    1.742607 S    
N12   O44   1.302619 A    
C10   C18   1.400070 A    
C22   H2    1.083601 S    
O12   C44   1.318439 A    
O3    C1    1.368013 A    
C27   C35   1.598407 S    
N8    O36   1.297782 A    
N6    O32   1.301380 A    
C13   C15   1.424754 A    
C11   N7    1.430800 S    
N5    O29   1.301191 A    
C14   C16   1.423999 A    
C39   H15   1.105196 S    
C9    C11   1.396306 A    
O7    V1    2.008528 S    
C1    O8    1.351498 A    
C25   H7    1.102507 S    
O8    V2    2.008599 S    
N9    O37   1.296716 A    
C18   C20   1.424244 A    
C29   C37   1.549691 S    
C42   O17   1.312678 A    
C20   N2    1.434837 S    
C8    C14   1.406444 A    
C41   O18   1.312506 A    
C6    C41   1.495444 S    
C32   C40   1.560118 S    
C4    C7    1.501539 S    
C16   C18   1.423354 A    
C5    C42   1.495360 S    
C21   C23   1.404351 A    
C32   C34   1.546282 S    
C1    C36   1.552221 S    
C22   C24   1.403909 A    
C38   H20   1.108890 S    
N4    O27   1.300495 A    
C7    C13   1.406813 A    
C25   C33   1.579330 S    
C28   N12   1.480861 S    
O15   C43   1.336631 A    
C35   C39   1.586412 S    
C16   C24   1.414871 A    
C17   C19   1.423941 A    
O9    V2    1.742894 S    
C27   Br1   1.946408 S    
O10   V1    1.742755 S    
N1    O21   1.301320 A    
C34   C43   1.537391 S    
C25   C27   1.601874 S    
O11   C43   1.318415 A    
C26   C28   1.601681 S    
