data_mof_unit_38866.cif
_audit_creation_date              2013-03-05T15:42:12-0500
_audit_creation_method            fapswitch 2.2
_symmetry_space_group_name_H-M    P1
_symmetry_Int_Tables_number       1
_space_group_crystal_system       triclinic
_cell_length_a                    7.73832
_cell_length_b                    8.578662
_cell_length_c                    16.898113
_cell_angle_alpha                 91.288399
_cell_angle_beta                  83.105901
_cell_angle_gamma                 93.497855
_cell_volume                      1111.45611705

loop_
_atom_site_label
_atom_site_type_symbol
_atom_site_description
_atom_site_fract_x
_atom_site_fract_y
_atom_site_fract_z
_atom_type_partial_charge
O1    O     O_R   0.388470 0.738640 0.505270 -0.616240
O2    O     O_R   0.611530 0.261360 0.494730 -0.616174
O3    O     O_R   0.679650 0.711510 0.491500 -0.635952
O4    O     O_R   0.320350 0.288490 0.508500 -0.635972
C1    C     C_R   0.546058 0.794743 0.497909 0.945092
C2    C     C_R   0.453942 0.205257 0.502090 0.944866
O5    O     O_R   0.337210 0.515200 0.623500 -0.544202
O6    O     O_R   0.662790 0.484800 0.376500 -0.544070
O7    O     O_R   0.628380 0.488060 0.609730 -0.579304
O8    O     O_R   0.371620 0.511940 0.390270 -0.579382
C3    C     C_R   0.482990 0.506869 0.653753 1.016648
C4    C     C_R   0.516973 0.492896 0.346254 1.016482
Zn1   Zn    Zn3+2 0.305580 0.518120 0.509190 1.058070
Zn2   Zn    Zn3+2 0.694420 0.481880 0.490810 1.058216
C5    C     C_R   0.490655 0.532543 0.738958 -0.493475
C6    C     C_R   0.509128 0.466038 0.261134 -0.493317
C7    C     C_R   0.646235 0.506308 0.771435 0.561175
C8    C     C_R   0.353257 0.491139 0.228646 0.561451
C9    C     C_R   0.658735 0.536428 0.851870 0.151532
C10   C     C_R   0.340571 0.459661 0.148342 0.150979
C11   C     C_R   0.511662 0.587780 0.900131 -0.368767
C12   C     C_R   0.487704 0.408146 0.100194 -0.368360
C13   C     C_R   0.361881 0.623819 0.867488 0.650710
C14   C     C_R   0.637705 0.373021 0.132903 0.650090
C15   C     C_R   0.350556 0.595895 0.787151 0.518228
C16   C     C_R   0.649247 0.402275 0.213120 0.518132
C17   C     C_2   0.497981 0.569684 0.985468 0.645547
C18   C     C_2   0.501420 0.426071 0.014838 0.646375
C19   C     C_2   0.570440 0.958069 0.496730 -0.319472
C20   C     C_2   0.429560 0.041931 0.503267 -0.319547
H1    H     H_    0.703593 0.008795 0.490499 0.191157
H2    H     H_    0.296407 0.991205 0.509498 0.191138
N1    N     N_2   0.953500 0.457650 0.478520 -0.137307
N2    N     N_2   0.046500 0.542350 0.521480 -0.137434
H3    H     H_    0.022582 0.382848 0.440070 0.226478
H4    H     H_    0.977418 0.617152 0.559930 0.226267
F1    F     F_    0.786433 0.451442 0.725341 -0.562662
F2    F     F_    0.212959 0.546190 0.274591 -0.562548
F3    F     F_    0.797867 0.369648 0.243166 -0.544942
F4    F     F_    0.202178 0.629422 0.757154 -0.545058
F5    F     F_    0.525531 0.298143 0.966444 -0.573169
F6    F     F_    0.473894 0.697594 0.033883 -0.573499
F7    F     F_    0.222550 0.676621 0.914757 -0.490468
F8    F     F_    0.777061 0.319957 0.085761 -0.490442
N3    N     N_R   0.181550 0.485058 0.115086 0.303223
O9    O     O_R   0.135742 0.398141 0.056120 -0.221246
O10   O     O_R   0.080838 0.594043 0.143720 -0.179718
N4    N     N_R   0.817587 0.510052 0.885067 0.303235
O11   O     O_R   0.918197 0.401352 0.855960 -0.180712
O12   O     O_R   0.863532 0.595967 0.944352 -0.221654

loop_
_geom_bond_atom_site_label_1
_geom_bond_atom_site_label_2
_geom_bond_distance
_ccdc_geom_bond_type
C12   C18   1.444473 S    
O5    C3    1.299607 A    
O7    Zn2   2.013490 S    
C19   C20   1.334713 D    
C8    C10   1.391483 A    
C10   N3    1.442835 S    
O6    C4    1.299579 A    
Zn2   N1    2.013625 S    
N4    O12   1.301371 A    
N1    N2    1.269161 D    
C11   C17   1.444356 S    
O2    Zn2   1.960094 S    
Zn1   N2    2.013625 S    
C19   H1    1.087858 S    
C7    F1    1.359474 S    
N3    O9    1.301383 A    
C20   H2    1.087858 S    
O7    C3    1.288817 A    
C17   F6    1.362396 S    
O2    C2    1.276267 A    
O3    Zn2   1.979872 S    
O8    C4    1.288862 A    
O1    C1    1.276267 A    
C6    C16   1.405126 A    
C6    C8    1.413716 A    
N4    O11   1.301405 A    
C7    C9    1.391500 A    
C10   C12   1.405861 A    
N2    H4    1.029285 S    
C13   C15   1.385409 A    
C15   F4    1.358160 S    
C8    F2    1.359486 S    
C14   F8    1.357238 S    
C12   C14   1.395647 A    
C16   F3    1.358169 S    
C5    C15   1.404972 A    
O1    Zn1   1.960095 S    
C1    C19   1.402583 S    
O3    C1    1.284514 A    
C18   F5    1.362340 S    
O5    Zn1   1.976901 S    
C13   F7    1.357303 S    
O4    C2    1.284515 A    
N3    O10   1.301410 A    
C17   C18   1.341464 D    
C5    C7    1.413684 A    
C9    N4    1.442965 S    
O6    Zn2   1.976899 S    
N1    H3    1.029286 S    
C3    C5    1.459352 S    
C11   C13   1.395755 A    
C2    C20   1.402580 S    
C4    C6    1.459464 S    
O4    Zn1   1.979872 S    
C14   C16   1.385441 A    
C9    C11   1.405926 A    
O8    Zn1   2.013488 S    
