data_mof_unit_16706.cif
_audit_creation_date              2012-12-10T17:53:18-0500
_audit_creation_method            fapswitch 2.2
_symmetry_space_group_name_H-M    P1
_symmetry_Int_Tables_number       1
_space_group_crystal_system       triclinic
_cell_length_a                    23.407977
_cell_length_b                    10.794443
_cell_length_c                    9.926925
_cell_angle_alpha                 91.533035
_cell_angle_beta                  92.215154
_cell_angle_gamma                 93.700841
_cell_volume                      2500.11919022

loop_
_atom_site_label
_atom_site_type_symbol
_atom_type_description
_atom_site_fract_x
_atom_site_fract_y
_atom_site_fract_z
_atom_type_partial_charge
C1    C     C_R   0.507596 0.262564 0.499640 0.942994
C2    C     C_R   0.966025 0.404646 0.298396 -0.017222
C3    C     C_R   0.025497 0.406954 0.301224 -0.234452
C4    C     C_R   0.057980 0.448264 0.416826 0.003990
C5    C     C_R   0.030875 0.483933 0.534648 -0.088053
C6    C     C_R   0.064021 0.523646 0.652436 -0.108313
C7    C     C_R   0.036636 0.562817 0.769880 0.516958
C8    C     C_R   0.976277 0.561020 0.765814 -0.293884
C9    C     C_R   0.117511 0.455934 0.416263 0.521706
C10   C     C_R   0.124187 0.523772 0.647628 0.539941
C11   C     C_R   0.241434 0.611802 0.519018 -0.014253
C12   C     C_R   0.389859 0.501742 0.498372 0.883399
C13   C     C_R   0.301148 0.615243 0.508997 -0.079053
C14   C     C_R   0.328127 0.502789 0.497452 -0.083694
C15   C     C_R   0.296784 0.388952 0.505407 -0.277995
C16   C     C_R   0.238034 0.385101 0.520420 0.039094
C17   C     C_R   0.210077 0.496411 0.525409 0.201916
C18   C     C_R   0.757868 0.382213 0.507614 -0.157183
C19   C     C_R   0.698827 0.384382 0.490877 -0.130008
C20   C     C_R   0.672960 0.498324 0.501178 -0.210405
C21   C     C_R   0.707678 0.610480 0.503007 0.412626
C22   C     C_R   0.766968 0.607315 0.527182 -0.063848
C23   C     C_R   0.504551 0.740724 0.501511 0.904717
C24   C     C_R   0.791885 0.492428 0.528444 0.185910
C25   C     C_R   0.564491 0.142297 0.737075 0.519299
C26   C     C_R   0.565569 0.080704 0.859303 -0.306643
C27   C     C_R   0.563292 0.952822 0.859426 -0.065259
C28   C     C_R   0.560512 0.887368 0.735942 -0.009368
C29   C     C_R   0.538594 0.944090 0.618820 -0.064073
C30   C     C_R   0.540637 0.075599 0.618583 -0.017118
C31   C     C_R   0.521772 0.133186 0.498419 -0.199745
C32   C     C_R   0.513419 0.063034 0.376580 -0.118726
C33   C     C_R   0.505659 0.935870 0.379786 0.408967
C34   C     C_R   0.610590 0.500916 0.501132 0.937841
C35   C     C_R   0.516222 0.875159 0.501749 -0.202396
C36   C     C_R   0.404584 0.368319 0.116322 -0.106269
C37   C     C_R   0.356603 0.333002 0.029686 0.434704
C38   C     C_R   0.365084 0.318320 0.893186 -0.313729
C39   C     C_R   0.416175 0.359524 0.841834 -0.186639
C40   C     C_R   0.457214 0.432577 0.920002 0.167501
C41   C     C_R   0.454940 0.434222 0.064611 0.035729
C42   C     C_R   0.542321 0.559986 0.077562 -0.087023
C43   C     C_R   0.541739 0.561464 0.935166 -0.117736
C44   C     C_R   0.883799 0.518491 0.647852 0.557723
C45   C     C_R   0.877957 0.451740 0.415957 0.500643
C46   C     C_R   0.937765 0.444872 0.414209 -0.043908
C47   C     C_R   0.970689 0.482053 0.533238 -0.026343
C48   C     C_R   0.943573 0.519746 0.650145 -0.065884
H1    H     H_    0.575750 0.131616 0.952627 0.173217
H2    H     H_    0.577371 0.607684 0.135708 0.155058
H3    H     H_    0.046496 0.377215 0.211484 0.173801
H4    H     H_    0.332897 0.268562 0.827343 0.173846
H5    H     H_    0.421909 0.332509 0.739786 0.221634
H6    H     H_    0.576617 0.609632 0.888100 0.154232
H7    H     H_    0.954311 0.595590 0.851325 0.196475
H8    H     H_    0.318466 0.303212 0.504319 0.159823
H9    H     H_    0.778071 0.294712 0.501002 0.167440
N1    N     N_R   0.852743 0.487007 0.531554 -0.340327
N2    N     N_R   0.149026 0.491833 0.530439 -0.354840
N3    N     N_R   0.499460 0.498800 0.142780 -0.113520
N4    N     N_R   0.499440 0.498720 0.857170 -0.104874
O1    O     O_R   0.500000 0.316780 0.614690 -0.600644
O2    O     O_2   0.844834 0.425603 0.303237 -0.554250
O3    O     O_2   0.144126 0.428505 0.302158 -0.607306
O4    O     O_2   0.157937 0.555024 0.758130 -0.521577
O5    O     O_R   0.500000 0.316750 0.385360 -0.633634
O6    O     O_R   0.416160 0.499970 0.614690 -0.632018
O7    O     O_R   0.416150 0.499950 0.385360 -0.631499
O8    O     O_R   0.500000 0.683250 0.614640 -0.620908
O9    O     O_R   0.500000 0.683220 0.385310 -0.573576
O10   O     O_R   0.583850 0.500050 0.614640 -0.575335
O11   O     O_R   0.583840 0.500030 0.385310 -0.646307
O12   O     O_2   0.856702 0.549035 0.760481 -0.558030
Zn1   Zn    Zn3+2 0.500000 0.500020 0.653130 0.981577
Zn2   Zn    Zn3+2 0.500000 0.499980 0.346870 0.964531
C49   C     C_1   0.936334 0.361098 0.173863 0.246104
N5    N     N_1   0.912853 0.326340 0.073846 -0.161658
C50   C     C_1   0.666917 0.268746 0.455448 0.197681
N6    N     N_1   0.642766 0.174744 0.425281 -0.210500
O13   O     O_3   0.684111 0.723364 0.482402 -0.649194
C51   C     C_3   0.675945 0.742082 0.342291 0.084034
H10   H     H_    0.641640 0.807836 0.330236 0.200028
H11   H     H_    0.660871 0.655528 0.284366 0.130731
C52   C     C_3   0.730777 0.799121 0.282146 -0.375269
H12   H     H_    0.748155 0.879980 0.346119 0.249168
H13   H     H_    0.763303 0.728729 0.279169 0.224908
C53   C     C_3   0.720057 0.842028 0.138812 -0.880008
H14   H     H_    0.699102 0.765140 0.074229 0.265066
H15   H     H_    0.761515 0.871991 0.095235 0.272968
H16   H     H_    0.692828 0.922468 0.139727 0.271420
C54   C     C_1   0.802329 0.721802 0.545822 0.253648
N7    N     N_1   0.830708 0.813320 0.560921 -0.198558
C55   C     C_1   0.511409 0.117732 0.244698 0.296980
N8    N     N_1   0.509311 0.161265 0.139625 -0.242423
O14   O     O_3   0.588175 0.263803 0.732448 -0.613327
C56   C     C_3   0.644141 0.278118 0.794722 0.096743
H17   H     H_    0.669806 0.343578 0.734250 0.190339
H18   H     H_    0.667236 0.190847 0.792121 0.107272
C57   C     C_3   0.643387 0.331732 0.940227 -0.385867
H19   H     H_    0.599359 0.354283 0.964607 0.250636
H20   H     H_    0.656817 0.260771 0.011966 0.202175
C58   C     C_3   0.683799 0.447939 0.963725 -0.844767
H21   H     H_    0.728678 0.425553 0.946923 0.286298
H22   H     H_    0.681018 0.483543 0.069144 0.253207
H23   H     H_    0.671847 0.521648 0.894106 0.264435
C59   C     C_1   0.574862 0.893185 0.984793 0.185101
N9    N     N_1   0.584155 0.846075 0.085689 -0.203325
C60   C     C_1   0.600701 0.792482 0.724619 0.218696
N10   N     N_1   0.634710 0.719786 0.720938 -0.178749
O15   O     O_3   0.492812 0.870711 0.258660 -0.615072
C61   C     C_3   0.432974 0.862500 0.231134 0.111961
H24   H     H_    0.414569 0.955029 0.238798 0.134147
H25   H     H_    0.411646 0.798918 0.302520 0.165020
C62   C     C_3   0.420975 0.809051 0.087954 -0.311790
H26   H     H_    0.439942 0.874396 0.014637 0.231333
H27   H     H_    0.441317 0.719357 0.076985 0.238820
C63   C     C_3   0.356814 0.787104 0.055589 -0.923703
H28   H     H_    0.337364 0.719426 0.125776 0.262561
H29   H     H_    0.349729 0.748818 0.950873 0.275477
H30   H     H_    0.335487 0.875821 0.064168 0.277340
C64   C     C_1   0.401849 0.298530 0.237377 0.388459
N11   N     N_1   0.395214 0.237296 0.330254 -0.254541
O16   O     O_3   0.306603 0.280448 0.081320 -0.646059
C65   C     C_3   0.259141 0.345626 0.036943 0.092533
H31   H     H_    0.259960 0.367640 0.927948 0.149667
H32   H     H_    0.258466 0.434181 0.096793 0.169829
C66   C     C_3   0.204131 0.265748 0.058570 -0.300184
H33   H     H_    0.207441 0.171859 0.011842 0.226560
H34   H     H_    0.198640 0.255121 0.168433 0.261367
C67   C     C_3   0.151836 0.323055 0.995500 -0.829690
H35   H     H_    0.149752 0.420468 0.032572 0.298814
H36   H     H_    0.112209 0.268820 0.022570 0.248882
H37   H     H_    0.154051 0.321658 0.883883 0.266947
O17   O     O_3   0.070473 0.615784 0.878331 -0.590267
C68   C     C_3   0.046629 0.601324 0.006407 0.085645
H38   H     H_    0.081485 0.576349 0.077653 0.187321
H39   H     H_    0.013049 0.523723 0.009838 0.116551
C69   C     C_3   0.025545 0.725264 0.056677 -0.349494
H40   H     H_    0.062535 0.795244 0.067436 0.241778
H41   H     H_    0.994165 0.759976 0.982408 0.227246
C70   C     C_3   0.997646 0.713147 0.192443 -0.903377
H42   H     H_    0.959195 0.647234 0.182858 0.274419
H43   H     H_    0.984083 0.805073 0.226785 0.270524
H44   H     H_    0.028488 0.680314 0.269253 0.271238
C71   C     C_1   0.211955 0.725753 0.522661 0.223048
N12   N     N_1   0.188362 0.816707 0.525551 -0.171557
C72   C     C_1   0.334695 0.733066 0.519335 0.146326
N13   N     N_1   0.361162 0.827420 0.529363 -0.231364
C73   C     C_1   0.206846 0.266320 0.532009 0.181253
N14   N     N_1   0.181812 0.171131 0.541329 -0.181393

loop_
_geom_bond_atom_site_label_1
_geom_bond_atom_site_label_2
_ccdc_geom_bond_type
C68   C69   S    
C53   H14   S    
C55   N8    T    
C9    O3    S    
O16   C65   S    
C23   O8    A    
C72   N13   T    
C52   C53   S    
C1    O1    A    
C66   H34   S    
C62   H26   S    
C73   N14   T    
C68   H38   S    
C45   C46   A    
C2    C46   A    
O7    Zn2   S    
C12   O7    A    
C28   C29   A    
C26   C27   A    
C29   C30   A    
C18   C24   A    
C5    C6    A    
C36   C37   A    
C52   H13   S    
C63   H29   S    
C71   N12   T    
C30   C31   A    
C38   H4    S    
C59   N9    T    
C15   C16   A    
C56   C57   S    
C1    C31   S    
C60   N10   T    
C58   H23   S    
C18   C19   A    
O15   C61   S    
C43   H6    S    
C37   O16   S    
C70   H42   S    
C19   C20   A    
C44   N1    A    
C16   C17   A    
C56   H18   S    
C22   C54   S    
C16   C73   S    
C20   C34   S    
C32   C55   S    
C36   C64   S    
C13   C14   A    
C63   H30   S    
C23   O9    A    
C36   C41   A    
C44   O12   S    
O11   Zn2   S    
C8    H7    S    
C51   H11   S    
C51   H10   S    
C38   C39   A    
C12   O6    A    
C45   N1    A    
C7    C8    A    
C49   N5    T    
C7    O17   S    
C70   H44   S    
C42   N3    A    
C54   N7    T    
C3    H3    S    
C50   N6    T    
C11   C71   S    
C27   C59   S    
C25   C26   A    
C45   O2    S    
C40   N4    A    
C9    N2    A    
C19   C50   S    
C67   H36   S    
C8    C48   A    
C37   C38   A    
C5    C47   A    
C18   H9    S    
C47   C48   A    
C56   H17   S    
C1    O5    A    
O8    Zn1   S    
C61   H25   S    
O6    Zn1   S    
C52   H12   S    
C58   H22   S    
C64   N11   T    
O17   C68   S    
C69   H41   S    
C42   H2    S    
C65   C66   S    
C40   C41   A    
C57   H20   S    
C17   N2    S    
C25   O14   S    
C23   C35   S    
C53   H15   S    
C22   C24   A    
C26   H1    S    
C67   H37   S    
C42   C43   A    
C13   C72   S    
C66   H33   S    
C34   O11   A    
C39   C40   A    
C51   C52   S    
C2    C49   S    
C43   N4    A    
C65   H32   S    
C10   O4    S    
C25   C30   A    
C68   H39   S    
C46   C47   A    
C11   C17   A    
C61   H24   S    
C31   C32   A    
C41   N3    A    
C12   C14   S    
O13   C51   S    
C69   C70   S    
C6    C10   A    
O10   Zn1   S    
C62   H27   S    
C6    C7    A    
N4    Zn1   S    
C29   C35   A    
N3    Zn2   S    
C57   H19   S    
C32   C33   A    
C70   H43   S    
C2    C3    A    
C66   C67   S    
C63   H28   S    
C15   H8    S    
C11   C13   A    
C39   H5    S    
C28   C60   S    
O5    Zn2   S    
C21   O13   S    
C33   C35   A    
C67   H35   S    
C61   C62   S    
C58   H21   S    
C62   C63   S    
C69   H40   S    
C44   C48   A    
C4    C5    A    
C57   C58   S    
C20   C21   A    
O9    Zn2   S    
C24   N1    S    
C53   H16   S    
O14   C56   S    
C14   C15   A    
O1    Zn1   S    
C33   O15   S    
C4    C9    A    
C21   C22   A    
C10   N2    A    
C34   O10   A    
C3    C4    A    
C65   H31   S    
C27   C28   A    
