data_mof_unit_68600.cif
_audit_creation_date              2012-10-26T20:19:32-0400
_audit_creation_method            fapswitch 2.2
_symmetry_space_group_name_H-M    P1
_symmetry_Int_Tables_number       1
_space_group_crystal_system       triclinic
_cell_length_a                    11.086717
_cell_length_b                    11.033472
_cell_length_c                    9.696926
_cell_angle_alpha                 89.417259
_cell_angle_beta                  88.139105
_cell_angle_gamma                 97.738502
_cell_volume                      1174.62717024

loop_
_atom_site_label
_atom_site_type_symbol
_atom_type_description
_atom_site_fract_x
_atom_site_fract_y
_atom_site_fract_z
_atom_type_partial_charge
C1    C     C_R   0.500786 0.262280 0.500334 0.584775
C2    C     C_R   0.473129 0.059081 0.627870 0.006642
C3    C     C_R   0.501819 0.127159 0.502358 0.003648
C4    C     C_R   0.258900 0.494818 0.502139 0.606760
C5    C     C_R   0.544890 0.064664 0.386151 -0.002163
C6    C     C_R   0.539095 0.937868 0.392842 -0.125389
C7    C     C_R   0.489740 0.868706 0.506880 0.019882
C8    C     C_R   0.672027 0.650586 0.149573 -0.117210
C9    C     C_R   0.776090 0.716115 0.095944 -0.014817
C10   C     C_R   0.791825 0.724456 0.953856 0.057985
C11   C     C_R   0.697346 0.668461 0.865759 0.086078
C12   C     C_3   0.874712 0.481636 0.500421 -0.042691
C13   C     C_R   0.593224 0.579480 0.923942 0.144727
C14   C     C_R   0.588413 0.575671 0.073775 0.094761
C15   C     C_R   0.414801 0.427909 0.074182 0.184972
C16   C     C_R   0.491354 0.735495 0.500970 0.580931
C17   C     C_R   0.415089 0.430794 0.928302 0.050024
C18   C     C_R   0.738511 0.492912 0.498865 0.558825
C19   C     C_3   0.051182 0.370592 0.602822 -0.038978
C20   C     C_3   0.904553 0.377220 0.604468 0.041068
C21   C     C_3   0.077866 0.603087 0.561514 -0.253264
C22   C     C_3   0.066826 0.467987 0.353489 -0.070857
C23   C     C_3   0.942700 0.607296 0.540424 -0.260381
C24   C     C_3   0.117813 0.483412 0.506001 -0.037886
C25   C     C_2   0.091470 0.371131 0.755348 0.630964
C26   C     C_2   0.614871 0.125304 0.263530 0.615911
C27   C     C_2   0.316362 0.340295 0.138022 0.620742
C28   C     C_2   0.089272 0.249625 0.547091 0.549304
C29   C     C_2   0.863792 0.781430 0.193899 0.581561
C30   C     C_2   0.900209 0.810406 0.902845 0.675914
C31   C     C_2   0.851680 0.400038 0.751100 0.617725
C32   C     C_2   0.117118 0.566153 0.246325 0.622280
C33   C     C_3   0.925572 0.456217 0.355119 -0.246204
C34   C     C_R   0.451861 0.115648 0.753986 0.097103
C35   C     C_R   0.484525 0.062376 0.874643 -0.043669
C36   C     C_R   0.465775 0.935770 0.882559 0.110917
C37   C     C_R   0.437341 0.870590 0.761833 0.141015
C38   C     C_R   0.463970 0.930034 0.630659 -0.000235
Cu1   Cu    Cu3+1 0.499990 0.499990 0.640660 1.067922
Cu2   Cu    Cu3+1 0.500010 0.500010 0.359340 1.076211
H1    H     H_    0.894398 0.521384 0.279898 0.178598
H2    H     H_    0.090606 0.381287 0.312271 0.210762
H3    H     H_    0.887276 0.364392 0.318985 0.188858
H4    H     H_    0.977372 0.216095 0.813101 0.372573
H5    H     H_    0.762293 0.038782 0.292766 0.353182
H6    H     H_    0.269480 0.169860 0.214530 0.350515
H7    H     H_    0.211879 0.165183 0.440912 0.354477
H8    H     H_    0.037702 0.843561 0.237897 0.369710
H9    H     H_    0.057072 0.835623 0.791495 0.369299
H10   H     H_    0.731074 0.344325 0.907663 0.357168
H11   H     H_    0.120623 0.620344 0.046583 0.404834
H12   H     H_    0.132637 0.686059 0.515469 0.184172
H13   H     H_    0.931987 0.677748 0.460772 0.189298
H14   H     H_    0.482678 0.113011 0.969143 0.198445
H15   H     H_    0.581184 0.892149 0.309825 0.176908
H16   H     H_    0.660326 0.658889 0.256168 0.222970
H17   H     H_    0.345380 0.375501 0.874670 0.187760
H18   H     H_    0.090264 0.609097 0.672669 0.243631
H19   H     H_    0.904486 0.636791 0.637301 0.228653
I1    I     I_    0.269831 0.140513 0.783451 -0.236666
I2    I     I_    0.434123 0.854696 0.080743 -0.269721
I3    I     I_    0.290897 0.730405 0.791039 -0.237879
I4    I     I_    0.729859 0.777061 0.675938 -0.241569
I5    I     I_    0.799553 0.205739 0.542543 -0.249998
N1    N     N_R   0.501200 0.501210 0.147910 -0.264052
N2    N     N_R   0.501250 0.501290 0.852040 -0.253227
O1    O     O_R   0.499990 0.319640 0.618810 -0.491633
O2    O     O_R   0.043473 0.278318 0.849696 -0.552431
O3    O     O_2   0.570184 0.195209 0.188990 -0.428132
O4    O     O_R   0.730200 0.096167 0.225288 -0.619005
O5    O     O_2   0.211313 0.348020 0.109100 -0.450022
O6    O     O_R   0.342744 0.235353 0.204816 -0.637381
O7    O     O_2   0.042233 0.150639 0.594310 -0.453175
O8    O     O_R   0.188711 0.250114 0.454875 -0.703629
O9    O     O_2   0.825940 0.819504 0.302855 -0.548364
O10   O     O_R   0.989091 0.797705 0.163362 -0.630062
O11   O     O_2   0.905428 0.919904 0.925643 -0.415389
O12   O     O_R   0.500000 0.319660 0.381240 -0.422075
O13   O     O_R   0.994020 0.766676 0.827822 -0.662912
O14   O     O_2   0.892791 0.489749 0.816161 -0.483438
O15   O     O_R   0.756911 0.318286 0.812381 -0.630459
O16   O     O_2   0.184155 0.658247 0.277510 -0.487841
O17   O     O_R   0.083366 0.550226 0.109246 -0.579263
O18   O     O_R   0.317680 0.499970 0.618790 -0.463713
O19   O     O_R   0.317700 0.499990 0.381210 -0.461564
O20   O     O_R   0.500000 0.680340 0.618760 -0.481629
O21   O     O_R   0.500010 0.680360 0.381190 -0.517898
O22   O     O_R   0.682300 0.500010 0.618790 -0.474375
O23   O     O_R   0.682320 0.500030 0.381210 -0.541842
O24   O     O_2   0.157640 0.456477 0.801960 -0.427375

loop_
_geom_bond_atom_site_label_1
_geom_bond_atom_site_label_2
_ccdc_geom_bond_type
C16   O20   A    
H8    O10   S    
C35   C36   A    
C6    H15   S    
C28   O8    S    
C8    H16   S    
C37   I3    S    
C31   O14   D    
C29   O10   S    
C23   H19   S    
C12   C23   S    
C25   O24   D    
C22   C32   S    
Cu2   O21   S    
C36   C37   A    
Cu1   O18   S    
C11   I4    S    
C5    C6    A    
C4    C24   S    
C15   N1    A    
C34   C35   A    
C22   C33   S    
C2    C38   A    
C30   O11   D    
C7    C38   A    
C19   C20   S    
C8    C9    A    
C16   O21   A    
Cu2   O23   S    
C9    C10   A    
H6    O6    S    
C9    C29   S    
C2    C34   A    
C13   C14   A    
C35   H14   S    
C34   I1    S    
C1    O12   A    
C25   O2    S    
Cu1   O22   S    
C28   O7    D    
C23   H13   S    
C13   N2    A    
C33   H3    S    
Cu1   Cu2   S    
C4    O19   A    
C18   O22   A    
H9    O13   S    
C1    C3    S    
Cu2   O19   S    
C20   I5    S    
C37   C38   A    
C10   C30   S    
C15   C27   S    
C4    O18   A    
C12   C20   S    
C17   N2    A    
C19   C28   S    
C30   O13   S    
C7    C16   S    
Cu2   N1    S    
C21   C23   S    
C26   O4    S    
Cu1   N2    S    
Cu2   O12   S    
H4    O2    S    
C36   I2    S    
H11   O17   S    
C27   O5    D    
C15   C17   A    
C32   O17   S    
C8    C14   A    
H5    O4    S    
C18   O23   A    
Cu1   O1    S    
H7    O8    S    
C3    C5    A    
C6    C7    A    
C29   O9    D    
C32   O16   D    
C31   O15   S    
C33   H1    S    
C2    C3    A    
C21   H18   S    
C11   C13   A    
C22   H2    S    
C1    O1    A    
C14   N1    A    
C19   C24   S    
C22   C24   S    
C19   C25   S    
C10   C11   A    
C5    C26   S    
C21   C24   S    
C12   C18   S    
C26   O3    D    
Cu1   O20   S    
C12   C33   S    
C21   H12   S    
C27   O6    S    
H10   O15   S    
C17   H17   S    
C20   C31   S    
