data_mof_unit_42272.cif
_audit_creation_date              2012-12-11T14:46:08-0500
_audit_creation_method            fapswitch 2.2
_symmetry_space_group_name_H-M    P1
_symmetry_Int_Tables_number       1
_space_group_crystal_system       triclinic
_cell_length_a                    11.096758
_cell_length_b                    11.081044
_cell_length_c                    18.838423
_cell_angle_alpha                 89.629456
_cell_angle_beta                  90.526533
_cell_angle_gamma                 120.861852
_cell_volume                      1988.36065233

loop_
_atom_site_label
_atom_site_type_symbol
_atom_type_description
_atom_site_fract_x
_atom_site_fract_y
_atom_site_fract_z
_atom_type_partial_charge
Br1   Br    Br    0.563048 0.479604 0.639386 -0.480939
Br2   Br    Br    0.160646 0.801529 0.711923 -0.634134
Br3   Br    Br    0.400737 0.981853 0.177932 -0.586571
Br4   Br    Br    0.201985 0.362671 0.701702 -0.549792
C1    C     C_R   0.898329 0.615237 0.611890 0.613904
C2    C     C_R   0.901909 0.100084 0.701742 0.027879
C3    C     C_R   0.922047 0.111489 0.776755 0.028872
C4    C     C_R   0.274385 0.632808 0.602902 0.584112
C5    C     C_R   0.719616 0.155547 0.711949 0.001122
C6    C     C_R   0.750218 0.187647 0.784097 0.004428
C7    C     C_R   0.590234 0.133560 0.684544 -0.057604
C8    C     C_R   0.496840 0.145817 0.728041 -0.076593
C9    C     C_R   0.536629 0.193376 0.796941 -0.109888
C10   C     C_R   0.670697 0.233679 0.820908 -0.067697
C11   C     C_R   0.817292 0.143755 0.669551 -0.028700
C12   C     C_R   0.250021 0.568826 0.796899 -0.103371
C13   C     C_R   0.721529 0.569045 0.705842 0.136906
C14   C     C_R   0.696051 0.589670 0.776116 -0.011996
C15   C     C_R   0.807519 0.644637 0.826849 -0.025564
C16   C     C_R   0.856343 0.220622 0.600778 0.540017
C17   C     C_R   0.942092 0.685656 0.805813 -0.121948
C18   C     C_R   0.970552 0.687112 0.735170 0.091082
C19   C     C_R   0.862140 0.624633 0.684697 0.042043
C20   C     C_R   0.262545 0.538728 0.277128 -0.142488
C21   C     C_R   0.277019 0.553286 0.204716 -0.175065
C22   C     C_R   0.331988 0.685889 0.173300 0.039174
C23   C     C_R   0.246723 0.545013 0.725109 0.167982
C24   C     C_R   0.354469 0.801540 0.215413 0.144801
C25   C     C_R   0.339998 0.785729 0.288828 -0.119873
C26   C     C_R   0.298304 0.655572 0.319986 0.001236
C27   C     C_R   0.775223 0.236909 0.275684 -0.111097
C28   C     C_R   0.903675 0.613661 0.390011 0.552930
C29   C     C_R   0.777783 0.225475 0.203116 -0.102194
C30   C     C_R   0.850722 0.166647 0.173003 0.024361
C31   C     C_R   0.934793 0.134751 0.216206 -0.140705
C32   C     C_R   0.937521 0.153033 0.289485 -0.141206
C33   C     C_R   0.853307 0.199400 0.319583 0.033767
C34   C     C_R   0.321696 0.655985 0.676983 0.097087
C35   C     C_R   0.985189 0.707155 0.270680 -0.140184
C36   C     C_R   0.959484 0.716747 0.199760 -0.135558
C37   C     C_R   0.821784 0.642162 0.172277 0.017750
C38   C     C_R   0.710040 0.541468 0.215565 -0.013124
C39   C     C_R   0.739605 0.533935 0.287268 -0.110563
C40   C     C_R   0.264584 0.630396 0.394848 0.537822
C41   C     C_R   0.875083 0.619429 0.315056 0.006019
C42   C     C_R   0.807332 0.102150 0.894293 0.511102
C43   C     C_R   0.396347 0.702761 0.896633 0.521360
C44   C     C_R   0.794488 0.691074 0.896930 0.539833
C45   C     C_R   0.842105 0.152093 0.819213 -0.036927
C46   C     C_R   0.808772 0.106821 0.102191 0.547849
C47   C     C_R   0.394431 0.704169 0.103159 0.565251
C48   C     C_R   0.797891 0.692052 0.104128 0.544915
C49   C     C_R   0.863792 0.235220 0.394318 0.528665
C50   C     C_R   0.425369 0.785946 0.702919 -0.130503
C51   C     C_R   0.441933 0.806429 0.776468 -0.118197
C52   C     C_R   0.352659 0.696966 0.823430 0.009081
C53   C     C_3   0.556596 0.573414 0.792686 -0.207717
C54   C     C_3   0.455878 0.427200 0.821879 -0.359175
C55   C     C_3   0.560842 0.449473 0.186776 -0.263767
C56   C     C_R   0.028402 0.090402 0.805347 -0.058528
C57   C     C_3   0.455164 0.332612 0.235630 -0.450897
C58   C     C_R   0.103626 0.051201 0.762024 -0.078973
C59   C     C_R   0.075170 0.031806 0.689324 -0.033592
C60   C     C_R   0.972521 0.052181 0.659586 -0.047612
Cr1   Cr    Cr6+3 0.791660 0.390250 0.499930 1.057469
Cr2   Cr    Cr6+3 0.098520 0.708290 0.500540 1.038911
Cr3   Cr    Cr6+3 0.109770 0.401430 0.499480 1.065898
Cr4   Cr    Cr6+3 0.874790 0.925890 0.000070 1.016305
Cr5   Cr    Cr6+3 0.574120 0.948670 0.999300 1.059020
Cr6   Cr    Cr6+3 0.551420 0.625320 0.000920 0.986613
H1    H     H_    0.491512 0.868120 0.666373 0.112979
H2    H     H_    0.712948 0.277058 0.297405 0.135772
H3    H     H_    0.714033 0.253295 0.171016 0.161762
H4    H     H_    0.991951 0.088877 0.194053 0.142401
H5    H     H_    0.002560 0.128544 0.322563 0.131279
H6    H     H_    0.090426 0.771822 0.291491 0.145743
H7    H     H_    0.047147 0.790518 0.167438 0.173076
H8    H     H_    0.656537 0.464480 0.322671 0.146685
H9    H     H_    0.190170 0.481065 0.832608 0.129779
H10   H     H_    0.188832 0.042753 0.784746 0.137751
H11   H     H_    0.138819 0.010971 0.654366 0.178126
H12   H     H_    0.394256 0.118645 0.708219 0.158672
H13   H     H_    0.065687 0.117102 0.859263 0.139332
H14   H     H_    0.954315 0.038416 0.602830 0.126919
H15   H     H_    0.702619 0.282593 0.872641 0.134982
H16   H     H_    0.427032 0.350400 0.778463 0.193680
H17   H     H_    0.503736 0.402705 0.867391 0.152295
H18   H     H_    0.356568 0.415548 0.840103 0.171824
H19   H     H_    0.573666 0.659688 0.827431 0.168804
H20   H     H_    0.509379 0.592737 0.745639 0.190864
H21   H     H_    0.495198 0.263745 0.253180 0.186261
H22   H     H_    0.432174 0.377878 0.282382 0.148725
H23   H     H_    0.554378 0.094259 0.631401 0.147298
H24   H     H_    0.354988 0.267184 0.206293 0.165456
H25   H     H_    0.517606 0.517738 0.174331 0.198824
H26   H     H_    0.565464 0.397638 0.137406 0.172825
H27   H     H_    0.461873 0.193331 0.832995 0.094576
H28   H     H_    0.028775 0.733691 0.843431 0.168365
H29   H     H_    0.221615 0.434509 0.299321 0.148883
H30   H     H_    0.253118 0.461334 0.173816 0.137702
H31   H     H_    0.527800 0.904230 0.796730 0.152757
H32   H     H_    0.358632 0.874084 0.321341 0.150749
O1    O     O_R   0.766500 0.250040 0.579790 -0.526940
O2    O     O_R   0.413330 0.603360 0.920440 -0.544103
O3    O     O_R   0.676110 0.626250 0.926750 -0.514951
O4    O     O_R   0.798570 0.516780 0.574780 -0.442966
O5    O     O_R   0.895350 0.809870 0.080950 -0.514339
O6    O     O_R   0.872490 0.049760 0.073800 -0.509024
O7    O     O_R   0.691680 0.088070 0.079070 -0.483500
O8    O     O_R   0.451720 0.825250 0.074050 -0.440598
O9    O     O_R   0.413580 0.606370 0.080960 -0.547844
O10   O     O_R   0.676340 0.629040 0.075550 -0.517853
O11   O     O_3   0.666780 0.833290 0.000090 -0.253924
O12   O     O_R   0.218690 0.701900 0.425960 -0.531609
O13   O     O_R   0.984000 0.732950 0.581090 -0.483182
O14   O     O_R   0.218600 0.700890 0.574760 -0.483862
O15   O     O_R   0.249390 0.515350 0.579940 -0.435877
O16   O     O_R   0.982790 0.280900 0.573700 -0.458987
O17   O     O_R   0.766600 0.251130 0.419260 -0.533165
O18   O     O_R   0.798660 0.517790 0.425980 -0.497712
O19   O     O_R   0.984100 0.734040 0.420570 -0.504613
O20   O     O_R   0.249490 0.516440 0.419420 -0.512626
O21   O     O_R   0.982880 0.281910 0.424890 -0.514446
O22   O     O_3   0.999980 0.499990 0.499980 -0.308381
O23   O     O_R   0.895110 0.806860 0.920430 -0.519917
O24   O     O_R   0.872260 0.046970 0.925000 -0.516220
O25   O     O_R   0.691430 0.085060 0.918550 -0.527132
O26   O     O_R   0.451490 0.822460 0.925250 -0.494202

loop_
_geom_bond_atom_site_label_1
_geom_bond_atom_site_label_2
_ccdc_geom_bond_type
C51   C52   A    
C31   H4    S    
C20   H29   S    
C37   C38   A    
C3    C56   A    
C31   C32   A    
C54   H17   S    
C16   O16   A    
C43   O26   A    
C16   O1    A    
C39   H8    S    
Cr2   O13   S    
C42   C45   S    
Cr5   O11   S    
C25   C26   A    
Cr2   O14   S    
C59   H11   S    
C58   H10   S    
Br3   C24   S    
C15   C17   A    
C14   C15   A    
C56   H13   S    
Cr6   O2    S    
C48   O10   A    
C23   C34   A    
C56   C58   A    
C30   C31   A    
C28   C41   S    
Cr1   O22   S    
C2    C60   A    
C60   H14   S    
C21   H30   S    
C2    C11   A    
Cr5   O7    S    
C50   H1    S    
C48   O5    A    
C34   C50   A    
Br2   C18   S    
C27   C29   A    
Cr4   O5    S    
C5    C6    A    
C37   C48   S    
C57   H22   S    
Cr4   O11   S    
C35   C41   A    
C33   C49   S    
C7    H23   S    
C12   C23   A    
C44   O23   A    
C40   O12   A    
C9    C10   A    
C1    O13   A    
C46   O6    A    
C26   C40   S    
C4    C34   S    
C28   O18   A    
C54   H16   S    
C4    O15   A    
C29   C30   A    
C1    O4    A    
Cr6   O11   S    
C11   C16   S    
C55   C57   S    
C30   C46   S    
C53   H20   S    
C42   O25   A    
C20   C21   A    
C3    C45   A    
C6    C10   A    
C35   C36   A    
C15   C44   S    
C21   C22   A    
C46   O7    A    
C27   C33   A    
Cr3   O21   S    
C12   C52   A    
C58   C59   A    
C32   H5    S    
C5    C7    A    
Cr5   O8    S    
C14   C53   S    
C44   O3    A    
C1    C19   S    
C13   C14   A    
Cr1   O17   S    
Cr2   O19   S    
C8    H12   S    
C13   C19   A    
C35   H6    S    
Cr3   O15   S    
C53   H19   S    
C55   H25   S    
C29   H3    S    
C27   H2    S    
C47   O8    A    
C49   O21   A    
Cr2   O22   S    
C55   H26   S    
Cr1   O1    S    
C24   C25   A    
Cr3   O20   S    
Cr4   O24   S    
Cr1   O4    S    
Br4   C23   S    
C50   C51   A    
C36   C37   A    
C47   O9    A    
C43   O2    A    
Cr2   O12   S    
C57   H24   S    
Br1   C13   S    
C28   O19   A    
C42   O24   A    
C10   H15   S    
Cr6   O3    S    
C54   H18   S    
C38   C55   S    
C7    C8    A    
C49   O17   A    
C2    C3    A    
C51   H31   S    
C22   C24   A    
C12   H9    S    
C5    C11   A    
C39   C41   A    
C22   C47   S    
C17   H28   S    
C53   C54   S    
C40   O20   A    
Cr1   O18   S    
C25   H32   S    
Cr5   O26   S    
C36   H7    S    
C9    H27   S    
Cr6   O10   S    
Cr3   O16   S    
C20   C26   A    
Cr6   O9    S    
C4    O14   A    
C59   C60   A    
C8    C9    A    
Cr5   O25   S    
C32   C33   A    
C38   C39   A    
C18   C19   A    
Cr4   O6    S    
C17   C18   A    
C6    C45   A    
Cr4   O23   S    
C57   H21   S    
C43   C52   S    
Cr3   O22   S    
