data_mof_unit_38712.cif
_audit_creation_date              2013-03-05T16:08:20-0500
_audit_creation_method            fapswitch 2.2
_symmetry_space_group_name_H-M    P1
_symmetry_Int_Tables_number       1
_space_group_crystal_system       triclinic
_cell_length_a                    6.999974
_cell_length_b                    14.510419
_cell_length_c                    16.074342
_cell_angle_alpha                 89.884988
_cell_angle_beta                  90.084606
_cell_angle_gamma                 90.0
_cell_volume                      1632.7069291

loop_
_atom_site_label
_atom_site_type_symbol
_atom_site_description
_atom_site_fract_x
_atom_site_fract_y
_atom_site_fract_z
_atom_type_partial_charge
O1    O     O_R   0.505700 0.583890 0.413310 -0.600497
O2    O     O_R   0.175960 0.594920 0.586080 -0.542878
O3    O     O_R   0.005660 0.416110 0.586690 -0.588198
C1    C     C_R   0.344995 0.616434 0.615225 0.972743
O4    O     O_R   0.175980 0.594920 0.413930 -0.596744
O5    O     O_R   0.005680 0.416110 0.413310 -0.581330
C2    C     C_R   0.344620 0.616916 0.385419 0.941895
O6    O     O_R   0.505680 0.583890 0.586690 -0.554266
O7    O     O_3   0.339200 0.441330 0.500000 -0.259177
V1    V     V_3+5 0.064350 0.510880 0.500000 1.272643
O8    O     O_R   0.675960 0.405080 0.413920 -0.598701
C3    C     C_R   0.844905 0.382859 0.385464 0.940022
O9    O     O_R   0.675940 0.405080 0.586070 -0.591801
C4    C     C_R   0.844800 0.382368 0.614111 1.053717
V2    V     V_3+5 0.564340 0.489120 0.500000 1.256177
O10   O     O_3   0.839360 0.558670 0.500000 -0.221767
C5    C     C_R   0.004469 0.249378 0.687473 0.144484
C6    C     C_R   0.852532 0.311838 0.680771 -0.239272
C7    C     C_R   0.702482 0.302934 0.738615 -0.090686
H1    H     H_    0.580892 0.348740 0.735459 0.134176
C8    C     C_R   0.714399 0.239340 0.804849 -0.059839
H2    H     H_    0.600958 0.237550 0.850437 0.144403
C9    C     C_R   0.876539 0.182783 0.815071 -0.287715
C10   C     C_R   0.015835 0.186325 0.752727 0.220677
C11   C     C_3   0.226938 0.196907 0.759398 0.283548
C12   C     C_3   0.214708 0.265697 0.687831 -0.561278
H3    H     H_    0.271994 0.227769 0.819489 0.064653
H4    H     H_    0.283421 0.242023 0.629339 0.268835
H5    H     H_    0.250645 0.337348 0.706476 0.168506
C13   C     C_R   0.722700 0.187165 0.237087 0.178798
C14   C     C_R   0.881035 0.183578 0.184401 -0.151860
C15   C     C_R   0.030738 0.245043 0.200843 -0.159838
H6    H     H_    0.150326 0.247175 0.159475 0.193360
C16   C     C_R   0.019400 0.309228 0.266220 -0.031952
H7    H     H_    0.133058 0.359088 0.273295 0.132628
C17   C     C_R   0.858368 0.312550 0.318727 -0.212898
C18   C     C_R   0.714566 0.246990 0.305126 0.087081
C19   C     C_3   0.505947 0.262730 0.293188 0.005951
C20   C     C_3   0.519115 0.204499 0.214501 0.105855
H8    H     H_    0.468391 0.336440 0.283314 0.123858
H9    H     H_    0.430418 0.140957 0.213936 0.155522
C21   C     C_R   0.503629 0.750656 0.687482 0.034858
C22   C     C_R   0.354650 0.686273 0.682737 -0.179891
C23   C     C_R   0.214191 0.690204 0.744993 -0.071955
H10   H     H_    0.105859 0.638128 0.747519 0.177167
C24   C     C_R   0.222892 0.755613 0.809438 -0.077601
H11   H     H_    0.114761 0.754015 0.857516 0.133911
C25   C     C_R   0.376680 0.817841 0.815077 -0.175402
C26   C     C_R   0.511937 0.816654 0.750959 0.104803
C27   C     C_3   0.724421 0.811044 0.757668 -0.065285
C28   C     C_3   0.714171 0.733484 0.692948 0.496261
H12   H     H_    0.775767 0.789545 0.820281 0.120414
C29   C     C_R   0.492199 0.755947 0.317529 0.116245
C30   C     C_R   0.352766 0.686542 0.318138 -0.174293
C31   C     C_R   0.223785 0.683311 0.250876 -0.101384
H13   H     H_    0.116418 0.629656 0.248063 0.137534
C32   C     C_R   0.241882 0.744914 0.183371 0.001389
H14   H     H_    0.155623 0.735313 0.128449 0.170027
C33   C     C_R   0.379731 0.814965 0.183515 -0.181133
C34   C     C_R   0.505520 0.818669 0.251267 0.081468
C35   C     C_3   0.717982 0.807935 0.249142 0.612499
C36   C     C_3   0.703549 0.744416 0.323963 -0.575882
H15   H     H_    0.760216 0.774473 0.382607 0.247635
H16   H     H_    0.751444 0.672653 0.311652 0.213713
O11   O     O_R   0.229000 0.916070 0.913330 -0.568679
O12   O     O_R   0.558770 0.905070 0.086080 -0.559583
O13   O     O_R   0.729000 0.083900 0.086690 -0.572024
C37   C     C_R   0.390224 0.882655 0.114403 0.966727
O14   O     O_R   0.558720 0.905070 0.913930 -0.600488
O15   O     O_R   0.728960 0.083900 0.913310 -0.576821
C38   C     C_R   0.389710 0.883649 0.885069 0.997837
O16   O     O_R   0.229050 0.916070 0.086710 -0.579876
O17   O     O_3   0.395460 0.058650 0.000020 -0.265904
V3    V     V_3+5 0.670340 0.989120 0.000000 1.287927
O18   O     O_R   0.058670 0.094960 0.913900 -0.593255
C39   C     C_R   0.889595 0.116953 0.885366 1.024240
O19   O     O_R   0.058720 0.094960 0.086050 -0.605571
C40   C     C_R   0.889921 0.117395 0.114259 1.018202
V4    V     V_3+5 0.170330 0.010930 0.999970 1.270114
O20   O     O_3   0.895340 0.941350 0.999980 -0.256618
N1    N     N_R   0.396402 0.218291 0.359772 0.250545
O21   O     O_R   0.414319 0.130466 0.374766 -0.315614
O22   O     O_R   0.297188 0.268487 0.410751 -0.369097
Cl1   Cl    Cl    0.505000 0.273199 0.121521 -0.686246
N2    N     N_R   0.815935 0.895975 0.728166 0.285756
O23   O     O_R   0.962073 0.928884 0.768262 -0.360324
O24   O     O_R   0.742675 0.943869 0.667361 -0.256605
N3    N     N_R   0.753168 0.641900 0.728615 0.191258
O25   O     O_R   0.823398 0.576844 0.682397 -0.391766
O26   O     O_R   0.695075 0.620980 0.803252 -0.448803
Cl2   Cl    Cl    0.833852 0.754288 0.595962 -0.520338
N4    N     N_R   0.822235 0.893259 0.266306 0.249812
O27   O     O_R   0.003324 0.890140 0.284301 -0.354339
O28   O     O_R   0.736153 0.972730 0.263709 -0.410526
Cl3   Cl    Cl    0.793941 0.750520 0.156691 -0.698886
Cl4   Cl    Cl    0.347515 0.092729 0.732468 -0.514988

loop_
_geom_bond_atom_site_label_1
_geom_bond_atom_site_label_2
_geom_bond_distance
_ccdc_geom_bond_type
O12   C37   1.306152 A    
C31   H13   1.083099 S    
O11   V4    2.003060 S    
O17   V3    2.172618 S    
C4    C6    1.481187 S    
C7    H1    1.080979 S    
C9    C39   1.480858 S    
C1    O6    1.304199 A    
N1    O21   1.302511 A    
C20   H9    1.111628 S    
O19   C40   1.307638 A    
C36   H15   1.112085 S    
C5    C12   1.490601 S    
C17   C18   1.402220 A    
C7    C8    1.409892 A    
C20   Cl1   1.797470 S    
C16   H7    1.081400 S    
O16   V4    1.999558 S    
O5    C3    1.303495 A    
C19   C20   1.525425 S    
C32   C33   1.401535 A    
V2    O10   2.173619 S    
O12   V3    2.002085 S    
C6    C7    1.409551 A    
O14   C38   1.307837 A    
C36   H16   1.112163 S    
C27   N2    1.467171 S    
C28   Cl2   1.795934 S    
C24   H11   1.082762 S    
O8    V2    2.005517 S    
O15   V3    1.998904 S    
C27   H12   1.112271 S    
C9    C10   1.400121 A    
O1    V2    1.997988 S    
C3    C17   1.484995 S    
O7    V1    2.172566 S    
C35   N4    1.463674 S    
C21   C28   1.497121 S    
N2    O24   1.302709 A    
C33   C34   1.400590 A    
V3    O20   1.720779 S    
O9    C4    1.306430 A    
O13   C40   1.304179 A    
N1    O22   1.299395 A    
C29   C34   1.402828 A    
C23   C24   1.407612 A    
C27   C28   1.535744 S    
O19   V4    2.005399 S    
C8    C9    1.409808 A    
C24   C25   1.407998 A    
C5    C10   1.392685 A    
C10   C11   1.489396 S    
O4    C2    1.306307 A    
C11   C12   1.523879 S    
N2    O23   1.299682 A    
C13   C18   1.398914 A    
C34   C35   1.495809 S    
C15   C16   1.407920 A    
O2    C1    1.309937 A    
O18   C39   1.307958 A    
C18   C19   1.490147 S    
C33   C37   1.483298 S    
C29   C36   1.492291 S    
C14   C15   1.401282 A    
C37   O16   1.305282 A    
N4    O28   1.301655 A    
C5    C6    1.401228 A    
O17   V4    1.721321 S    
O14   V3    2.003902 S    
O13   V3    2.001962 S    
O3    C4    1.304803 A    
C12   H5    1.111338 S    
C25   C26   1.400688 A    
N3    O26   1.302634 A    
O6    V2    2.002704 S    
C31   C32   1.410323 A    
C19   N1    1.465932 S    
O15   C39   1.302606 A    
C21   C22   1.402208 A    
C25   C38   1.479845 S    
O2    V1    2.003895 S    
C23   H10   1.071290 S    
C14   C40   1.483876 S    
C30   C31   1.408422 A    
O1    C2    1.303715 A    
C28   N3    1.471632 S    
O5    V1    2.001878 S    
O8    C3    1.309177 A    
C35   Cl3   1.786776 S    
C29   C30   1.402476 A    
C1    C22   1.487757 S    
C11   H3    1.110790 S    
C12   H4    1.111750 S    
C15   H6    1.070258 S    
O9    V2    2.000374 S    
O7    V2    1.721793 S    
O4    V1    2.002052 S    
O3    V1    1.998905 S    
O11   C38   1.302150 A    
C19   H8    1.112409 S    
C32   H14   1.078118 S    
C13   C14   1.396883 A    
C22   C23   1.405194 A    
N4    O27   1.300552 A    
C13   C20   1.491328 S    
C16   C17   1.410070 A    
C35   C36   1.517271 S    
C21   C26   1.401912 A    
V4    O20   2.173635 S    
N3    O25   1.299477 A    
C11   Cl4   1.785679 S    
C26   C27   1.493338 S    
V1    O10   1.720831 S    
C2    C30   1.479667 S    
C8    H2    1.081612 S    
O18   V4    2.000451 S    
