data_mof_unit_64251.cif
_audit_creation_date              2013-03-05T16:07:35-0500
_audit_creation_method            fapswitch 2.2
_symmetry_space_group_name_H-M    P1
_symmetry_Int_Tables_number       1
_space_group_crystal_system       triclinic
_cell_length_a                    15.83025
_cell_length_b                    11.573004
_cell_length_c                    10.788366
_cell_angle_alpha                 89.99982
_cell_angle_beta                  89.985113
_cell_angle_gamma                 90.000115
_cell_volume                      1976.46684618

loop_
_atom_site_label
_atom_site_type_symbol
_atom_site_description
_atom_site_fract_x
_atom_site_fract_y
_atom_site_fract_z
_atom_type_partial_charge
O1    O     O_R   0.499990 0.334450 0.602530 -0.604017
O2    O     O_R   0.500010 0.665550 0.397470 -0.604016
O3    O     O_R   0.500010 0.334450 0.397470 -0.604020
O4    O     O_R   0.499990 0.665550 0.602530 -0.604020
C1    C     C_1   0.500000 0.161056 0.500000 -0.122675
C2    C     C_1   0.500000 0.838944 0.499999 -0.122675
C3    C     C_R   0.500000 0.281189 0.500000 0.913362
C4    C     C_R   0.500000 0.718810 0.500000 0.913362
O5    O     O_R   0.376780 0.500000 0.602510 -0.597303
O6    O     O_R   0.623220 0.500000 0.397490 -0.597303
O7    O     O_R   0.376780 0.500000 0.397450 -0.596629
O8    O     O_R   0.623220 0.500000 0.602550 -0.596629
C5    C     C_R   0.337632 0.499999 0.499999 0.894761
C6    C     C_R   0.662368 0.500000 0.500001 0.894760
Zn1   Zn    Zn3+2 0.500000 0.500000 0.636920 1.057229
Zn2   Zn    Zn3+2 0.500000 0.500000 0.363080 1.057229
C7    C     C_1   0.500000 0.059160 0.500000 0.059078
C8    C     C_1   0.500000 0.940840 0.500000 0.059078
C9    C     C_3   0.971961 0.406467 0.559291 0.137641
C10   C     C_3   0.028039 0.593533 0.440709 0.137641
C11   C     C_3   0.028034 0.405341 0.442798 0.137615
C12   C     C_3   0.971966 0.594659 0.557202 0.137615
C13   C     C_1   0.249454 0.499998 0.500062 -0.061089
C14   C     C_1   0.750546 0.500002 0.499938 -0.061090
C15   C     C_3   0.027901 0.501124 0.616611 0.134652
C16   C     C_3   0.972099 0.498876 0.383389 0.134651
C17   C     C_3   0.084550 0.499997 0.500118 -0.221869
C18   C     C_3   0.915450 0.500003 0.499881 -0.221869
N1    N     N_1   0.499990 0.500000 0.180630 -0.063746
N2    N     N_1   0.500010 0.500000 0.819370 -0.063746
C19   C     C_1   0.174751 0.499997 0.500123 0.248009
C20   C     C_1   0.825249 0.500003 0.499877 0.248009
C21   C     C_1   0.499996 0.500000 0.069787 0.113550
C22   C     C_1   0.500004 0.500000 0.930213 0.113550
N3    N     N_R   0.055844 0.300754 0.379622 0.280354
O9    O     O_R   0.000225 0.228748 0.336074 -0.243652
O10   O     O_R   0.135867 0.278682 0.366386 -0.317453
N4    N     N_R   0.944156 0.699246 0.620378 0.280355
O11   O     O_R   0.999775 0.771252 0.663926 -0.243652
O12   O     O_R   0.864132 0.721318 0.633614 -0.317453
N5    N     N_R   0.944147 0.303125 0.624779 0.280436
O13   O     O_R   0.999761 0.231978 0.669929 -0.243566
O14   O     O_R   0.864121 0.281320 0.638501 -0.317141
N6    N     N_R   0.055853 0.696875 0.375221 0.280436
O15   O     O_R   0.000239 0.768022 0.330070 -0.243566
O16   O     O_R   0.135879 0.718680 0.361499 -0.317141
N7    N     N_R   0.944451 0.497638 0.254567 0.279476
O17   O     O_R   0.000175 0.496793 0.166004 -0.229479
O18   O     O_R   0.864460 0.497379 0.227281 -0.313522
N8    N     N_R   0.055549 0.502362 0.745433 0.279476
O19   O     O_R   0.999825 0.503207 0.833996 -0.229479
O20   O     O_R   0.135540 0.502620 0.772719 -0.313522

loop_
_geom_bond_atom_site_label_1
_geom_bond_atom_site_label_2
_geom_bond_distance
_ccdc_geom_bond_type
N8    O20   1.300125 A    
C11   C16   1.538479 S    
C14   C20   1.182574 T    
O1    Zn1   1.951505 S    
C10   C17   1.543743 S    
C15   C17   1.543772 S    
O2    Zn2   1.951504 S    
O7    Zn2   1.985440 S    
C16   C18   1.543772 S    
N7    O17   1.300254 A    
O8    Zn1   1.985437 S    
C18   C20   1.427900 S    
O4    C4    1.266276 A    
O4    Zn1   1.951502 S    
C21   C22   1.505772 S    
C11   C17   1.543741 S    
N7    O18   1.300125 A    
O6    Zn2   1.985707 S    
N4    O12   1.300124 A    
C9    C18   1.543743 S    
N5    O14   1.300127 A    
C10   C16   1.538476 S    
C16   N7    1.457242 S    
C11   N3    1.457127 S    
C2    C4    1.390301 S    
C10   N6    1.457125 S    
O8    C6    1.267944 A    
C7    C8    1.369321 S    
O3    C3    1.266276 A    
C10   C12   1.538507 S    
O5    Zn1   1.985710 S    
N4    O11   1.300219 A    
C2    C8    1.179245 T    
C1    C7    1.179245 T    
N2    C22   1.195817 T    
C9    C15   1.538476 S    
C17   C19   1.427900 S    
O6    C6    1.267864 A    
C12   N4    1.457127 S    
N1    C21   1.195817 T    
O7    C5    1.267943 A    
N6    O15   1.300216 A    
C5    C13   1.395881 S    
Zn1   N2    1.968337 S    
N5    O13   1.300216 A    
C6    C14   1.395881 S    
C1    C3    1.390301 S    
O5    C5    1.267864 A    
C15   N8    1.457242 S    
C12   C18   1.543741 S    
N8    O19   1.300254 A    
N3    O10   1.300124 A    
Zn2   N1    1.968337 S    
O1    C3    1.266277 A    
C12   C15   1.538479 S    
O2    C4    1.266277 A    
O3    Zn2   1.951503 S    
C9    N5    1.457125 S    
N6    O16   1.300127 A    
C9    C11   1.538507 S    
N3    O9    1.300219 A    
C13   C19   1.182574 T    
