data_mof_unit_19898.cif
_audit_creation_date              2012-12-11T17:01:20-0500
_audit_creation_method            fapswitch 2.2
_symmetry_space_group_name_H-M    P1
_symmetry_Int_Tables_number       1
_space_group_crystal_system       triclinic
_cell_length_a                    19.398198
_cell_length_b                    7.100923
_cell_length_c                    17.61096
_cell_angle_alpha                 89.999379
_cell_angle_beta                  108.58406
_cell_angle_gamma                 90.00016
_cell_volume                      2299.33417252

loop_
_atom_site_label
_atom_site_type_symbol
_atom_type_description
_atom_site_fract_x
_atom_site_fract_y
_atom_site_fract_z
_atom_type_partial_charge
O1    O     O_R   0.413720 0.494330 0.415730 -0.536159
O2    O     O_R   0.586280 0.994330 0.584270 -0.536158
O3    O     O_R   0.560210 0.819300 0.430070 -0.543191
O4    O     O_R   0.439790 0.319300 0.569930 -0.543189
C1    C     C_R   0.581547 0.655379 0.414655 0.713325
C2    C     C_R   0.418453 0.155378 0.585345 0.713326
O5    O     O_R   0.412670 0.823730 0.406310 -0.542508
O6    O     O_R   0.587330 0.323730 0.593690 -0.542507
O7    O     O_R   0.437690 0.998790 0.560340 -0.539266
O8    O     O_R   0.562310 0.498790 0.439660 -0.539266
C3    C     C_R   0.385325 0.655163 0.383469 0.691231
C4    C     C_R   0.614675 0.155162 0.616531 0.691234
O9    O     O_3   0.508380 0.662350 0.550560 -0.375702
O10   O     O_3   0.491620 0.162350 0.449440 -0.375704
V1    V     V_3+5 0.498450 0.935370 0.490620 1.385359
V2    V     V_3+5 0.501550 0.435370 0.509380 1.385362
C5    C     C_R   0.731320 0.991059 0.693140 0.108506
C6    C     C_R   0.268680 0.491058 0.306861 0.108509
C7    C     C_R   0.684903 0.147026 0.682721 -0.111409
C8    C     C_R   0.315097 0.647027 0.317279 -0.111408
C9    C     C_R   0.709392 0.299921 0.735451 -0.186747
C10   C     C_R   0.290607 0.799923 0.264547 -0.186757
H1    H     H_    0.676070 0.424375 0.729540 0.139744
H2    H     H_    0.323929 0.924379 0.270458 0.139742
C11   C     C_R   0.774903 0.288840 0.799805 -0.181224
C12   C     C_R   0.225096 0.788840 0.200194 -0.181246
H3    H     H_    0.789967 0.405854 0.841105 0.134010
H4    H     H_    0.210032 0.905855 0.158893 0.134004
C13   C     C_R   0.817901 0.124135 0.813676 -0.109431
C14   C     C_R   0.182099 0.624133 0.186323 -0.109431
C15   C     C_R   0.795942 0.979717 0.756918 0.109371
C16   C     C_R   0.204059 0.479714 0.243083 0.109374
C17   C     C_3   0.785767 0.774970 0.768510 -0.417544
C18   C     C_3   0.214235 0.274968 0.231492 -0.417554
C19   C     C_3   0.715409 0.787225 0.698777 -0.404973
C20   C     C_3   0.284593 0.287225 0.301225 -0.404972
H5    H     H_    0.777072 0.744907 0.826752 0.167452
H6    H     H_    0.222931 0.244908 0.173251 0.167445
H7    H     H_    0.828046 0.687578 0.755169 0.178226
H8    H     H_    0.171958 0.187573 0.244834 0.178231
H9    H     H_    0.665969 0.763799 0.716548 0.170104
H10   H     H_    0.334034 0.263802 0.283455 0.170101
H11   H     H_    0.717161 0.707215 0.645159 0.171881
H12   H     H_    0.282842 0.207213 0.354844 0.171882
C21   C     C_R   0.322298 0.302244 0.632364 -0.222685
C22   C     C_R   0.677703 0.802244 0.367635 -0.222696
C23   C     C_R   0.368375 0.148655 0.633623 -0.084020
C24   C     C_R   0.631626 0.648657 0.366377 -0.084027
C25   C     C_R   0.365814 0.990273 0.680594 -0.198276
C26   C     C_R   0.634188 0.490273 0.319410 -0.198282
C27   C     C_R   0.318599 0.986326 0.726851 0.028546
C28   C     C_R   0.681403 0.486321 0.273153 0.028588
C29   C     C_R   0.271619 0.139820 0.724192 0.062345
C30   C     C_R   0.728382 0.639814 0.275809 0.062336
C31   C     C_R   0.273365 0.297514 0.676197 0.113759
C32   C     C_R   0.726636 0.797510 0.323802 0.113744
C33   C     C_R   0.317497 0.831136 0.775493 -0.283838
C34   C     C_R   0.682508 0.331125 0.224516 -0.283907
C35   C     C_R   0.271150 0.827901 0.822663 0.465419
C36   C     C_R   0.728852 0.327889 0.177339 0.465403
C37   C     C_R   0.222413 0.978500 0.818276 -0.010007
C38   C     C_R   0.777586 0.478492 0.181725 -0.009970
C39   C     C_R   0.222437 0.134961 0.768836 -0.050243
C40   C     C_R   0.777563 0.634952 0.231165 -0.050278
C41   C     C_R   0.172927 0.285510 0.763014 0.138540
C42   C     C_R   0.827074 0.785500 0.236986 0.138536
C43   C     C_R   0.176310 0.442145 0.714817 -0.120222
C44   C     C_R   0.823691 0.942134 0.285181 -0.120204
C45   C     C_R   0.225949 0.447992 0.672419 -0.201287
C46   C     C_R   0.774053 0.947985 0.327579 -0.201296
C47   C     C_R   0.174772 0.976584 0.863741 -0.240990
C48   C     C_R   0.825226 0.476581 0.136258 -0.240918
C49   C     C_R   0.125109 0.123739 0.859058 -0.104386
C50   C     C_R   0.874890 0.623734 0.140941 -0.104424
C51   C     C_R   0.121156 0.275262 0.804806 0.124602
C52   C     C_R   0.878845 0.775252 0.195193 0.124606
H13   H     H_    0.323399 0.424349 0.595769 0.123766
H14   H     H_    0.676603 0.924348 0.404229 0.123768
H15   H     H_    0.401435 0.871610 0.682211 0.124825
H16   H     H_    0.598566 0.371612 0.317794 0.124823
H17   H     H_    0.352561 0.711419 0.776934 0.145006
H18   H     H_    0.647452 0.211401 0.223095 0.144947
H19   H     H_    0.176774 0.860150 0.904183 0.174233
H20   H     H_    0.823221 0.360153 0.095812 0.174260
H21   H     H_    0.141822 0.563962 0.710503 0.133250
H22   H     H_    0.858180 0.063950 0.289493 0.133255
H23   H     H_    0.227075 0.570925 0.636343 0.126054
H24   H     H_    0.772927 0.070917 0.363654 0.126059
O11   O     O_R   0.937800 0.775460 0.060470 -0.529143
O12   O     O_R   0.062200 0.275460 0.939530 -0.529148
O13   O     O_R   0.087350 0.441340 0.093710 -0.537176
O14   O     O_R   0.912650 0.941340 0.906290 -0.537176
C53   C     C_R   0.114835 0.610371 0.116330 0.689174
C54   C     C_R   0.885165 0.110372 0.883670 0.689185
O15   O     O_R   0.939820 0.446010 0.069950 -0.545490
O16   O     O_R   0.060180 0.946010 0.930050 -0.545490
O17   O     O_R   0.913690 0.271230 0.915700 -0.541996
O18   O     O_R   0.086310 0.771230 0.084300 -0.541996
C55   C     C_R   0.920955 0.614943 0.087537 0.705542
C56   C     C_R   0.079044 0.114944 0.912462 0.705527
O19   O     O_3   0.991670 0.603050 0.949510 -0.372140
O20   O     O_3   0.008330 0.103050 0.050490 -0.372138
V3    V     V_3+5 0.001550 0.329940 0.009370 1.398138
V4    V     V_3+5 0.998450 0.829940 0.990630 1.398136
O21   O     O_3   0.269097 0.670049 0.867967 -0.551385
C57   C     C_3   0.330941 0.670408 0.936950 -0.271930
H25   H     H_    0.326545 0.550631 0.975587 0.164974
H26   H     H_    0.334172 0.801940 0.972397 0.128644
H27   H     H_    0.381684 0.650368 0.921348 0.136265
O22   O     O_3   0.730921 0.170036 0.132040 -0.551404
C58   C     C_3   0.668968 0.170036 0.063172 -0.271801
H28   H     H_    0.673405 0.050383 0.024495 0.164944
H29   H     H_    0.665509 0.301613 0.027697 0.128623
H30   H     H_    0.618325 0.149528 0.078927 0.136260
C59   C     C_3   0.059573 0.417455 0.786682 -0.749908
H31   H     H_    0.037378 0.443390 0.721218 0.180189
H32   H     H_    0.012135 0.366087 0.802770 0.207156
H33   H     H_    0.079500 0.551893 0.818279 0.223664
C60   C     C_3   0.940430 0.917436 0.213319 -0.749891
H34   H     H_    0.962624 0.943372 0.278783 0.180184
H35   H     H_    0.987870 0.866056 0.197236 0.207148
H36   H     H_    0.920509 0.051875 0.181720 0.223668

loop_
_geom_bond_atom_site_label_1
_geom_bond_atom_site_label_2
_ccdc_geom_bond_type
C49   C56   S    
C42   C44   A    
C39   C41   A    
C44   H22   S    
C29   C31   A    
C20   H10   S    
C58   H28   S    
O1    C3    A    
C46   H24   S    
C2    O7    A    
C23   C25   A    
O5    C3    A    
C35   O21   S    
C50   C52   A    
O11   C55   A    
C18   H8    S    
C7    C9    A    
C14   C53   S    
C34   H18   S    
C13   C54   S    
O15   C55   A    
C33   C35   A    
C41   C43   A    
C57   H25   S    
C34   C36   A    
C59   H31   S    
C36   C38   A    
C21   C23   A    
C37   C39   A    
O22   C58   S    
C38   C40   A    
C17   C19   S    
C28   C30   A    
C59   H32   S    
C26   C28   A    
C15   C17   S    
C27   C33   A    
C19   H11   S    
C18   C20   S    
C45   H23   S    
C37   C47   A    
C24   C26   A    
O2    C4    A    
O6    V2    S    
C49   C51   A    
O12   C56   A    
O15   V3    S    
C47   H19   S    
C60   H35   S    
C11   C13   A    
C3    C8    S    
C1    C24   S    
C22   C24   A    
O17   V3    S    
C35   C37   A    
C52   C60   S    
C43   H21   S    
C2    C23   S    
C48   C50   A    
C22   H14   S    
C54   O17   A    
C25   C27   A    
C17   H5    S    
C25   H15   S    
C48   H20   S    
C43   C45   A    
C40   C42   A    
O4    V2    S    
O13   C53   A    
O6    C4    A    
C59   H33   S    
C42   C52   A    
O14   C54   A    
C38   C48   A    
C58   H29   S    
O1    V2    S    
C17   H7    S    
O20   V4    S    
O2    V1    S    
C31   C45   A    
C28   C34   A    
O4    C2    A    
C8    C10   A    
C12   C14   A    
O19   V4    S    
C32   C46   A    
O16   V4    S    
O11   V4    S    
C5    C15   A    
C10   H2    S    
C20   H12   S    
C6    C16   A    
O3    V1    S    
C57   H26   S    
C47   C49   A    
C60   H36   S    
C9    C11   A    
C18   H6    S    
O13   V3    S    
O3    C1    A    
C26   H16   S    
C60   H34   S    
C30   C32   A    
C50   C55   S    
C11   H3    S    
O21   C57   S    
C12   H4    S    
C41   C51   A    
C9    H1    S    
O7    V1    S    
C1    O8    A    
C13   C15   A    
O8    V2    S    
C14   C16   A    
C29   C39   A    
C30   C40   A    
O18   V4    S    
O16   C56   A    
C4    C7    S    
O5    V1    S    
C5    C7    A    
C58   H30   S    
C6    C8    A    
O20   V3    S    
C19   H9    S    
C33   H17   S    
O12   V3    S    
C36   O22   S    
O14   V4    S    
C51   C59   S    
C21   C31   A    
O19   V3    S    
C10   C12   A    
O9    V2    S    
C22   C32   A    
C44   C46   A    
O10   V1    S    
C21   H13   S    
C5    C19   S    
C27   C29   A    
C6    C20   S    
C53   O18   A    
C16   C18   S    
C57   H27   S    
