data_mof_unit_13978.cif
_audit_creation_date              2012-12-10T19:44:26-0500
_audit_creation_method            fapswitch 2.2
_symmetry_space_group_name_H-M    P1
_symmetry_Int_Tables_number       1
_space_group_crystal_system       triclinic
_cell_length_a                    10.813162
_cell_length_b                    12.314957
_cell_length_c                    13.114005
_cell_angle_alpha                 116.416072
_cell_angle_beta                  80.859268
_cell_angle_gamma                 100.691791
_cell_volume                      1531.02925105

loop_
_atom_site_label
_atom_site_type_symbol
_atom_type_description
_atom_site_fract_x
_atom_site_fract_y
_atom_site_fract_z
_atom_type_partial_charge
C1    C     C_R   0.497328 0.855198 0.287805 0.841725
C2    C     C_R   0.173714 0.012772 0.124888 0.575243
C3    C     C_R   0.172528 0.888066 0.049991 -0.024779
C4    C     C_R   0.736304 0.002355 0.506134 0.885260
C5    C     C_R   0.161253 0.802319 0.094671 -0.117296
C6    C     C_R   0.142062 0.838136 0.212548 0.026038
C7    C     C_R   0.142020 0.963417 0.288229 -0.193692
C8    C     C_R   0.427965 0.266036 0.035865 0.731715
C9    C     C_R   0.475746 0.228023 0.836765 -0.186505
C10   C     C_R   0.474187 0.818615 0.085118 0.130844
C11   C     C_R   0.465781 0.738441 0.970590 -0.168873
C12   C     C_R   0.750319 0.935328 0.884962 0.558221
C13   C     C_R   0.456667 0.612961 0.933799 0.575748
C14   C     C_R   0.449814 0.562685 0.013520 -0.046698
C15   C     C_R   0.435143 0.642761 0.131646 -0.215802
C16   C     C_R   0.487002 0.145375 0.713771 0.868808
C17   C     C_R   0.451108 0.435641 0.981275 -0.052849
C18   C     C_R   0.421550 0.389525 0.065361 -0.240980
C19   C     C_R   0.381177 0.466513 0.176676 0.620577
C20   C     C_R   0.382196 0.589666 0.207908 0.532663
C21   C     C_R   0.485121 0.353694 0.868903 -0.124707
C22   C     C_R   0.451916 0.184498 0.921776 0.026884
C23   C     C_R   0.052681 0.007911 0.596450 0.116996
C24   C     C_R   0.467939 0.772007 0.167572 -0.111362
C25   C     C_R   0.693014 0.346637 0.328478 0.574510
C26   C     C_R   0.322257 0.753645 0.633392 -0.128739
C27   C     C_R   0.269606 0.646913 0.644174 0.453887
C28   C     C_R   0.263421 0.998361 0.494945 0.857464
C29   C     C_R   0.328708 0.541497 0.586649 0.743614
C30   C     C_R   0.446644 0.543733 0.522004 -0.155479
C31   C     C_R   0.488960 0.651589 0.504131 0.135552
C32   C     C_R   0.520153 0.442160 0.467852 -0.192415
C33   C     C_R   0.621385 0.444579 0.384785 -0.162560
C34   C     C_R   0.129756 0.003491 0.498195 -0.128671
C35   C     C_R   0.652694 0.546556 0.361373 0.624156
C36   C     C_R   0.590828 0.648033 0.422387 -0.221005
C37   C     C_R   0.502991 0.340687 0.495616 0.829689
C38   C     C_R   0.667427 0.247614 0.356179 0.086405
C39   C     C_R   0.768621 0.053661 0.892138 -0.277787
C40   C     C_R   0.812527 0.074514 0.795238 0.061241
C41   C     C_R   0.841397 0.975679 0.690836 0.042489
C42   C     C_R   0.818164 0.855093 0.682588 0.054379
C43   C     C_R   0.769984 0.834761 0.779376 0.127821
C44   C     C_R   0.076122 0.996368 0.403687 -0.029215
C45   C     C_R   0.947102 0.999463 0.410990 0.594662
C46   C     C_R   0.869681 0.000372 0.506653 -0.236667
C47   C     C_R   0.921013 0.998779 0.598098 -0.049004
C48   C     C_R   0.161778 0.050354 0.243183 0.640993
Cu1   Cu    Cu3+1 0.529370 0.098270 0.475420 1.074646
Cu2   Cu    Cu3+1 0.470630 0.901730 0.524580 1.003465
F1    F     F_    0.718901 0.919480 0.981885 -0.681985
F2    F     F_    0.155867 0.642965 0.704209 -0.586850
F3    F     F_    0.894239 0.987252 0.318247 -0.650522
F4    F     F_    0.155406 0.170265 0.313914 -0.528582
F5    F     F_    0.178399 0.097073 0.083821 -0.594681
F6    F     F_    0.334572 0.422256 0.255322 -0.532343
F7    F     F_    0.411312 0.223776 0.117472 -0.595542
F8    F     F_    0.439124 0.543310 0.821792 -0.659294
F9    F     F_    0.314934 0.651088 0.307716 -0.624861
F10   F     F_    0.748325 0.551996 0.282154 -0.605340
F11   F     F_    0.789203 0.346847 0.247967 -0.578611
F12   F     F_    0.424853 0.339384 0.586327 -0.553076
F13   F     F_    0.260043 0.436068 0.582692 -0.506508
H1    H     H_    0.158225 0.706031 0.037073 0.226232
H2    H     H_    0.011080 0.745319 0.282540 0.266202
H3    H     H_    0.513552 0.051005 0.942938 0.255522
H4    H     H_    0.361345 0.024178 0.915915 0.258811
H5    H     H_    0.406666 0.981106 0.180110 0.207570
H6    H     H_    0.564805 0.992441 0.144084 0.305592
H7    H     H_    0.744014 0.117797 0.213396 0.265297
H8    H     H_    0.835999 0.186694 0.322793 0.303550
H9    H     H_    0.900465 0.247585 0.865550 0.265618
H10   H     H_    0.751216 0.234690 0.834543 0.225369
H11   H     H_    0.815399 0.755621 0.511460 0.231033
H12   H     H_    0.521408 0.385775 0.804661 0.255957
H13   H     H_    0.951257 0.763568 0.563418 0.254908
H14   H     H_    0.722844 0.711221 0.849763 0.273035
H15   H     H_    0.673037 0.665356 0.720460 0.229261
H16   H     H_    0.076155 0.943478 0.710118 0.227735
H17   H     H_    0.083777 0.097973 0.764740 0.257478
H18   H     H_    0.467051 0.774263 0.908413 0.162819
H19   H     H_    0.751832 0.130006 0.974053 0.210952
H20   H     H_    0.273831 0.833782 0.676172 0.188639
H21   H     H_    0.626819 0.721469 0.400461 0.217140
H22   H     H_    0.265538 0.823594 0.893575 0.218959
H23   H     H_    0.157508 0.913557 0.908166 0.263280
H24   H     H_    0.157580 0.768042 0.322011 0.270597
N1    N     N_R   0.573890 0.246290 0.438210 -0.282168
N2    N     N_3   0.749312 0.712023 0.769936 -0.479660
N3    N     N_3   0.109563 0.019824 0.693622 -0.559459
N4    N     N_R   0.426890 0.754320 0.561170 -0.201049
N5    N     N_3   0.174808 0.845253 0.928755 -0.465165
N6    N     N_3   0.106602 0.744816 0.252511 -0.482121
N7    N     N_3   0.451766 0.057847 0.893068 -0.557331
N8    N     N_3   0.477579 0.946090 0.115088 -0.537668
N9    N     N_3   0.743284 0.150059 0.301841 -0.406346
N10   N     N_3   0.835865 0.196699 0.804329 -0.541419
N11   N     N_3   0.852931 0.753229 0.578832 -0.514786
O1    O     O_R   0.536940 0.972510 0.318130 -0.578012
O2    O     O_R   0.487330 0.806530 0.359650 -0.545016
O3    O     O_R   0.705160 0.082990 0.479250 -0.513303
O4    O     O_R   0.655550 0.917010 0.520760 -0.631652
O5    O     O_R   0.512670 0.193470 0.640350 -0.539265
O6    O     O_R   0.463060 0.027490 0.681870 -0.559544
O7    O     O_R   0.344450 0.082990 0.479240 -0.522615
O8    O     O_R   0.294840 0.917010 0.520750 -0.557388

loop_
_geom_bond_atom_site_label_1
_geom_bond_atom_site_label_2
_ccdc_geom_bond_type
C19   F6    S    
C29   F13   S    
Cu2   O6    S    
C26   H20   S    
C27   C29   A    
C41   C42   A    
C37   N1    A    
C19   C20   A    
C14   C17   A    
C1    O1    A    
C37   F12   S    
H11   N11   S    
C4    C46   S    
C45   C46   A    
C11   H18   S    
C48   F4    S    
H14   N2    S    
C26   C27   A    
C43   N2    S    
C9    C16   S    
C12   C43   A    
C2    F5    S    
C42   N11   S    
Cu1   O3    S    
C30   C31   A    
C25   C38   A    
C9    C22   A    
H13   N11   S    
C18   C19   A    
H16   N3    S    
C16   O6    A    
C35   C36   A    
C28   O8    A    
C4    O4    A    
H4    N7    S    
C8    C22   A    
H3    N7    S    
C6    N6    S    
H2    N6    S    
C28   C34   S    
C13   C14   A    
C22   N7    S    
Cu1   N1    S    
C1    O2    A    
H22   N5    S    
H9    N10   S    
H15   N2    S    
C15   C20   A    
H5    N8    S    
C23   C47   A    
C34   C44   A    
C39   C40   A    
Cu1   O7    S    
C13   F8    S    
C10   C24   A    
C26   N4    A    
C32   C37   A    
C8    C18   A    
C5    H1    S    
C38   N1    A    
C35   F10   S    
H7    N9    S    
C29   C30   A    
C8    F7    S    
Cu1   O1    S    
C16   O5    A    
C28   O7    A    
C23   C34   A    
C4    O3    A    
C17   C18   A    
C41   C47   S    
C23   N3    S    
C25   F11   S    
C7    C44   S    
C20   F9    S    
C40   C41   A    
H10   N10   S    
C31   N4    A    
C42   C43   A    
C3    C5    A    
C40   N10   S    
C12   F1    S    
C27   F2    S    
C46   C47   A    
C15   C24   A    
C31   C36   A    
C44   C45   A    
C39   H19   S    
H6    N8    S    
Cu1   O5    S    
Cu2   O4    S    
C6    C7    A    
H8    N9    S    
C21   H12   S    
Cu2   O2    S    
C2    C48   A    
C32   C33   A    
C12   C39   A    
C2    C3    A    
H23   N5    S    
C7    C48   A    
C30   C32   A    
C11   C13   A    
C9    C21   A    
C5    C6    A    
C10   N8    S    
C36   H21   S    
H24   N6    S    
C33   C35   A    
H17   N3    S    
C17   C21   A    
C10   C11   A    
C45   F3    S    
Cu2   N4    S    
C1    C24   S    
Cu1   Cu2   S    
C38   N9    S    
Cu2   O8    S    
C14   C15   A    
C3    N5    S    
C25   C33   A    
