data_mof_unit_6078.cif
_audit_creation_date              2013-03-05T16:00:08-0500
_audit_creation_method            fapswitch 2.2
_symmetry_space_group_name_H-M    P1
_symmetry_Int_Tables_number       1
_space_group_crystal_system       triclinic
_cell_length_a                    21.679952
_cell_length_b                    21.701012
_cell_length_c                    18.249087
_cell_angle_alpha                 90.003042
_cell_angle_beta                  90.000195
_cell_angle_gamma                 89.999442
_cell_volume                      8585.77383987

loop_
_atom_site_label
_atom_site_type_symbol
_atom_site_description
_atom_site_fract_x
_atom_site_fract_y
_atom_site_fract_z
_atom_type_partial_charge
O1    O     O_R   0.948270 0.408400 0.500040 -0.578833
O2    O     O_R   0.408400 0.051730 0.500040 -0.622181
O3    O     O_R   0.051730 0.591600 0.500040 -0.578844
O4    O     O_R   0.591600 0.948270 0.500040 -0.622289
O5    O     O_R   0.948270 0.591600 0.499960 -0.578856
O6    O     O_R   0.408400 0.948270 0.499960 -0.622240
O7    O     O_R   0.051730 0.408400 0.499960 -0.578828
O8    O     O_R   0.591600 0.051730 0.499960 -0.622257
O9    O     O_R   0.448270 0.908400 0.000040 -0.578858
O10   O     O_R   0.908400 0.551730 0.000040 -0.622220
O11   O     O_R   0.551730 0.091600 0.000040 -0.578811
O12   O     O_R   0.091600 0.448270 0.000040 -0.622277
O13   O     O_R   0.448270 0.091600 0.999960 -0.578819
O14   O     O_R   0.908400 0.448270 0.999960 -0.622176
O15   O     O_R   0.551730 0.908400 0.999960 -0.578859
O16   O     O_R   0.091600 0.551730 0.999960 -0.622307
C1    C     C_R   0.999999 0.379750 0.499999 0.955633
C2    C     C_R   0.379946 0.000002 0.500007 1.036532
C3    C     C_R   0.999999 0.620250 0.500002 0.955721
C4    C     C_R   0.620053 0.000000 0.499998 1.036703
C5    C     C_R   0.500000 0.879750 0.999998 0.955746
C6    C     C_R   0.879947 0.499999 0.999994 1.036521
C7    C     C_R   0.499999 0.120251 0.000003 0.955586
C8    C     C_R   0.120052 0.499999 0.000003 1.036738
O17   O     O_R   0.948270 0.500020 0.392700 -0.610527
O18   O     O_R   0.500020 0.051730 0.392700 -0.632594
O19   O     O_R   0.051730 0.499980 0.392700 -0.610411
O20   O     O_R   0.499980 0.948270 0.392700 -0.632804
O21   O     O_R   0.948270 0.499980 0.607300 -0.610476
O22   O     O_R   0.500020 0.948270 0.607300 -0.632750
O23   O     O_R   0.051730 0.500020 0.607300 -0.610450
O24   O     O_R   0.499980 0.051730 0.607300 -0.632766
O25   O     O_R   0.448270 0.000020 0.892700 -0.610443
O26   O     O_R   0.000020 0.551730 0.892700 -0.632670
O27   O     O_R   0.551730 0.999980 0.892700 -0.610482
O28   O     O_R   0.999980 0.448270 0.892700 -0.632790
O29   O     O_R   0.448270 0.999980 0.107300 -0.610541
O30   O     O_R   0.000020 0.448270 0.107300 -0.632571
O31   O     O_R   0.551730 0.000020 0.107300 -0.610405
O32   O     O_R   0.999980 0.551730 0.107300 -0.632829
C9    C     C_R   0.000000 0.500004 0.359020 0.862914
C10   C     C_R   0.500000 0.999999 0.359044 0.952241
C11   C     C_R   0.000000 0.499998 0.640980 0.862924
C12   C     C_R   0.500000 0.000001 0.640956 0.952249
C13   C     C_R   0.500000 0.000001 0.859020 0.862930
C14   C     C_R   1.000000 0.499999 0.859043 0.952252
C15   C     C_R   0.500000 0.999995 0.140980 0.862902
C16   C     C_R   1.000000 0.500001 0.140956 0.952252
Zn1   Zn    Zn3+2 0.930920 0.500000 0.500000 1.060645
Zn2   Zn    Zn3+2 0.500000 0.069080 0.500000 0.945395
Zn3   Zn    Zn3+2 0.069080 0.500000 0.500000 1.060718
Zn4   Zn    Zn3+2 0.500000 0.930920 0.500000 0.945236
Zn5   Zn    Zn3+2 0.430920 0.000000 0.000000 1.060662
Zn6   Zn    Zn3+2 0.000000 0.569080 0.000000 0.945314
Zn7   Zn    Zn3+2 0.569080 0.000000 0.000000 1.060690
Zn8   Zn    Zn3+2 0.000000 0.430920 0.000000 0.945432
C17   C     C_1   0.000000 0.500005 0.282400 -0.150382
C18   C     C_1   0.500001 0.999996 0.282464 -0.167088
C19   C     C_1   0.000000 0.499996 0.717600 -0.150390
C20   C     C_1   0.500000 0.000003 0.717536 -0.167075
C21   C     C_1   0.500000 0.000003 0.782400 -0.150399
C22   C     C_1   0.000000 0.499996 0.782464 -0.167078
C23   C     C_1   0.500001 0.999995 0.217600 -0.150394
C24   C     C_1   0.000000 0.500004 0.217536 -0.167094
C25   C     C_R   0.046168 0.281673 0.538735 0.370942
C26   C     C_R   0.282380 0.958829 0.546026 0.322802
C27   C     C_R   0.953834 0.718333 0.538741 0.370847
C28   C     C_R   0.717619 0.041144 0.546049 0.322732
C29   C     C_R   0.046147 0.718324 0.461232 0.370932
C30   C     C_R   0.282373 0.041196 0.454028 0.322712
C31   C     C_R   0.953808 0.281664 0.461303 0.370836
C32   C     C_R   0.717618 0.958860 0.453938 0.322744
C33   C     C_R   0.546149 0.781674 0.038769 0.370901
C34   C     C_R   0.782377 0.458819 0.045991 0.322696
C35   C     C_R   0.453793 0.218338 0.038678 0.370839
C36   C     C_R   0.217616 0.541128 0.046077 0.322736
C37   C     C_R   0.546182 0.218328 0.961291 0.370946
C38   C     C_R   0.782378 0.541173 0.953979 0.322751
C39   C     C_R   0.453846 0.781669 0.961240 0.370871
C40   C     C_R   0.217616 0.458871 0.953932 0.322712
C41   C     C_R   0.049167 0.217699 0.533744 0.176497
C42   C     C_R   0.218281 0.961046 0.549069 0.200735
C43   C     C_R   0.950839 0.782307 0.533745 0.176441
C44   C     C_R   0.781715 0.038916 0.549102 0.200767
C45   C     C_R   0.049149 0.782298 0.466222 0.176483
C46   C     C_R   0.218279 0.038953 0.450953 0.200675
C47   C     C_R   0.950819 0.217690 0.466298 0.176426
C48   C     C_R   0.781716 0.961079 0.450897 0.200783
C49   C     C_R   0.549149 0.717701 0.033779 0.176494
C50   C     C_R   0.718282 0.461061 0.049065 0.200690
C51   C     C_R   0.450804 0.282312 0.033678 0.176391
C52   C     C_R   0.281715 0.538912 0.049113 0.200794
C53   C     C_R   0.549179 0.282301 0.966285 0.176460
C54   C     C_R   0.718280 0.538947 0.950928 0.200720
C55   C     C_R   0.450846 0.717696 0.966239 0.176420
C56   C     C_R   0.281714 0.461098 0.950881 0.200801
C57   C     C_R   0.000000 0.186042 0.500011 -0.369778
C58   C     C_R   0.186532 0.999992 0.500002 -0.362351
C59   C     C_R   0.999999 0.813956 0.499991 -0.369738
C60   C     C_R   0.813465 0.999996 0.500001 -0.362298
C61   C     C_R   0.499999 0.686044 0.000007 -0.369739
C62   C     C_R   0.686533 0.500006 0.000000 -0.362325
C63   C     C_R   0.499998 0.313959 0.999991 -0.369784
C64   C     C_R   0.313464 0.500004 0.999997 -0.362271
C65   C     C_R   0.879571 0.999997 0.500000 1.050054
C66   C     C_R   0.000005 0.120278 0.500003 1.061925
C67   C     C_R   0.120427 0.999992 0.500000 1.050063
C68   C     C_R   0.000003 0.879722 0.499997 1.061795
C69   C     C_R   0.379571 0.500002 0.999999 1.050028
C70   C     C_R   0.500001 0.620278 0.000002 1.061758
C71   C     C_R   0.620428 0.500004 0.000000 1.050059
C72   C     C_R   0.500003 0.379723 0.999997 1.061919
C73   C     C_R   0.999995 0.313286 0.500006 -0.348330
C74   C     C_R   0.313815 0.000008 0.500020 -0.332840
C75   C     C_R   0.999995 0.686712 0.499996 -0.348316
C76   C     C_R   0.686182 0.000001 0.499995 -0.332700
C77   C     C_R   0.499999 0.813288 1.000000 -0.348317
C78   C     C_R   0.813815 0.499997 0.999988 -0.332773
C79   C     C_R   0.499994 0.186715 0.999996 -0.348344
C80   C     C_R   0.186181 0.499998 0.000006 -0.332643
Zn9   Zn    Zn3+2 0.000000 0.000000 0.580930 1.163105
Zn10  Zn    Zn3+2 0.000000 0.000000 0.419070 1.163080
Zn11  Zn    Zn3+2 0.500000 0.500000 0.080930 1.163098
Zn12  Zn    Zn3+2 0.500000 0.500000 0.919070 1.163117
O33   O     O_R   0.908270 0.000020 0.560600 -0.585996
O34   O     O_R   0.000020 0.091730 0.560600 -0.583715
O35   O     O_R   0.091730 0.999980 0.560600 -0.586015
O36   O     O_R   0.999980 0.908270 0.560600 -0.583701
O37   O     O_R   0.908270 0.999980 0.439400 -0.585983
O38   O     O_R   0.000020 0.908270 0.439400 -0.583707
O39   O     O_R   0.091730 0.000020 0.439400 -0.586043
O40   O     O_R   0.999980 0.091730 0.439400 -0.583705
O41   O     O_R   0.408270 0.500020 0.060600 -0.585966
O42   O     O_R   0.500020 0.591730 0.060600 -0.583706
O43   O     O_R   0.591730 0.499980 0.060600 -0.586022
O44   O     O_R   0.499980 0.408270 0.060600 -0.583723
O45   O     O_R   0.408270 0.499980 0.939400 -0.585992
O46   O     O_R   0.500020 0.408270 0.939400 -0.583731
O47   O     O_R   0.591730 0.500020 0.939400 -0.586005
O48   O     O_R   0.499980 0.591730 0.939400 -0.583691
O49   O     O_3   0.089101 0.314386 0.579680 -0.575910
C81   C     C_3   0.079401 0.304977 0.655815 0.140607
H1    H     H_    0.116470 0.330307 0.685144 0.187159
H2    H     H_    0.084554 0.255799 0.671463 0.176921
C82   C     C_3   0.016598 0.329546 0.682119 -0.436501
H3    H     H_    0.008814 0.376129 0.659272 0.229674
H4    H     H_    0.979059 0.298847 0.662434 0.228139
C83   C     C_3   0.013526 0.332883 0.765458 -0.879773
H5    H     H_    0.022396 0.286825 0.789837 0.263805
H6    H     H_    0.967012 0.348717 0.782605 0.281274
H7    H     H_    0.048200 0.366261 0.786093 0.269791
O50   O     O_3   0.314984 0.919385 0.591530 -0.601674
C84   C     C_3   0.313096 0.859110 0.561973 0.188546
H8    H     H_    0.323872 0.858941 0.502150 0.140538
H9    H     H_    0.266775 0.838312 0.570396 0.200387
C85   C     C_3   0.360904 0.819363 0.601238 -0.369560
H10   H     H_    0.407556 0.839164 0.592146 0.239529
H11   H     H_    0.351182 0.819317 0.661056 0.240277
C86   C     C_3   0.360087 0.753149 0.573175 -0.895594
H12   H     H_    0.314116 0.731987 0.582646 0.288114
H13   H     H_    0.395355 0.725702 0.602873 0.268581
H14   H     H_    0.370852 0.751971 0.513675 0.268518
O51   O     O_3   0.910887 0.685627 0.579668 -0.575917
C87   C     C_3   0.920560 0.695044 0.655805 0.140683
H15   H     H_    0.883461 0.669747 0.685114 0.187192
H16   H     H_    0.915438 0.744228 0.671448 0.176901
C88   C     C_3   0.983332 0.670434 0.682146 -0.436519
H17   H     H_    0.991091 0.623843 0.659301 0.229694
H18   H     H_    0.020901 0.701103 0.662483 0.228121
C89   C     C_3   0.986363 0.667099 0.765485 -0.879729
H19   H     H_    0.977521 0.713167 0.789859 0.263794
H20   H     H_    0.032855 0.651229 0.782662 0.281313
H21   H     H_    0.951650 0.633753 0.786096 0.269802
O52   O     O_3   0.685017 0.080586 0.591563 -0.601680
C90   C     C_3   0.686919 0.140864 0.562019 0.188504
H22   H     H_    0.676106 0.141040 0.502205 0.140597
H23   H     H_    0.733258 0.161639 0.570403 0.200395
C91   C     C_3   0.639158 0.180635 0.601334 -0.369589
H24   H     H_    0.592491 0.160850 0.592293 0.239507
H25   H     H_    0.648929 0.180687 0.661142 0.240301
C92   C     C_3   0.639979 0.246844 0.573262 -0.895515
H26   H     H_    0.685984 0.267976 0.582622 0.288120
H27   H     H_    0.604779 0.274322 0.603040 0.268573
H28   H     H_    0.629118 0.248017 0.513784 0.268490
O53   O     O_3   0.089060 0.685609 0.420258 -0.575912
C93   C     C_3   0.079328 0.695021 0.344129 0.140568
H29   H     H_    0.116378 0.669683 0.314777 0.187141
H30   H     H_    0.084485 0.744198 0.328479 0.176965
C94   C     C_3   0.016508 0.670468 0.317862 -0.436530
H31   H     H_    0.008724 0.623884 0.340708 0.229659
H32   H     H_    0.978983 0.701173 0.337575 0.228162
C95   C     C_3   0.013397 0.667139 0.234524 -0.879676
H33   H     H_    0.022260 0.713199 0.210146 0.263816
H34   H     H_    0.966874 0.651312 0.217404 0.281268
H35   H     H_    0.048059 0.633760 0.213862 0.269763
O54   O     O_3   0.314962 0.080710 0.408597 -0.601550
C96   C     C_3   0.313075 0.140931 0.438313 0.188324
H36   H     H_    0.324167 0.140999 0.498061 0.140701
H37   H     H_    0.266652 0.161643 0.430304 0.200206
C97   C     C_3   0.360581 0.180870 0.398791 -0.369218
H38   H     H_    0.407330 0.161130 0.407426 0.239202
H39   H     H_    0.350504 0.181058 0.339047 0.240480
C98   C     C_3   0.359805 0.247007 0.427117 -0.895018
H40   H     H_    0.313634 0.268022 0.418452 0.288125
H41   H     H_    0.394643 0.274680 0.396969 0.268645
H42   H     H_    0.371224 0.248048 0.486466 0.268248
O55   O     O_3   0.910827 0.314370 0.420426 -0.575901
C99   C     C_3   0.920442 0.304959 0.344278 0.140768
H43   H     H_    0.883311 0.330246 0.315014 0.187217
H44   H     H_    0.915326 0.255774 0.328636 0.176838
C100  C     C_3   0.983184 0.329593 0.317874 -0.436500
H45   H     H_    0.990950 0.376178 0.340729 0.229718
H46   H     H_    0.020778 0.298926 0.337479 0.228083
C101  C     C_3   0.986141 0.332954 0.234534 -0.879862
H47   H     H_    0.977288 0.286892 0.210151 0.263769
H48   H     H_    0.032614 0.348838 0.217307 0.281335
H49   H     H_    0.951403 0.366300 0.213983 0.269852
O56   O     O_3   0.685012 0.919445 0.408395 -0.601706
C102  C     C_3   0.686905 0.859150 0.437889 0.188554
H50   H     H_    0.676150 0.858942 0.497717 0.140547
H51   H     H_    0.733222 0.838353 0.429421 0.200408
C103  C     C_3   0.639081 0.819433 0.398607 -0.369611
H52   H     H_    0.592432 0.839223 0.407760 0.239543
H53   H     H_    0.648772 0.819438 0.338782 0.240260
C104  C     C_3   0.639916 0.753196 0.426580 -0.895635
H54   H     H_    0.685881 0.732042 0.417039 0.288106
H55   H     H_    0.604631 0.725774 0.396879 0.268570
H56   H     H_    0.629191 0.751966 0.486088 0.268542
O57   O     O_3   0.589065 0.814389 0.079739 -0.575924
C105  C     C_3   0.579341 0.804975 0.155869 0.140588
H57   H     H_    0.616397 0.830308 0.185217 0.187149
H58   H     H_    0.584495 0.755797 0.171517 0.176967
C106  C     C_3   0.516526 0.829535 0.182147 -0.436536
H59   H     H_    0.508745 0.876119 0.159301 0.229662
H60   H     H_    0.478996 0.798834 0.162439 0.228154
C107  C     C_3   0.513426 0.832864 0.265485 -0.879654
H61   H     H_    0.522285 0.786803 0.289862 0.263811
H62   H     H_    0.466908 0.848699 0.282614 0.281268
H63   H     H_    0.548097 0.866236 0.286142 0.269772
O58   O     O_3   0.814973 0.419345 0.091464 -0.601594
C108  C     C_3   0.813078 0.359097 0.061834 0.188274
H64   H     H_    0.824224 0.358961 0.002102 0.140707
H65   H     H_    0.766637 0.338421 0.069820 0.200231
C109  C     C_3   0.860530 0.319175 0.101476 -0.369302
H66   H     H_    0.907304 0.338822 0.092761 0.239072
H67   H     H_    0.850459 0.319147 0.161220 0.240594
C110  C     C_3   0.859656 0.252971 0.073384 -0.894889
H68   H     H_    0.813433 0.232076 0.082063 0.288133
H69   H     H_    0.894406 0.225297 0.103688 0.268644
H70   H     H_    0.871140 0.251756 0.014055 0.268275
O59   O     O_3   0.410796 0.185634 0.079537 -0.575888
C111  C     C_3   0.420384 0.195050 0.155692 0.140825
H71   H     H_    0.383234 0.169774 0.184942 0.187270
H72   H     H_    0.415271 0.244237 0.171325 0.176806
C112  C     C_3   0.483113 0.170405 0.182135 -0.436457
H73   H     H_    0.490880 0.123819 0.159283 0.229720
H74   H     H_    0.520721 0.201065 0.162550 0.228045
C113  C     C_3   0.486036 0.167040 0.265481 -0.879829
H75   H     H_    0.477176 0.213102 0.289861 0.263746
H76   H     H_    0.532505 0.151152 0.282733 0.281313
H77   H     H_    0.451287 0.133694 0.286013 0.269879
O60   O     O_3   0.185010 0.580531 0.091634 -0.601722
C114  C     C_3   0.186902 0.640834 0.062166 0.188560
H78   H     H_    0.176169 0.641059 0.002332 0.140548
H79   H     H_    0.233210 0.661635 0.070668 0.200414
C115  C     C_3   0.139055 0.680532 0.101437 -0.369669
H80   H     H_    0.092413 0.660741 0.092241 0.239571
H81   H     H_    0.148718 0.680503 0.161267 0.240250
C116  C     C_3   0.139896 0.746781 0.073503 -0.895667
H82   H     H_    0.185852 0.767934 0.083095 0.288100
H83   H     H_    0.104590 0.774188 0.103192 0.268558
H84   H     H_    0.129205 0.748033 0.013989 0.268572
O61   O     O_3   0.589134 0.185616 0.920370 -0.575898
C117  C     C_3   0.579465 0.195026 0.844228 0.140663
H85   H     H_    0.616553 0.169707 0.814920 0.187197
H86   H     H_    0.584610 0.244206 0.828585 0.176885
C118  C     C_3   0.516679 0.170442 0.817885 -0.436476
H87   H     H_    0.508895 0.123860 0.840734 0.229687
H88   H     H_    0.479123 0.201135 0.837542 0.228111
C119  C     C_3   0.513646 0.167094 0.734543 -0.879809
H89   H     H_    0.522520 0.213150 0.710162 0.263788
H90   H     H_    0.467142 0.151253 0.717368 0.281271
H91   H     H_    0.548335 0.133717 0.713937 0.269824
O62   O     O_3   0.814977 0.580623 0.908481 -0.601646
C120  C     C_3   0.813091 0.640889 0.938060 0.188389
H92   H     H_    0.824046 0.641052 0.997838 0.140635
H93   H     H_    0.766713 0.661631 0.929844 0.200294
C121  C     C_3   0.860728 0.680709 0.898603 -0.369454
H94   H     H_    0.907437 0.660982 0.907519 0.239313
H95   H     H_    0.850838 0.680733 0.838823 0.240436
C122  C     C_3   0.859886 0.746924 0.926657 -0.895283
H96   H     H_    0.813783 0.767948 0.917595 0.288112
H97   H     H_    0.894883 0.774481 0.896631 0.268622
H98   H     H_    0.871029 0.748136 0.986067 0.268403
O63   O     O_3   0.410915 0.814377 0.920287 -0.575919
C123  C     C_3   0.420616 0.804954 0.844154 0.140653
H99   H     H_    0.383533 0.830258 0.814821 0.187195
H100  H     H_    0.415490 0.755770 0.828514 0.176933
C124  C     C_3   0.483405 0.829550 0.817844 -0.436521
H101  H     H_    0.491163 0.876141 0.840684 0.229678
H102  H     H_    0.520961 0.798875 0.837535 0.228129
C125  C     C_3   0.486473 0.832872 0.734503 -0.879651
H103  H     H_    0.477632 0.786803 0.710132 0.263801
H104  H     H_    0.532977 0.848730 0.717351 0.281281
H105  H     H_    0.451776 0.866224 0.713861 0.269791
O64   O     O_3   0.185012 0.419457 0.908388 -0.601707
C126  C     C_3   0.186918 0.359161 0.937876 0.188519
H106  H     H_    0.176120 0.358944 0.997693 0.140592
H107  H     H_    0.233253 0.338389 0.929453 0.200420
C127  C     C_3   0.139144 0.319420 0.898541 -0.369659
H108  H     H_    0.092478 0.339181 0.907655 0.239492
H109  H     H_    0.148877 0.319439 0.838727 0.240311
C128  C     C_3   0.140001 0.253179 0.926502 -0.895494
H110  H     H_    0.186010 0.232078 0.917079 0.288119
H111  H     H_    0.104800 0.225720 0.896697 0.268566
H112  H     H_    0.129163 0.251932 0.985984 0.268519
N1    N     N_R   0.103501 0.186231 0.559487 0.224751
O65   O     O_R   0.157741 0.207014 0.541532 -0.342292
O66   O     O_R   0.099583 0.144609 0.610537 -0.388387
N2    N     N_R   0.186105 0.923021 0.601143 0.229156
O67   O     O_R   0.143686 0.884809 0.579320 -0.384622
O68   O     O_R   0.203778 0.921686 0.669268 -0.327679
N3    N     N_R   0.896508 0.813784 0.559485 0.224693
O69   O     O_R   0.842267 0.793022 0.541497 -0.342068
O70   O     O_R   0.900426 0.855392 0.610557 -0.388390
N4    N     N_R   0.813887 0.076908 0.601218 0.229204
O71   O     O_R   0.856302 0.115141 0.579436 -0.384501
O72   O     O_R   0.796205 0.078204 0.669340 -0.327672
N5    N     N_R   0.103473 0.813766 0.440449 0.224734
O73   O     O_R   0.157719 0.792994 0.458399 -0.342059
O74   O     O_R   0.099537 0.855367 0.389377 -0.388369
N6    N     N_R   0.186107 0.076981 0.398875 0.229287
O75   O     O_R   0.143661 0.115167 0.420689 -0.384581
O76   O     O_R   0.203829 0.078366 0.330769 -0.327611
N7    N     N_R   0.896476 0.186212 0.440598 0.224690
O77   O     O_R   0.842243 0.206983 0.458605 -0.342157
O78   O     O_R   0.900372 0.144587 0.389543 -0.388444
N8    N     N_R   0.813891 0.923082 0.398789 0.229159
O79   O     O_R   0.856294 0.884840 0.420583 -0.384566
O80   O     O_R   0.796229 0.921798 0.330659 -0.327677
N9    N     N_R   0.603472 0.686230 0.059551 0.224723
O81   O     O_R   0.657719 0.706996 0.041596 -0.342150
O82   O     O_R   0.599537 0.644631 0.110627 -0.388356
N10   N     N_R   0.686111 0.423056 0.101167 0.229257
O83   O     O_R   0.643673 0.384853 0.079376 -0.384551
O84   O     O_R   0.703824 0.421712 0.169276 -0.327626
N11   N     N_R   0.396450 0.313792 0.059351 0.224678
O85   O     O_R   0.342223 0.293013 0.041331 -0.342141
O86   O     O_R   0.400329 0.355434 0.110388 -0.388450
N12   N     N_R   0.313892 0.576905 0.101222 0.229144
O87   O     O_R   0.356281 0.615160 0.079426 -0.384595
O88   O     O_R   0.296240 0.578174 0.169356 -0.327675
N13   N     N_R   0.603524 0.313770 0.940573 0.224734
O89   O     O_R   0.657758 0.292980 0.958549 -0.342286
O90   O     O_R   0.599625 0.355405 0.889534 -0.388411
N14   N     N_R   0.686103 0.576965 0.898845 0.229191
O91   O     O_R   0.643682 0.615178 0.920661 -0.384630
O92   O     O_R   0.703787 0.578301 0.830725 -0.327657
N15   N     N_R   0.396517 0.686222 0.940488 0.224694
O93   O     O_R   0.342274 0.706984 0.958470 -0.342015
O94   O     O_R   0.400440 0.644619 0.889410 -0.388346
N16   N     N_R   0.313886 0.423122 0.898747 0.229191
O95   O     O_R   0.356292 0.384874 0.920513 -0.384471
O96   O     O_R   0.296212 0.421860 0.830621 -0.327668

loop_
_geom_bond_atom_site_label_1
_geom_bond_atom_site_label_2
_geom_bond_distance
_ccdc_geom_bond_type
C112  H74   1.111418 S    
C29   O53   1.388749 S    
O25   C13   1.278882 A    
C122  H96   1.111072 S    
C83   H7    1.109745 S    
C10   C18   1.397504 S    
C82   H3    1.106476 S    
C71   O47   1.268897 A    
C90   H23   1.111716 S    
C66   O40   1.267612 A    
C98   H41   1.110778 S    
C14   C22   1.397504 S    
O62   C120  1.415423 S    
O18   Zn2   1.993979 S    
C104  H56   1.110901 S    
C109  H66   1.111488 S    
C31   C73   1.404404 A    
C114  H79   1.111672 S    
C117  H85   1.111062 S    
C96   H37   1.111918 S    
C5    C77   1.442301 S    
C39   O63   1.388759 S    
C86   H13   1.110454 S    
O3    C3    1.282321 A    
N4    O71   1.300756 A    
C44   N4    1.438994 S    
C31   O55   1.388726 S    
C42   C58   1.410659 A    
O5    Zn1   2.023092 S    
C62   C71   1.433151 S    
N13   O90   1.300424 A    
C92   H27   1.110496 S    
C127  H109  1.111775 S    
C8    C80   1.433676 S    
Zn11  O42   2.024929 S    
C69   O41   1.268920 A    
N3    O69   1.301383 A    
C44   C60   1.410659 A    
C95   H35   1.109743 S    
C37   O61   1.388762 S    
Zn12  O45   2.023014 S    
C114  H78   1.116432 S    
Zn9   O36   2.024892 S    
O17   C9    1.278888 A    
N7    O78   1.300408 A    
C42   N2    1.438995 S    
C61   C70   1.427187 S    
C63   C72   1.427141 S    
O57   C105  1.419995 S    
C26   C42   1.391595 A    
C90   H22   1.116445 S    
O64   C126  1.415445 S    
C119  H89   1.110838 S    
C84   C85   1.527010 S    
C105  H58   1.110403 S    
C28   C76   1.402836 A    
C123  H99   1.111059 S    
O26   Zn6   1.993979 S    
C116  H83   1.110454 S    
C81   H2    1.110413 S    
O27   C13   1.278884 A    
O8    Zn2   2.021258 S    
C82   C83   1.524027 S    
O31   C15   1.278878 A    
C110  H70   1.111269 S    
C6    C78   1.433719 S    
C56   C64   1.410667 A    
C36   O60   1.386352 S    
C49   C61   1.409666 A    
C32   C76   1.402832 A    
C25   C73   1.404378 A    
C51   C63   1.409652 A    
O54   C96   1.415466 S    
C33   C49   1.392794 A    
C32   O56   1.386350 S    
C109  C110  1.525507 S    
C65   O33   1.268901 A    
C34   C50   1.391570 A    
C85   H11   1.111794 S    
C67   O35   1.268891 A    
C120  H93   1.111768 S    
O9    C5    1.282299 A    
C38   C54   1.391591 A    
O11   C7    1.282338 A    
C34   O58   1.386308 S    
N12   O87   1.300761 A    
O16   Zn6   2.021258 S    
C124  C125  1.524061 S    
C52   C64   1.410664 A    
O7    Zn3   2.023094 S    
N7    O77   1.301383 A    
O4    C4    1.280913 A    
C54   C62   1.410646 A    
C97   H39   1.111956 S    
N15   O93   1.301385 A    
C108  H65   1.111892 S    
C93   H29   1.111053 S    
N2    O68   1.301244 A    
C111  H71   1.111075 S    
C27   C43   1.392799 A    
Zn12  O47   2.023009 S    
C47   N7    1.440372 S    
C53   C63   1.409660 A    
C33   O57   1.388757 S    
C91   H24   1.111396 S    
C128  H110  1.110954 S    
C1    C73   1.442330 S    
C88   H18   1.111380 S    
O21   Zn1   1.993927 S    
C26   O50   1.386354 S    
C59   C68   1.427182 S    
C36   C80   1.402826 A    
O23   C11   1.278882 A    
C122  H97   1.110672 S    
C83   H6    1.110348 S    
C7    C79   1.442347 S    
C101  H48   1.110324 S    
C128  H111  1.110532 S    
C102  H51   1.111689 S    
C89   H19   1.110843 S    
C107  H61   1.110840 S    
O13   C7    1.282297 A    
C108  H64   1.116528 S    
C37   C53   1.392783 A    
C94   H32   1.111398 S    
O52   C90   1.415462 S    
C50   C62   1.410631 A    
O2    Zn2   2.021267 S    
C123  C124  1.538993 S    
C107  H62   1.110354 S    
O7    C1    1.282337 A    
O28   C14   1.279633 A    
O26   C14   1.279627 A    
O29   C15   1.278888 A    
C106  H59   1.106477 S    
O30   C16   1.279629 A    
C35   C51   1.392799 A    
O29   Zn5   1.993927 S    
C118  H87   1.106468 S    
N5    O74   1.300408 A    
C105  H57   1.111054 S    
C72   O44   1.267603 A    
O19   Zn3   1.993929 S    
O61   C117  1.420004 S    
N9    O82   1.300416 A    
C34   C78   1.402849 A    
C125  H104  1.110354 S    
N6    O75   1.300757 A    
C103  C104  1.525505 S    
Zn11  O43   2.023012 S    
N3    O70   1.300408 A    
C121  H95   1.111813 S    
Zn9   O33   2.023011 S    
C45   C59   1.409660 A    
C25   O49   1.388747 S    
N14   O92   1.301233 A    
C68   O36   1.267615 A    
C103  H53   1.111787 S    
C115  H81   1.111759 S    
C111  C112  1.538973 S    
O32   Zn6   1.994017 S    
C124  H102  1.111402 S    
C51   N11   1.440397 S    
C70   O42   1.267601 A    
Zn10  O39   2.023009 S    
C29   C45   1.392788 A    
O18   C10   1.279629 A    
O22   Zn4   1.993978 S    
C29   C75   1.404369 A    
O23   Zn3   1.993930 S    
C115  C116  1.525504 S    
C40   O64   1.386344 S    
O60   C114  1.415450 S    
O12   C8    1.280898 A    
N8    O80   1.301239 A    
C107  H63   1.109748 S    
C126  C127  1.527000 S    
O6    Zn4   2.021260 S    
O14   C6    1.280900 A    
C50   N10   1.439016 S    
C113  H75   1.110843 S    
O63   C123  1.419987 S    
C102  C103  1.527004 S    
O58   C108  1.415407 S    
C104  H55   1.110447 S    
C46   N6    1.439021 S    
C109  H67   1.111917 S    
C117  H86   1.110418 S    
C96   H36   1.116540 S    
C106  C107  1.524051 S    
C27   O51   1.388736 S    
C100  C101  1.523978 S    
O30   Zn8   1.993978 S    
N10   O83   1.300755 A    
C30   O54   1.386346 S    
C118  C119  1.524052 S    
N4    O72   1.301241 A    
C127  C128  1.525497 S    
C55   C61   1.409657 A    
C117  C118  1.539018 S    
C119  H91   1.109765 S    
C52   N12   1.438981 S    
N13   O89   1.301389 A    
O59   C111  1.419981 S    
C92   H26   1.110972 S    
O10   C6    1.280928 A    
C87   H16   1.110407 S    
Zn11  O41   2.023011 S    
Zn12  O46   2.024931 S    
C87   H15   1.111033 S    
Zn9   O35   2.023012 S    
C15   C23   1.398245 S    
C16   C24   1.397504 S    
N1    O66   1.300407 A    
C56   N16   1.438993 S    
O31   Zn7   1.993930 S    
C99   H43   1.111031 S    
C45   N5    1.440369 S    
C84   H9    1.111692 S    
Zn10  O37   2.023014 S    
C123  H100  1.110407 S    
C112  C113  1.524060 S    
C43   C59   1.409647 A    
C116  H82   1.110867 S    
O21   C11   1.278884 A    
C81   C82   1.539006 S    
O22   C12   1.279625 A    
C35   O59   1.388771 S    
C82   H4    1.111395 S    
C90   C91   1.527004 S    
O13   Zn5   2.023092 S    
C110  H69   1.110895 S    
C98   H42   1.111230 S    
O55   C99   1.419933 S    
C28   C44   1.391567 A    
C102  H50   1.116437 S    
O3    Zn3   2.023085 S    
C58   C67   1.433145 S    
C126  H106  1.116436 S    
C20   C21   1.183707 T    
C96   C97   1.527170 S    
C124  H101  1.106473 S    
C121  C122  1.525504 S    
C39   C55   1.392797 A    
C120  H92   1.116454 S    
O28   Zn8   1.994019 S    
C72   O46   1.267583 A    
C25   C41   1.392784 A    
C100  H45   1.106465 S    
C86   H14   1.110916 S    
N12   O88   1.301237 A    
C38   O62   1.386328 S    
C48   C60   1.410663 A    
C31   C47   1.392795 A    
C57   C66   1.427156 S    
C43   N3    1.440365 S    
O9    Zn5   2.023087 S    
C93   H30   1.110408 S    
C88   H17   1.106471 S    
O11   Zn7   2.023085 S    
C111  H72   1.110415 S    
C92   H28   1.110967 S    
C127  H108  1.111365 S    
C26   C74   1.402855 A    
C38   C78   1.402845 A    
O1    C1    1.282290 A    
Zn12  O48   2.024890 S    
C87   C88   1.538945 S    
N6    O76   1.301251 A    
C91   H25   1.111811 S    
O5    C3    1.282291 A    
C66   O34   1.267585 A    
C108  C109  1.527181 S    
C93   C94   1.539016 S    
C9    C17   1.398245 S    
N2    O67   1.300758 A    
C71   O43   1.268893 A    
O53   C93   1.419992 S    
N16   O96   1.301236 A    
C12   C20   1.397504 S    
C99   C100  1.538924 S    
C39   C77   1.404392 A    
C13   C21   1.398245 S    
C55   N15   1.440370 S    
C94   H31   1.106484 S    
C46   C58   1.410631 A    
O17   Zn1   1.993931 S    
C91   C92   1.525520 S    
N16   O95   1.300758 A    
C116  H84   1.110881 S    
C81   H1    1.111048 S    
C89   H20   1.110330 S    
C89   H21   1.109745 S    
C114  C115  1.526992 S    
O14   Zn8   2.021260 S    
C98   H40   1.111299 S    
C40   C80   1.402819 A    
O2    C2    1.280890 A    
N5    O73   1.301385 A    
O51   C87   1.419951 S    
C54   N14   1.438998 S    
C2    C74   1.433728 S    
N9    O81   1.301386 A    
C30   C74   1.402875 A    
C125  H105  1.109762 S    
C60   C65   1.433190 S    
O8    C4    1.280896 A    
O4    Zn4   2.021265 S    
C85   H10   1.111383 S    
C119  H90   1.110358 S    
C120  C121  1.527051 S    
C64   C69   1.433205 S    
C53   N13   1.440391 S    
C105  C106  1.539014 S    
C69   O45   1.268900 A    
C27   C75   1.404389 A    
C86   H12   1.110903 S    
C97   H38   1.111552 S    
C95   H33   1.110839 S    
C40   C56   1.391577 A    
O16   C8    1.280905 A    
C103  H52   1.111374 S    
Zn10  O40   2.024890 S    
C32   C48   1.391586 A    
C88   C89   1.524007 S    
O25   Zn5   1.993931 S    
O6    C2    1.280942 A    
C33   C77   1.404381 A    
O27   Zn7   1.993929 S    
C122  H98   1.111074 S    
C35   C79   1.404440 A    
C83   H5    1.110839 S    
C67   O39   1.268895 A    
C4    C76   1.433689 S    
C28   O52   1.386352 S    
C101  H47   1.110843 S    
C128  H112  1.110959 S    
C65   O37   1.268910 A    
C126  H107  1.111699 S    
C94   C95   1.524038 S    
C113  H76   1.110368 S    
N11   O86   1.300423 A    
O19   C9    1.278879 A    
C3    C75   1.442308 S    
C104  H54   1.110891 S    
O24   C12   1.279635 A    
N15   O94   1.300419 A    
C48   N8    1.438984 S    
O50   C84   1.415451 S    
C106  H60   1.111401 S    
O24   Zn2   1.994017 S    
O12   Zn8   2.021265 S    
C36   C52   1.391585 A    
C49   N9    1.440370 S    
C100  H46   1.111377 S    
O15   Zn7   2.023094 S    
C118  H88   1.111407 S    
C113  H77   1.109803 S    
C112  H73   1.106460 S    
C30   C46   1.391550 A    
C17   C24   1.183707 T    
C18   C23   1.183707 T    
C125  H103  1.110841 S    
C19   C22   1.183707 T    
C68   O38   1.267594 A    
C85   C86   1.525510 S    
C37   C79   1.404407 A    
C101  H49   1.109751 S    
C110  H68   1.111271 S    
C11   C19   1.398245 S    
Zn11  O44   2.024892 S    
C121  H94   1.111400 S    
C70   O48   1.267612 A    
Zn9   O34   2.024929 S    
N11   O85   1.301392 A    
O49   C81   1.419986 S    
O20   Zn4   1.994019 S    
C41   N1    1.440374 S    
O56   C102  1.415450 S    
C41   C57   1.409654 A    
C97   C98   1.525546 S    
O20   C10   1.279631 A    
N14   O91   1.300755 A    
N1    O65   1.301385 A    
O10   Zn6   2.021267 S    
C115  H80   1.111349 S    
O15   C5    1.282311 A    
C99   H44   1.110410 S    
N8    O79   1.300759 A    
N10   O84   1.301232 A    
C84   H8    1.116438 S    
O1    Zn1   2.023087 S    
O32   C16   1.279631 A    
Zn10  O38   2.024931 S    
C47   C57   1.409635 A    
C95   H34   1.110351 S    
