data_mof_unit_60407.cif
_audit_creation_date              2013-03-05T16:45:04-0500
_audit_creation_method            fapswitch 2.2
_symmetry_space_group_name_H-M    P1
_symmetry_Int_Tables_number       1
_space_group_crystal_system       triclinic
_cell_length_a                    19.1844
_cell_length_b                    19.197282
_cell_length_c                    19.506603
_cell_angle_alpha                 90.092239
_cell_angle_beta                  94.807478
_cell_angle_gamma                 85.446693
_cell_volume                      7136.09459883

loop_
_atom_site_label
_atom_site_type_symbol
_atom_site_description
_atom_site_fract_x
_atom_site_fract_y
_atom_site_fract_z
_atom_type_partial_charge
Zn1   Zn    Zn3+2 0.558280 0.441710 0.441700 1.023746
Zn2   Zn    Zn3+2 0.558950 0.553420 0.562770 0.961808
Zn3   Zn    Zn3+2 0.446190 0.441460 0.553820 0.978649
Zn4   Zn    Zn3+2 0.436580 0.563410 0.441710 0.977080
O1    O     O_3   0.500000 0.500000 0.500000 -0.485293
O2    O     O_R   0.451210 0.659450 0.463610 -0.645955
O3    O     O_R   0.545190 0.344140 0.454780 -0.598355
O4    O     O_R   0.656710 0.532590 0.548340 -0.646167
O5    O     O_R   0.346890 0.463830 0.533270 -0.642074
O6    O     O_R   0.546320 0.532340 0.658770 -0.649747
O7    O     O_R   0.450550 0.549430 0.344370 -0.652631
O8    O     O_R   0.467400 0.453980 0.652500 -0.650881
O9    O     O_R   0.535730 0.464240 0.344360 -0.623756
O10   O     O_R   0.656240 0.454400 0.463600 -0.645408
O11   O     O_R   0.340160 0.549180 0.454800 -0.644201
O12   O     O_R   0.536860 0.652450 0.548350 -0.646548
O13   O     O_R   0.466740 0.343960 0.533260 -0.648396
C1    C     C_R   0.492678 0.689152 0.507668 0.790606
C2    C     C_R   0.506029 0.311133 0.491619 0.855137
C3    C     C_R   0.689784 0.492107 0.507560 0.783154
C4    C     C_R   0.310176 0.507627 0.492510 0.800362
C5    C     C_R   0.508520 0.491513 0.688319 0.789315
C6    C     C_R   0.492081 0.508624 0.311685 0.818631
C7    C     C_R   0.492986 0.514760 0.236986 -0.010302
C8    C     C_R   0.538211 0.468613 0.202407 -0.171819
C9    C     C_R   0.542017 0.475382 0.132126 -0.158515
C10   C     C_R   0.500033 0.527981 0.094988 0.199780
C11   C     C_R   0.455703 0.574984 0.129409 -0.171929
C12   C     C_R   0.451787 0.568184 0.200115 -0.198933
C13   C     C_R   0.541051 0.537386 0.874973 -0.156645
C14   C     C_R   0.540767 0.540203 0.803683 -0.210610
C15   C     C_R   0.484465 0.431294 0.795059 -0.196269
C16   C     C_R   0.485629 0.428036 0.866285 -0.175467
C17   C     C_R   0.512582 0.481633 0.906460 0.201121
C18   C     C_2   0.502034 0.534170 0.020267 -0.238737
C19   C     C_2   0.511458 0.477277 0.981239 -0.233501
C20   C     C_R   0.511633 0.487610 0.763313 0.002441
H1    H     H_    0.571260 0.427505 0.229687 0.182681
H2    H     H_    0.562381 0.583871 0.780175 0.159163
H3    H     H_    0.462405 0.389712 0.764874 0.160380
H4    H     H_    0.513815 0.425503 0.004187 0.158012
H5    H     H_    0.423475 0.616204 0.101417 0.133534
H6    H     H_    0.564033 0.578325 0.905315 0.134192
H7    H     H_    0.417092 0.604893 0.225885 0.162110
H8    H     H_    0.491490 0.585573 0.996672 0.152341
H9    H     H_    0.578450 0.439862 0.107102 0.139937
H10   H     H_    0.464259 0.384324 0.890021 0.135820
C21   C     C_R   0.504080 0.235192 0.484940 -0.120163
C22   C     C_R   0.496889 0.196195 0.544222 -0.275552
C23   C     C_R   0.494185 0.124185 0.540748 -0.156592
C24   C     C_R   0.498696 0.089440 0.477368 0.267737
C25   C     C_R   0.505746 0.128194 0.418146 -0.254485
C26   C     C_R   0.507797 0.200984 0.420762 0.295237
C27   C     C_R   0.462675 0.880275 0.460731 -0.161856
C28   C     C_R   0.460728 0.807857 0.457074 -0.227270
C29   C     C_R   0.494090 0.911183 0.520060 0.321433
N1    N     N_2   0.494382 0.016209 0.470528 -0.184182
N2    N     N_2   0.498605 0.984220 0.526466 -0.199371
C30   C     C_R   0.490568 0.765561 0.512128 0.003514
H11   H     H_    0.437243 0.784926 0.410813 0.164068
H12   H     H_    0.439744 0.911854 0.417408 0.153726
H13   H     H_    0.507750 0.101527 0.369268 0.182705
C31   C     C_R   0.520345 0.796704 0.571635 -0.208700
C32   C     C_R   0.521342 0.868953 0.575659 -0.196731
H14   H     H_    0.542992 0.765192 0.615150 0.164341
H15   H     H_    0.487986 0.096079 0.587642 0.159502
H16   H     H_    0.544754 0.892160 0.621812 0.143221
H17   H     H_    0.493589 0.221595 0.593631 0.172818
C33   C     C_R   0.233332 0.508124 0.487699 -0.000979
C34   C     C_R   0.200655 0.472546 0.537298 -0.220321
C35   C     C_R   0.128120 0.470680 0.532141 -0.166524
C36   C     C_R   0.086729 0.504461 0.476933 0.321399
C37   C     C_R   0.119440 0.539120 0.426991 -0.191976
C38   C     C_R   0.192212 0.541635 0.432560 -0.207282
C39   C     C_R   0.875982 0.469501 0.458223 -0.164899
C40   C     C_R   0.803186 0.468157 0.454908 -0.222658
C41   C     C_R   0.912990 0.491811 0.518751 0.320532
N3    N     N_2   0.012617 0.503494 0.469599 -0.200035
N4    N     N_2   0.986816 0.493885 0.525073 -0.203468
C42   C     C_R   0.766579 0.489775 0.511521 0.005682
H18   H     H_    0.775466 0.451532 0.407798 0.166168
H19   H     H_    0.903243 0.452858 0.413875 0.153142
H20   H     H_    0.088326 0.564755 0.383985 0.145110
H21   H     H_    0.216313 0.568811 0.393253 0.166911
C43   C     C_R   0.803793 0.510815 0.572058 -0.209573
C44   C     C_R   0.876527 0.510887 0.575771 -0.193962
H22   H     H_    0.776674 0.526990 0.616661 0.164557
H23   H     H_    0.104594 0.442215 0.570929 0.152602
H24   H     H_    0.904581 0.527128 0.622856 0.144644
H25   H     H_    0.231151 0.445963 0.580145 0.168766
N5    N     N_R   0.509730 0.239104 0.357656 0.216218
O14   O     O_R   0.545266 0.212225 0.308730 -0.388495
O15   O     O_R   0.467129 0.294512 0.344388 -0.396821

loop_
_geom_bond_atom_site_label_1
_geom_bond_atom_site_label_2
_geom_bond_distance
_ccdc_geom_bond_type
C31   H14   1.083222 S    
C22   H17   1.083746 S    
C28   C30   1.402236 A    
C37   C38   1.395868 A    
C18   C19   1.339475 D    
C43   C44   1.391275 A    
O6    C5    1.278346 A    
C9    C10   1.403046 A    
O4    C3    1.282060 A    
Zn1   O1    1.950882 S    
C11   C12   1.394433 A    
C13   C14   1.391294 A    
O8    C5    1.275110 A    
O9    C6    1.277667 A    
C11   H5    1.083388 S    
C7    C12   1.404351 A    
C36   N3    1.418597 S    
Zn3   O8    1.952276 S    
C29   N2    1.416307 S    
C26   N5    1.437733 S    
C6    C7    1.463727 S    
C29   C32   1.395473 A    
C34   C35   1.390046 A    
C24   N1    1.420222 S    
Zn2   O12   1.930480 S    
C43   H22   1.083244 S    
C28   H11   1.083123 S    
C19   H4    1.086836 S    
C34   H25   1.083182 S    
C16   C17   1.397913 A    
C41   N4    1.415043 S    
C21   C26   1.417206 A    
O2    C1    1.285486 A    
C27   C29   1.411479 A    
C3    C42   1.465927 S    
C24   C25   1.396885 A    
C32   H16   1.083248 S    
O10   C3    1.285648 A    
C7    C8    1.402386 A    
Zn4   O2    1.928744 S    
N5    O14   1.301326 A    
C13   C17   1.404374 A    
C2    C21   1.466625 S    
Zn4   O1    1.947408 S    
C10   C18   1.466525 S    
C8    C9    1.385858 A    
C5    C20   1.460887 S    
C31   C32   1.390630 A    
C4    C33   1.468582 S    
C39   C40   1.394913 A    
C42   C43   1.403672 A    
Zn3   O5    1.927911 S    
C8    H1    1.083189 S    
N5    O15   1.301450 A    
C39   C41   1.409852 A    
C23   C24   1.409616 A    
C33   C38   1.404450 A    
C15   C20   1.403447 A    
Zn4   O7    1.954847 S    
C23   H15   1.082606 S    
C21   C22   1.400932 A    
C41   C44   1.396070 A    
O3    C2    1.284469 A    
C12   H7    1.082973 S    
C16   H10   1.083665 S    
C13   H6    1.082647 S    
Zn2   O1    1.943679 S    
Zn1   O9    1.953153 S    
Zn2   O6    1.955322 S    
C25   C26   1.401767 A    
C27   C28   1.395247 A    
Zn1   O3    1.929650 S    
Zn2   O4    1.930172 S    
C40   C42   1.402564 A    
C38   H21   1.082998 S    
C36   C37   1.398718 A    
Zn3   O1    1.949474 S    
C44   H24   1.083196 S    
C40   H18   1.083156 S    
C39   H19   1.082761 S    
C27   H12   1.082693 S    
C30   C31   1.404287 A    
C15   C16   1.389100 A    
Zn4   O11   1.929002 S    
C35   C36   1.409959 A    
C25   H13   1.083544 S    
N3    N4    1.246980 D    
O5    C4    1.284302 A    
N1    N2    1.246497 D    
O7    C6    1.280401 A    
O13   C2    1.284754 A    
C14   H2    1.083182 S    
Zn3   O13   1.930437 S    
C17   C19   1.463268 S    
C15   H3    1.083227 S    
C33   C34   1.402621 A    
C9    H9    1.082690 S    
C35   H23   1.082823 S    
C14   C20   1.401845 A    
C1    C30   1.466817 S    
O11   C4    1.286076 A    
O12   C1    1.280178 A    
C22   C23   1.388808 A    
C10   C11   1.400070 A    
Zn1   O10   1.926503 S    
C37   H20   1.083040 S    
C18   H8    1.086591 S    
