data_mof_unit_53119.cif
_audit_creation_date              2012-10-26T19:49:57-0400
_audit_creation_method            fapswitch 2.2
_symmetry_space_group_name_H-M    P1
_symmetry_Int_Tables_number       1
_space_group_crystal_system       triclinic
_cell_length_a                    15.209699
_cell_length_b                    13.831381
_cell_length_c                    10.856206
_cell_angle_alpha                 88.32121
_cell_angle_beta                  90.896288
_cell_angle_gamma                 90.238917
_cell_volume                      2282.55711896

loop_
_atom_site_label
_atom_site_type_symbol
_atom_type_description
_atom_site_fract_x
_atom_site_fract_y
_atom_site_fract_z
_atom_type_partial_charge
C1    C     C_R   0.329786 0.500261 0.498266 0.631143
C2    C     C_R   0.951824 0.488660 0.491828 0.056095
C3    C     C_R   0.429026 0.106036 0.549280 0.215930
C4    C     C_R   0.570331 0.109650 0.446130 0.202178
C5    C     C_R   0.431423 0.207711 0.548805 0.167101
C6    C     C_R   0.567808 0.211256 0.448158 0.104831
C7    C     C_R   0.499848 0.054716 0.497677 -0.047699
C8    C     C_R   0.472055 0.894191 0.392893 0.180778
C9    C     C_R   0.529169 0.890709 0.603961 0.208568
C10   C     C_R   0.473418 0.792458 0.396961 0.111265
C11   C     C_R   0.527845 0.789127 0.601627 0.139700
C12   C     C_R   0.670395 0.500729 0.498000 0.534740
C13   C     C_R   0.500341 0.945583 0.498137 -0.059750
C14   C     C_R   0.499922 0.501234 0.262496 0.585872
C15   C     C_R   0.500678 0.497824 0.738281 0.559786
C16   C     C_R   0.638425 0.599331 0.127691 -0.080360
C17   C     C_R   0.641029 0.592933 0.871899 -0.069827
C18   C     C_R   0.705467 0.645691 0.062744 -0.086266
C19   C     C_R   0.706790 0.642504 0.935093 -0.072226
C20   C     C_R   0.571041 0.547134 0.935451 -0.023519
C21   C     C_R   0.569764 0.550235 0.065200 -0.029309
C22   C     C_R   0.500725 0.502979 0.128883 -0.036517
C23   C     C_R   0.233167 0.500017 0.494075 -0.002505
C24   C     C_R   0.506895 0.491581 0.873119 -0.039393
C25   C     C_R   0.437092 0.447765 0.065878 0.212915
C26   C     C_R   0.449069 0.429931 0.940980 0.205519
C27   C     C_R   0.091781 0.566964 0.433612 -0.142426
C28   C     C_R   0.910583 0.575060 0.521360 -0.147988
C29   C     C_R   0.182808 0.577178 0.440499 0.257545
C30   C     C_R   0.819617 0.585098 0.514633 0.236281
C31   C     C_R   0.767285 0.501545 0.492800 -0.037754
C32   C     C_R   0.189952 0.418536 0.544895 -0.134086
C33   C     C_R   0.809065 0.414552 0.464101 -0.162060
C34   C     C_R   0.097991 0.413347 0.547435 0.302672
C35   C     C_R   0.900870 0.408424 0.458640 0.299485
C36   C     C_R   0.048746 0.487489 0.488724 0.053809
Cu1   Cu    Cu3+1 0.500000 0.596430 0.500000 1.073438
Cu2   Cu    Cu3+1 0.500000 0.403570 0.500000 1.064125
H1    H     H_    0.452452 0.754332 0.316222 0.211202
H2    H     H_    0.770110 0.351477 0.441974 0.133870
H3    H     H_    0.377406 0.246048 0.588136 0.202975
H4    H     H_    0.621002 0.252469 0.407317 0.157799
H5    H     H_    0.203789 0.378353 0.083961 0.381723
H6    H     H_    0.406737 0.213015 0.021271 0.365060
H7    H     H_    0.442074 0.009980 0.293382 0.354924
H8    H     H_    0.559975 0.003235 0.701206 0.358595
H9    H     H_    0.286211 0.813010 0.475375 0.368455
H10   H     H_    0.690366 0.796541 0.416035 0.364079
H11   H     H_    0.099860 0.293894 0.647081 0.353392
H12   H     H_    0.550432 0.748646 0.682502 0.192815
H13   H     H_    0.896173 0.277389 0.397703 0.342588
H14   H     H_    0.360221 0.990347 0.592124 0.350202
H15   H     H_    0.638617 0.997116 0.399776 0.349856
H16   H     H_    0.642383 0.601376 0.226946 0.164603
H17   H     H_    0.647865 0.587156 0.773668 0.164563
H18   H     H_    0.757403 0.682837 0.111897 0.166188
H19   H     H_    0.760154 0.676610 0.885117 0.180737
H20   H     H_    0.053015 0.623446 0.388377 0.174669
H21   H     H_    0.950642 0.636561 0.546203 0.177106
H22   H     H_    0.227907 0.360049 0.587136 0.166337
N1    N     N_R   0.500000 0.258690 0.500000 -0.294885
N2    N     N_R   0.500000 0.741330 0.500000 -0.296935
O1    O     O_R   0.371460 0.581430 0.500010 -0.421111
O2    O     O_2   0.310473 0.490591 0.225270 -0.269043
O3    O     O_3   0.255030 0.400448 0.035312 -0.420064
O4    O     O_2   0.334445 0.352271 0.780769 -0.260024
O5    O     O_2   0.474133 0.267440 0.815026 -0.293289
O6    O     O_3   0.356744 0.246782 0.979497 -0.393001
O7    O     O_3   0.442512 0.939057 0.284687 -0.643964
O8    O     O_3   0.559289 0.931986 0.711166 -0.644009
O9    O     O_2   0.297775 0.674177 0.294239 -0.223849
O10   O     O_2   0.156960 0.752271 0.328268 -0.240161
O11   O     O_3   0.271014 0.747538 0.508031 -0.497081
O12   O     O_R   0.628540 0.581430 0.499990 -0.440854
O13   O     O_2   0.723361 0.711746 0.638528 -0.318108
O14   O     O_2   0.852109 0.776827 0.533021 -0.231854
O15   O     O_3   0.716258 0.732684 0.399593 -0.520225
O16   O     O_3   0.055507 0.338997 0.610386 -0.606806
O17   O     O_3   0.941531 0.326368 0.417972 -0.610317
O18   O     O_3   0.356448 0.061137 0.600789 -0.639202
O19   O     O_3   0.642674 0.068410 0.393208 -0.664993
O20   O     O_R   0.371470 0.418560 0.500010 -0.496972
O21   O     O_R   0.628530 0.418560 0.499990 -0.543558
O22   O     O_R   0.500000 0.581450 0.319650 -0.511947
O23   O     O_R   0.500000 0.581450 0.680350 -0.533543
O24   O     O_R   0.500010 0.418580 0.319650 -0.477656
O25   O     O_R   0.499990 0.418580 0.680350 -0.435082
O26   O     O_2   0.349949 0.320452 0.212487 -0.261214
S1    S     S_3+6 0.336987 0.413477 0.139476 0.082921
S2    S     S_3+6 0.402885 0.323125 0.875706 0.086748
S3    S     S_3+6 0.227529 0.689747 0.387088 0.076919
S4    S     S_3+6 0.778084 0.704739 0.525412 0.029334

loop_
_geom_bond_atom_site_label_1
_geom_bond_atom_site_label_2
_ccdc_geom_bond_type
C2    C35   A    
Cu1   O12   S    
O15   S4    S    
C8    C13   A    
C12   O12   A    
Cu2   O21   S    
C27   C29   A    
C14   O22   A    
C11   N2    A    
Cu1   N2    S    
O4    S2    D    
C19   H19   S    
O3    S1    S    
C8    O7    S    
C16   C21   A    
Cu2   O24   S    
C23   C29   A    
C6    N1    A    
Cu1   O23   S    
C24   C26   A    
C3    C7    A    
C30   C31   A    
C17   C20   A    
H11   O16   S    
H15   O19   S    
C18   C19   A    
C9    C13   A    
C17   C19   A    
C4    O19   S    
C20   C24   A    
C22   C25   A    
O6    S2    S    
C31   C33   A    
Cu1   O22   S    
C17   H17   S    
H9    O11   S    
C18   H18   S    
C15   O23   A    
Cu2   N1    S    
C21   C22   A    
Cu2   O20   S    
C10   N2    A    
O2    S1    D    
C4    C7    A    
C3    O18   S    
C1    O1    A    
Cu1   O1    S    
H13   O17   S    
C33   H2    S    
H7    O7    S    
C9    O8    S    
O11   S3    S    
C30   S4    S    
O10   S3    D    
C1    O20   A    
O5    S2    D    
C12   O21   A    
C10   H1    S    
C32   C34   A    
H10   O15   S    
Cu1   Cu2   S    
H5    O3    S    
C5    N1    A    
C16   C18   A    
O26   S1    D    
C9    C11   A    
C14   O24   A    
O13   S4    D    
O14   S4    D    
C4    C6    A    
C15   C24   S    
C1    C23   S    
C12   C31   S    
H6    O6    S    
C32   H22   S    
C29   S3    S    
C15   O25   A    
C28   H21   S    
C2    C36   S    
C5    H3    S    
C3    C5    A    
C27   H20   S    
C27   C36   A    
C26   S2    S    
C25   S1    S    
Cu2   O25   S    
C23   C32   A    
C14   C22   S    
C28   C30   A    
C25   C26   A    
C11   H12   S    
C34   O16   S    
C35   O17   S    
C33   C35   A    
C34   C36   A    
C16   H16   S    
H8    O8    S    
C7    C13   S    
O9    S3    D    
C20   C21   A    
C8    C10   A    
C6    H4    S    
C2    C28   A    
H14   O18   S    
