data_mof_unit_62774.cif
_audit_creation_date              2013-03-05T16:15:29-0500
_audit_creation_method            fapswitch 2.2
_symmetry_space_group_name_H-M    P1
_symmetry_Int_Tables_number       1
_space_group_crystal_system       triclinic
_cell_length_a                    30.294461
_cell_length_b                    30.294461
_cell_length_c                    18.236019
_cell_angle_alpha                 89.999947
_cell_angle_beta                  90.000029
_cell_angle_gamma                 90.124153
_cell_volume                      16736.1467878

loop_
_atom_site_label
_atom_site_type_symbol
_atom_site_description
_atom_site_fract_x
_atom_site_fract_y
_atom_site_fract_z
_atom_type_partial_charge
O1    O     O_R   0.434530 0.036970 0.500000 -0.588006
O2    O     O_R   0.963030 0.434530 0.500000 -0.584797
O3    O     O_R   0.565470 0.963030 0.500000 -0.588006
O4    O     O_R   0.036970 0.565470 0.500000 -0.584797
O5    O     O_R   0.565470 0.036970 0.500000 -0.584796
O6    O     O_R   0.036970 0.434530 0.500000 -0.588007
O7    O     O_R   0.434530 0.963030 0.500000 -0.584796
O8    O     O_R   0.963030 0.565470 0.500000 -0.588007
O9    O     O_R   0.934530 0.536970 0.000000 -0.588006
O10   O     O_R   0.463030 0.934530 0.000000 -0.584797
O11   O     O_R   0.065470 0.463030 0.000000 -0.588006
O12   O     O_R   0.536970 0.065470 0.000000 -0.584796
O13   O     O_R   0.065470 0.536970 0.000000 -0.584796
O14   O     O_R   0.536970 0.934530 0.000000 -0.588006
O15   O     O_R   0.934530 0.463030 0.000000 -0.584796
O16   O     O_R   0.463030 0.065470 0.000000 -0.588007
C1    C     C_R   0.226416 0.000322 0.498078 0.000169
C2    C     C_R   0.000323 0.226416 0.501922 0.000169
C3    C     C_R   0.773584 0.999677 0.498078 0.000169
C4    C     C_R   0.999677 0.773584 0.501922 0.000169
C5    C     C_R   0.726416 0.500322 0.998078 0.000169
C6    C     C_R   0.500323 0.726416 0.001922 0.000169
C7    C     C_R   0.273584 0.499677 0.998078 0.000169
C8    C     C_R   0.499677 0.273584 0.001923 0.000169
C9    C     C_R   0.413961 0.999949 0.499977 0.953255
C10   C     C_R   0.999949 0.413961 0.500023 0.953260
C11   C     C_R   0.586039 0.000051 0.499977 0.953260
C12   C     C_R   0.000051 0.586039 0.500023 0.953259
C13   C     C_R   0.913961 0.499949 0.999977 0.953258
C14   C     C_R   0.499949 0.913961 0.000023 0.953257
C15   C     C_R   0.086039 0.500051 0.999977 0.953257
C16   C     C_R   0.500051 0.086039 0.000022 0.953267
O17   O     O_R   0.500010 0.036970 0.392670 -0.592271
O18   O     O_R   0.963030 0.500010 0.392670 -0.591927
O19   O     O_R   0.499990 0.963030 0.392670 -0.592271
O20   O     O_R   0.036970 0.499990 0.392670 -0.591928
O21   O     O_R   0.499990 0.036970 0.607330 -0.591927
O22   O     O_R   0.036970 0.500010 0.607330 -0.592271
O23   O     O_R   0.500010 0.963030 0.607330 -0.591926
O24   O     O_R   0.963030 0.499990 0.607330 -0.592271
O25   O     O_R   0.000010 0.536970 0.892670 -0.592271
O26   O     O_R   0.463030 0.000010 0.892670 -0.591925
O27   O     O_R   0.999990 0.463030 0.892670 -0.592270
O28   O     O_R   0.536970 0.999990 0.892670 -0.591929
O29   O     O_R   0.999990 0.536970 0.107330 -0.591927
O30   O     O_R   0.536970 0.000010 0.107330 -0.592271
O31   O     O_R   0.000010 0.463030 0.107330 -0.591927
O32   O     O_R   0.463030 0.999990 0.107330 -0.592271
C17   C     C_R   0.500000 0.000000 0.358982 0.952485
C18   C     C_R   0.000000 0.500000 0.358982 0.956377
C19   C     C_R   0.500000 1.000000 0.641018 0.956377
C20   C     C_R   0.000000 0.500000 0.641018 0.952490
C21   C     C_R   1.000000 0.500000 0.858981 0.952488
C22   C     C_R   0.500000 1.000000 0.858981 0.956385
C23   C     C_R   1.000000 0.500000 0.141018 0.956375
C24   C     C_R   0.500000 1.000000 0.141018 0.952488
Zn1   Zn    Zn3+2 0.500000 0.049360 0.500000 1.147886
Zn2   Zn    Zn3+2 0.950640 0.500000 0.500000 1.147884
Zn3   Zn    Zn3+2 0.500000 0.950640 0.500000 1.147885
Zn4   Zn    Zn3+2 0.049360 0.500000 0.500000 1.147884
Zn5   Zn    Zn3+2 1.000000 0.549360 0.000000 1.147885
Zn6   Zn    Zn3+2 0.450640 0.000000 0.000000 1.147883
Zn7   Zn    Zn3+2 1.000000 0.450640 0.000000 1.147885
Zn8   Zn    Zn3+2 0.549360 0.000000 0.000000 1.147885
O33   O     O_R   0.999990 0.934550 0.439420 -0.577476
O34   O     O_R   0.065450 0.999990 0.439420 -0.587975
O35   O     O_R   0.000010 0.065450 0.439420 -0.577476
O36   O     O_R   0.934550 0.000010 0.439420 -0.587975
O37   O     O_R   0.000010 0.934550 0.560580 -0.587975
O38   O     O_R   0.934550 0.999990 0.560580 -0.577476
O39   O     O_R   0.999990 0.065450 0.560580 -0.587975
O40   O     O_R   0.065450 0.000010 0.560580 -0.577476
O41   O     O_R   0.499990 0.434550 0.939420 -0.577476
O42   O     O_R   0.565450 0.499990 0.939420 -0.587975
O43   O     O_R   0.500010 0.565450 0.939420 -0.577476
O44   O     O_R   0.434550 0.500010 0.939420 -0.587975
O45   O     O_R   0.500010 0.434550 0.060580 -0.587975
O46   O     O_R   0.434550 0.499990 0.060580 -0.577476
O47   O     O_R   0.499990 0.565450 0.060580 -0.587975
O48   O     O_R   0.565450 0.500010 0.060580 -0.577476
C25   C     C_R   0.999826 0.913637 0.500020 1.019317
C26   C     C_R   0.086363 0.000174 0.499980 1.019317
C27   C     C_R   0.000174 0.086363 0.500020 1.019317
C28   C     C_R   0.913637 0.999826 0.499980 1.019318
C29   C     C_R   0.499826 0.413637 0.000020 1.019317
C30   C     C_R   0.586363 0.500174 0.999980 1.019317
C31   C     C_R   0.500174 0.586363 0.000020 1.019317
C32   C     C_R   0.413637 0.499826 0.999980 1.019317
C33   C     C_1   0.500000 0.000000 0.282431 -0.049885
C34   C     C_1   1.000000 0.500000 0.282431 -0.049762
C35   C     C_1   0.500000 1.000000 0.717569 -0.049764
C36   C     C_1   1.000000 0.500000 0.717569 -0.049883
C37   C     C_1   1.000000 0.500000 0.782431 -0.049884
C38   C     C_1   0.500000 1.000000 0.782431 -0.049760
C39   C     C_1   1.000000 0.500000 0.217569 -0.049763
C40   C     C_1   0.500000 0.000000 0.217569 -0.049884
C41   C     C_R   0.297071 0.012335 0.561958 -0.159940
C42   C     C_R   0.987224 0.297503 0.564197 -0.208572
C43   C     C_R   0.702930 0.987665 0.561958 -0.159941
C44   C     C_R   0.012776 0.702496 0.564197 -0.208572
C45   C     C_R   0.702496 0.012776 0.435803 -0.208570
C46   C     C_R   0.012334 0.297071 0.438042 -0.159940
C47   C     C_R   0.297503 0.987223 0.435803 -0.208572
C48   C     C_R   0.987666 0.702929 0.438042 -0.159940
C49   C     C_R   0.797071 0.512335 0.061958 -0.159940
C50   C     C_R   0.487224 0.797503 0.064197 -0.208572
C51   C     C_R   0.202929 0.487665 0.061958 -0.159940
C52   C     C_R   0.512776 0.202496 0.064197 -0.208568
C53   C     C_R   0.202496 0.512776 0.935803 -0.208571
C54   C     C_R   0.512335 0.797071 0.938042 -0.159940
C55   C     C_R   0.797503 0.487223 0.935803 -0.208572
C56   C     C_R   0.487665 0.202930 0.938042 -0.159943
H1    H     H_    0.278704 0.022199 0.610252 0.197813
H2    H     H_    0.976623 0.279553 0.612514 0.195437
H3    H     H_    0.721296 0.977801 0.610252 0.197814
H4    H     H_    0.023377 0.720447 0.612514 0.195437
H5    H     H_    0.720447 0.023378 0.387487 0.195436
H6    H     H_    0.022197 0.278704 0.389747 0.197813
H7    H     H_    0.279553 0.976621 0.387487 0.195437
H8    H     H_    0.977803 0.721296 0.389747 0.197812
H9    H     H_    0.778704 0.522198 0.110252 0.197812
H10   H     H_    0.476622 0.779553 0.112513 0.195437
H11   H     H_    0.221296 0.477802 0.110252 0.197813
H12   H     H_    0.523377 0.220446 0.112514 0.195436
H13   H     H_    0.220447 0.523378 0.887487 0.195437
H14   H     H_    0.522198 0.778704 0.889748 0.197813
H15   H     H_    0.779553 0.476622 0.887487 0.195437
H16   H     H_    0.477802 0.221297 0.889748 0.197816
C57   C     C_R   0.342982 0.012049 0.563732 0.257465
C58   C     C_R   0.987364 0.343419 0.564839 0.268092
C59   C     C_R   0.657018 0.987951 0.563732 0.257464
C60   C     C_R   0.012636 0.656581 0.564839 0.268093
C61   C     C_R   0.656581 0.012637 0.435162 0.268092
C62   C     C_R   0.012048 0.342982 0.436268 0.257464
C63   C     C_R   0.343419 0.987363 0.435162 0.268092
C64   C     C_R   0.987952 0.657018 0.436268 0.257465
C65   C     C_R   0.842982 0.512049 0.063732 0.257465
C66   C     C_R   0.487363 0.843419 0.064838 0.268092
C67   C     C_R   0.157018 0.487951 0.063732 0.257464
C68   C     C_R   0.512636 0.156581 0.064838 0.268091
C69   C     C_R   0.156581 0.512637 0.935162 0.268092
C70   C     C_R   0.512049 0.842982 0.936268 0.257464
C71   C     C_R   0.843419 0.487363 0.935161 0.268093
C72   C     C_R   0.487951 0.157018 0.936267 0.257461
C73   C     C_R   0.366290 0.999817 0.499630 -0.266209
C74   C     C_R   0.999818 0.366290 0.500370 -0.266208
C75   C     C_R   0.633710 0.000182 0.499630 -0.266209
C76   C     C_R   0.000182 0.633710 0.500370 -0.266209
C77   C     C_R   0.866290 0.499817 0.999630 -0.266209
C78   C     C_R   0.499818 0.866290 0.000370 -0.266208
C79   C     C_R   0.133710 0.500182 0.999630 -0.266209
C80   C     C_R   0.500182 0.133710 0.000369 -0.266211
Zn9   Zn    Zn3+2 0.000000 0.000000 0.419090 1.211776
Zn10  Zn    Zn3+2 1.000000 0.000000 0.580910 1.211776
Zn11  Zn    Zn3+2 0.500000 0.500000 0.919090 1.211776
Zn12  Zn    Zn3+2 0.500000 0.500000 0.080910 1.211776
C81   C     C_R   0.274539 0.000218 0.498368 0.028829
C82   C     C_R   0.000218 0.274539 0.501632 0.028830
C83   C     C_R   0.725461 0.999782 0.498368 0.028829
C84   C     C_R   0.999782 0.725461 0.501632 0.028829
C85   C     C_R   0.774539 0.500218 0.998368 0.028829
C86   C     C_R   0.500218 0.774539 0.001631 0.028829
C87   C     C_R   0.225461 0.499782 0.998368 0.028829
C88   C     C_R   0.499782 0.225461 0.001632 0.028828
C89   C     C_R   0.203300 0.028926 0.450801 0.002884
C90   C     C_R   0.972444 0.203760 0.453152 0.016453
C91   C     C_R   0.796700 0.971074 0.450801 0.002884
C92   C     C_R   0.027556 0.796240 0.453152 0.016453
C93   C     C_R   0.796240 0.027555 0.546848 0.016453
C94   C     C_R   0.028927 0.203300 0.549197 0.002884
C95   C     C_R   0.203760 0.972445 0.546849 0.016453
C96   C     C_R   0.971073 0.796700 0.549198 0.002884
C97   C     C_R   0.703300 0.528926 0.950802 0.002884
C98   C     C_R   0.472444 0.703760 0.953152 0.016453
C99   C     C_R   0.296700 0.471074 0.950802 0.002884
C100  C     C_R   0.527555 0.296240 0.953153 0.016453
C101  C     C_R   0.296240 0.527555 0.046848 0.016453
C102  C     C_R   0.528927 0.703300 0.049198 0.002884
C103  C     C_R   0.703760 0.472444 0.046848 0.016453
C104  C     C_R   0.471073 0.296700 0.049199 0.002884
C105  C     C_R   0.157219 0.028453 0.450490 0.299490
C106  C     C_R   0.973108 0.157576 0.451106 0.248166
C107  C     C_R   0.842781 0.971546 0.450490 0.299490
C108  C     C_R   0.026892 0.842424 0.451107 0.248165
C109  C     C_R   0.842424 0.026892 0.548894 0.248166
C110  C     C_R   0.028454 0.157219 0.549509 0.299490
C111  C     C_R   0.157576 0.973108 0.548894 0.248166
C112  C     C_R   0.971546 0.842781 0.549509 0.299490
C113  C     C_R   0.657219 0.528454 0.950491 0.299490
C114  C     C_R   0.473108 0.657576 0.951106 0.248165
C115  C     C_R   0.342781 0.471546 0.950491 0.299490
C116  C     C_R   0.526892 0.342424 0.951107 0.248165
C117  C     C_R   0.342424 0.526892 0.048894 0.248166
C118  C     C_R   0.528454 0.657219 0.049509 0.299490
C119  C     C_R   0.657576 0.473108 0.048894 0.248166
C120  C     C_R   0.471546 0.342781 0.049509 0.299491
C121  C     C_R   0.134373 0.000646 0.499856 -0.299293
C122  C     C_R   0.000646 0.134373 0.500144 -0.299294
C123  C     C_R   0.865627 0.999354 0.499856 -0.299293
C124  C     C_R   0.999354 0.865627 0.500144 -0.299294
C125  C     C_R   0.634373 0.500646 0.999856 -0.299293
C126  C     C_R   0.500646 0.634373 0.000144 -0.299293
C127  C     C_R   0.365627 0.499354 0.999856 -0.299293
C128  C     C_R   0.499354 0.365627 0.000144 -0.299293
N1    N     N_R   0.364987 0.022790 0.631433 0.204152
O49   O     O_R   0.398426 0.049762 0.632288 -0.347131
O50   O     O_R   0.347615 0.010761 0.693591 -0.339782
N2    N     N_R   0.976171 0.365922 0.631809 0.203624
O51   O     O_R   0.948289 0.398490 0.631588 -0.341419
O52   O     O_R   0.988538 0.349549 0.694489 -0.346435
N3    N     N_R   0.635013 0.977211 0.631434 0.204154
O53   O     O_R   0.601572 0.950242 0.632290 -0.347138
O54   O     O_R   0.652387 0.989238 0.693592 -0.339781
N4    N     N_R   0.023829 0.634077 0.631809 0.203624
O55   O     O_R   0.051712 0.601510 0.631588 -0.341419
O56   O     O_R   0.011462 0.650450 0.694489 -0.346434
N5    N     N_R   0.634077 0.023830 0.368192 0.203623
O57   O     O_R   0.601510 0.051714 0.368413 -0.341416
O58   O     O_R   0.650449 0.011463 0.305512 -0.346436
N6    N     N_R   0.022788 0.364987 0.368566 0.204152
O59   O     O_R   0.049760 0.398426 0.367710 -0.347134
O60   O     O_R   0.010759 0.347615 0.306408 -0.339782
N7    N     N_R   0.365922 0.976169 0.368192 0.203624
O61   O     O_R   0.398489 0.948286 0.368414 -0.341415
O62   O     O_R   0.349550 0.988536 0.305512 -0.346435
N8    N     N_R   0.977212 0.635013 0.368566 0.204152
O63   O     O_R   0.950240 0.601574 0.367710 -0.347134
O64   O     O_R   0.989242 0.652385 0.306409 -0.339782
N9    N     N_R   0.864987 0.522789 0.131433 0.204152
O65   O     O_R   0.898426 0.549761 0.132289 -0.347132
O66   O     O_R   0.847615 0.510760 0.193591 -0.339782
N10   N     N_R   0.476170 0.865922 0.131809 0.203624
O67   O     O_R   0.448288 0.898490 0.131587 -0.341417
O68   O     O_R   0.488537 0.849549 0.194489 -0.346434
N11   N     N_R   0.135013 0.477210 0.131433 0.204152
O69   O     O_R   0.101574 0.450239 0.132289 -0.347132
O70   O     O_R   0.152385 0.489239 0.193591 -0.339781
N12   N     N_R   0.523829 0.134077 0.131808 0.203622
O71   O     O_R   0.551713 0.101511 0.131587 -0.341416
O72   O     O_R   0.511461 0.150449 0.194488 -0.346436
N13   N     N_R   0.134077 0.523830 0.868191 0.203624
O73   O     O_R   0.101510 0.551713 0.868413 -0.341417
O74   O     O_R   0.150450 0.511463 0.805511 -0.346435
N14   N     N_R   0.522789 0.864987 0.868566 0.204152
O75   O     O_R   0.549761 0.898426 0.867711 -0.347133
O76   O     O_R   0.510760 0.847615 0.806409 -0.339782
N15   N     N_R   0.865922 0.476170 0.868191 0.203625
O77   O     O_R   0.898490 0.448288 0.868412 -0.341419
O78   O     O_R   0.849549 0.488537 0.805511 -0.346434
N16   N     N_R   0.477212 0.135014 0.868564 0.204158
O79   O     O_R   0.450248 0.101569 0.867707 -0.347150
O80   O     O_R   0.489237 0.152391 0.806407 -0.339778
N17   N     N_3   0.225989 0.060695 0.405982 -0.359356
H17   H     H_    0.247435 0.079087 0.438987 0.215161
H18   H     H_    0.244258 0.044217 0.365973 0.223534
N18   N     N_3   0.942311 0.228144 0.407895 -0.404932
H19   H     H_    0.910301 0.216501 0.417383 0.239640
H20   H     H_    0.950373 0.222757 0.352929 0.249791
N19   N     N_3   0.774012 0.939305 0.405982 -0.359357
H21   H     H_    0.752565 0.920913 0.438987 0.215161
H22   H     H_    0.755742 0.955783 0.365973 0.223534
N20   N     N_3   0.057689 0.771856 0.407896 -0.404932
H23   H     H_    0.089699 0.783499 0.417383 0.239640
H24   H     H_    0.049627 0.777243 0.352929 0.249791
N21   N     N_3   0.771856 0.057688 0.592105 -0.404932
H25   H     H_    0.783499 0.089698 0.582619 0.239640
H26   H     H_    0.777243 0.049626 0.647072 0.249791
N22   N     N_3   0.060696 0.225988 0.594016 -0.359356
H27   H     H_    0.079088 0.247435 0.561011 0.215161
H28   H     H_    0.044219 0.244258 0.634025 0.223534
N23   N     N_3   0.228144 0.942312 0.592106 -0.404932
H29   H     H_    0.216501 0.910302 0.582620 0.239640
H30   H     H_    0.222757 0.950375 0.647073 0.249791
N24   N     N_3   0.939304 0.774011 0.594016 -0.359356
H31   H     H_    0.920912 0.752565 0.561011 0.215161
H32   H     H_    0.955782 0.755742 0.634025 0.223534
N25   N     N_3   0.725989 0.560695 0.905983 -0.359356
H33   H     H_    0.747435 0.579087 0.938988 0.215161
H34   H     H_    0.744258 0.544218 0.865974 0.223534
N26   N     N_3   0.442312 0.728144 0.907895 -0.404932
H35   H     H_    0.410302 0.716501 0.917381 0.239640
H36   H     H_    0.450374 0.722757 0.852928 0.249791
N27   N     N_3   0.274011 0.439305 0.905983 -0.359356
H37   H     H_    0.252565 0.420913 0.938987 0.215161
H38   H     H_    0.255742 0.455783 0.865974 0.223534
N28   N     N_3   0.557689 0.271855 0.907896 -0.404932
H39   H     H_    0.589698 0.283499 0.917383 0.239640
H40   H     H_    0.549626 0.277243 0.852930 0.249791
N29   N     N_3   0.271856 0.557688 0.092105 -0.404932
H41   H     H_    0.283499 0.589698 0.082619 0.239640
H42   H     H_    0.277243 0.549626 0.147072 0.249791
N30   N     N_3   0.560695 0.725988 0.094017 -0.359357
H43   H     H_    0.579087 0.747435 0.061012 0.215161
H44   H     H_    0.544218 0.744258 0.134026 0.223534
N31   N     N_3   0.728144 0.442312 0.092106 -0.404932
H45   H     H_    0.716501 0.410302 0.082619 0.239640
H46   H     H_    0.722757 0.450374 0.147072 0.249791
N32   N     N_3   0.439304 0.274012 0.094017 -0.359356
H47   H     H_    0.420912 0.252565 0.061013 0.215161
H48   H     H_    0.455782 0.255742 0.134027 0.223533
N33   N     N_R   0.133956 0.057214 0.401075 0.242979
O81   O     O_R   0.104545 0.084665 0.425764 -0.351645
O82   O     O_R   0.144484 0.058341 0.331922 -0.305241
N34   N     N_R   0.944500 0.134490 0.401235 0.218141
O83   O     O_R   0.914405 0.107668 0.425946 -0.351589
O84   O     O_R   0.948480 0.140255 0.330862 -0.338779
N35   N     N_R   0.866044 0.942786 0.401075 0.242980
O85   O     O_R   0.895455 0.915335 0.425764 -0.351646
O86   O     O_R   0.855516 0.941659 0.331922 -0.305241
N36   N     N_R   0.055500 0.865510 0.401236 0.218141
O87   O     O_R   0.085595 0.892332 0.425947 -0.351589
O88   O     O_R   0.051521 0.859745 0.330862 -0.338779
N37   N     N_R   0.865510 0.055499 0.598765 0.218141
O89   O     O_R   0.892332 0.085595 0.574055 -0.351588
O90   O     O_R   0.859745 0.051519 0.669139 -0.338779
N38   N     N_R   0.057215 0.133956 0.598923 0.242979
O91   O     O_R   0.084666 0.104544 0.574234 -0.351648
O92   O     O_R   0.058343 0.144484 0.668076 -0.305241
N39   N     N_R   0.134490 0.944501 0.598766 0.218141
O93   O     O_R   0.107668 0.914405 0.574056 -0.351587
O94   O     O_R   0.140255 0.948481 0.669139 -0.338779
N40   N     N_R   0.942785 0.866043 0.598924 0.242979
O95   O     O_R   0.915335 0.895455 0.574234 -0.351647
O96   O     O_R   0.941657 0.855516 0.668076 -0.305241
N41   N     N_R   0.633956 0.557214 0.901076 0.242979
O97   O     O_R   0.604545 0.584665 0.925764 -0.351646
O98   O     O_R   0.644484 0.558342 0.831923 -0.305241
N42   N     N_R   0.444500 0.634490 0.901235 0.218141
O99   O     O_R   0.414405 0.607668 0.925946 -0.351588
O100  O     O_R   0.448480 0.640255 0.830861 -0.338779
N43   N     N_R   0.366044 0.442786 0.901075 0.242979
O101  O     O_R   0.395455 0.415335 0.925764 -0.351646
O102  O     O_R   0.355516 0.441658 0.831923 -0.305241
N44   N     N_R   0.555500 0.365510 0.901235 0.218141
O103  O     O_R   0.585595 0.392332 0.925946 -0.351588
O104  O     O_R   0.551520 0.359745 0.830862 -0.338778
N45   N     N_R   0.365510 0.555499 0.098765 0.218141
O105  O     O_R   0.392332 0.585595 0.074055 -0.351588
O106  O     O_R   0.359745 0.551519 0.169139 -0.338779
N46   N     N_R   0.557214 0.633956 0.098924 0.242979
O107  O     O_R   0.584665 0.604545 0.074235 -0.351647
O108  O     O_R   0.558342 0.644484 0.168077 -0.305241
N47   N     N_R   0.634490 0.444501 0.098766 0.218141
O109  O     O_R   0.607668 0.414405 0.074055 -0.351588
O110  O     O_R   0.640255 0.448481 0.169139 -0.338779
N48   N     N_R   0.442785 0.366044 0.098924 0.242979
O111  O     O_R   0.415334 0.395456 0.074235 -0.351647
O112  O     O_R   0.441658 0.355516 0.168077 -0.305241

loop_
_geom_bond_atom_site_label_1
_geom_bond_atom_site_label_2
_geom_bond_distance
_ccdc_geom_bond_type
N40   O96   1.301208 A    
C58   C74   1.415422 A    
C119  N47   1.436905 S    
N7    O61   1.300207 A    
C55   C85   1.393515 A    
O25   Zn5   1.992940 S    
C65   C77   1.415440 A    
O47   C31   1.273194 A    
N45   O105  1.300511 A    
C2    C90   1.404576 A    
O27   Zn7   1.992939 S    
C34   C39   1.182819 T    
C103  C119  1.399808 A    
N33   O81   1.300537 A    
O28   Zn8   1.992939 S    
C52   C88   1.393514 A    
C101  C117  1.399808 A    
O45   Zn12  2.017139 S    
C42   H2    1.083715 S    
C118  N46   1.438921 S    
N23   H29   1.045574 S    
N14   O75   1.300192 A    
N24   H31   1.045591 S    
C106  N34   1.436904 S    
O48   C30   1.273827 A    
O4    C12   1.281470 A    
N12   O71   1.300204 A    
C18   C34   1.395980 S    
C120  C128  1.412994 A    
O38   C28   1.273827 A    
C68   C80   1.415420 A    
C57   C73   1.415438 A    
C104  C120  1.396041 A    
N25   H34   1.043566 S    
C8    C88   1.457877 S    
C3    C91   1.409685 A    
C52   H12   1.083713 S    
O7    Zn3   2.019385 S    
C2    C94   1.409683 A    
C62   C74   1.415438 A    
N12   O72   1.301430 A    
O24   Zn2   1.992937 S    
C110  N38   1.438922 S    
N46   O107  1.300536 A    
C53   C87   1.393514 A    
C47   C81   1.393514 A    
N38   O91   1.300534 A    
C120  N48   1.438921 S    
N9    O65   1.300192 A    
O34   C26   1.273194 A    
O10   C14   1.281470 A    
O14   Zn8   2.017786 S    
O41   Zn11  2.017137 S    
N10   O68   1.301428 A    
C116  C128  1.411482 A    
O2    C10   1.281470 A    
C23   C39   1.395980 S    
C4    C96   1.409686 A    
N22   H28   1.043566 S    
N16   O80   1.301460 A    
C5    C97   1.409686 A    
C67   N11   1.439989 S    
O8    C12   1.281834 A    
N32   H47   1.045591 S    
C8    C100  1.404575 A    
O20   C18   1.277411 A    
C52   C68   1.391035 A    
N19   H22   1.043564 S    
O34   Zn9   2.017135 S    
C44   C60   1.391032 A    
C119  C125  1.411482 A    
C45   C61   1.391032 A    
C63   N7    1.439530 S    
O44   Zn11  2.017139 S    
C101  N29   1.436339 S    
O37   Zn10  2.017139 S    
C117  C127  1.411484 A    
C33   C40   1.182823 T    
N30   H44   1.043563 S    
C3    C83   1.457877 S    
C35   C38   1.182819 T    
N28   H40   1.044611 S    
C70   N14   1.439989 S    
C66   N10   1.439532 S    
C107  C123  1.412993 A    
C7    C101  1.404573 A    
C58   N2    1.439531 S    
C13   C77   1.444199 S    
O43   Zn11  2.017135 S    
C71   C77   1.415422 A    
C4    C84   1.457880 S    
O18   Zn2   1.992939 S    
N35   O86   1.301207 A    
C92   N20   1.436339 S    
O21   Zn1   1.992937 S    
O23   C19   1.277412 A    
N39   O94   1.300727 A    
O35   C27   1.273827 A    
C43   C83   1.394378 A    
C111  N39   1.436905 S    
C90   C106  1.399808 A    
C105  C121  1.412993 A    
C46   C82   1.394380 A    
C25   C124  1.454490 S    
C54   C86   1.394381 A    
N31   H46   1.044612 S    
C115  N43   1.438921 S    
O9    Zn5   2.017786 S    
N38   O92   1.301208 A    
O11   Zn7   2.017783 S    
N17   H17   1.045591 S    
O12   Zn8   2.019382 S    
N4    O56   1.301427 A    
N37   O90   1.300725 A    
C112  C124  1.412991 A    
N13   O73   1.300206 A    
N41   O98   1.301208 A    
C36   C37   1.182823 T    
O33   Zn9   2.017137 S    
C29   C128  1.454490 S    
O5    C11   1.281470 A    
O32   Zn6   1.992937 S    
C108  C124  1.411482 A    
N18   H20   1.044611 S    
C8    C104  1.409686 A    
C59   C75   1.415439 A    
C61   C75   1.415421 A    
C1    C81   1.457880 S    
O26   Zn6   1.992939 S    
C31   C126  1.454490 S    
C55   C71   1.391032 A    
O8    Zn2   2.017783 S    
N34   O84   1.300725 A    
O45   C29   1.273195 A    
N25   H33   1.045590 S    
C50   H10   1.083715 S    
N6    O59   1.300192 A    
O39   C27   1.273194 A    
N1    O50   1.301456 A    
C28   C123  1.454490 S    
C102  N30   1.436608 S    
N26   H35   1.045573 S    
O36   Zn9   2.017139 S    
N44   O103  1.300509 A    
C114  C126  1.411482 A    
N5    O57   1.300208 A    
O39   Zn10  2.017135 S    
O1    Zn1   2.017786 S    
C15   C79   1.444199 S    
N48   O112  1.301207 A    
C16   C80   1.444199 S    
C5    C103  1.404575 A    
C105  N33   1.438920 S    
O41   C29   1.273826 A    
O4    Zn4   2.019382 S    
N29   H41   1.045574 S    
C112  N40   1.438921 S    
C109  C123  1.411482 A    
N21   H26   1.044610 S    
O25   C21   1.277411 A    
C64   C76   1.415438 A    
C54   H14   1.084075 S    
O22   Zn4   1.992938 S    
O43   C31   1.273827 A    
C51   C87   1.394380 A    
N47   O110  1.300726 A    
C59   N3    1.439991 S    
C49   C85   1.394380 A    
C113  N41   1.438921 S    
N23   H30   1.044611 S    
C48   C64   1.391295 A    
C107  N35   1.438923 S    
N42   O99   1.300512 A    
C96   N24   1.436611 S    
N7    O62   1.301427 A    
N20   H23   1.045572 S    
O16   C16   1.281836 A    
C93   N21   1.436341 S    
O3    C11   1.281834 A    
C72   C80   1.415441 A    
O46   Zn12  2.017137 S    
O6    C10   1.281834 A    
C62   N6    1.439990 S    
C67   C79   1.415438 A    
N14   O76   1.301456 A    
C89   N17   1.436608 S    
C51   C67   1.391295 A    
C49   C65   1.391295 A    
O28   C22   1.277411 A    
O29   C23   1.277414 A    
N8    O63   1.300192 A    
O30   C24   1.277411 A    
N27   H37   1.045591 S    
C53   C69   1.391032 A    
C116  N44   1.436906 S    
O16   Zn6   2.017783 S    
C103  N31   1.436339 S    
C44   H4    1.083713 S    
C51   H11   1.084076 S    
C102  C118  1.396041 A    
C91   N19   1.436608 S    
N46   O108  1.301207 A    
O31   Zn7   1.992938 S    
C6    C86   1.457880 S    
C14   C78   1.444199 S    
C7    C99   1.409686 A    
O17   C17   1.277411 A    
C118  C126  1.412993 A    
O19   Zn3   1.992939 S    
C19   C35   1.395980 S    
O27   C21   1.277413 A    
C42   C82   1.393514 A    
N2    O51   1.300207 A    
C63   C73   1.415420 A    
N11   O69   1.300193 A    
N33   O82   1.301209 A    
N40   O95   1.300535 A    
O10   Zn6   2.019385 S    
N32   H48   1.043565 S    
C48   C84   1.394379 A    
C56   C88   1.394378 A    
N45   O106  1.300724 A    
O15   C13   1.281470 A    
C97   N25   1.436611 S    
N15   O78   1.301427 A    
C12   C76   1.444199 S    
C94   N22   1.436610 S    
N35   O85   1.300534 A    
O36   C28   1.273195 A    
O40   Zn10  2.017135 S    
C26   C121  1.454490 S    
C65   N9    1.439989 S    
N31   H45   1.045572 S    
N16   O79   1.300197 A    
C69   N13   1.439532 S    
N43   O101  1.300538 A    
C2    C82   1.457880 S    
C57   N1    1.439990 S    
O33   C25   1.273826 A    
N3    O53   1.300194 A    
O23   Zn3   1.992938 S    
C42   C58   1.391032 A    
C27   C122  1.454490 S    
C30   C125  1.454490 S    
C98   C114  1.399808 A    
C20   C36   1.395978 S    
O46   C32   1.273827 A    
C24   C40   1.395978 S    
C72   N16   1.439993 S    
N36   O87   1.300512 A    
O13   C15   1.281470 A    
O2    Zn2   2.019385 S    
C43   C59   1.391298 A    
C117  N45   1.436905 S    
O7    C9    1.281470 A    
O5    Zn1   2.019382 S    
O35   Zn9   2.017135 S    
C45   H5    1.083716 S    
C70   C78   1.415438 A    
C114  N42   1.436906 S    
N9    O66   1.301457 A    
C11   C75   1.444199 S    
C1    C89   1.409687 A    
O26   C22   1.277415 A    
N37   O89   1.300509 A    
C99   N27   1.436609 S    
C43   H3    1.084077 S    
O29   Zn5   1.992937 S    
N10   O67   1.300206 A    
C71   N15   1.439531 S    
O42   Zn11  2.017135 S    
C50   C86   1.393514 A    
N41   O97   1.300537 A    
C56   H16   1.084076 S    
O37   C25   1.273195 A    
C93   C109  1.399808 A    
N39   O93   1.300509 A    
N22   H27   1.045592 S    
C45   C83   1.393516 A    
C104  N32   1.436609 S    
C110  C122  1.412993 A    
C48   H8    1.084077 S    
C98   N26   1.436340 S    
N47   O109  1.300511 A    
N27   H38   1.043564 S    
C95   N23   1.436340 S    
C106  C122  1.411483 A    
C6    C102  1.409686 A    
N6    O60   1.301457 A    
N1    O49   1.300194 A    
C66   C78   1.415423 A    
C111  C121  1.411482 A    
N30   H43   1.045589 S    
N26   H36   1.044610 S    
C99   C115  1.396041 A    
N28   H39   1.045574 S    
O21   C19   1.277414 A    
N44   O104  1.300726 A    
C100  C116  1.399808 A    
O22   C20   1.277411 A    
C10   C74   1.444199 S    
C54   C70   1.391295 A    
C47   C63   1.391035 A    
O47   Zn12  2.017135 S    
C91   C107  1.396041 A    
C92   C108  1.399811 A    
C90   N18   1.436341 S    
N21   H25   1.045574 S    
O44   C32   1.273195 A    
N24   H32   1.043565 S    
C46   H6    1.084077 S    
O9    C13   1.281834 A    
O11   C15   1.281834 A    
O12   C16   1.281471 A    
O1    C9    1.281834 A    
N11   O70   1.301456 A    
C94   C110  1.396041 A    
C108  N36   1.436905 S    
O14   C14   1.281834 A    
C6    C98   1.404576 A    
O48   Zn12  2.017135 S    
C7    C87   1.457880 S    
C4    C92   1.404573 A    
O18   C18   1.277415 A    
C5    C85   1.457880 S    
C21   C37   1.395978 S    
C60   C76   1.415422 A    
O6    Zn4   2.017786 S    
N42   O100  1.300724 A    
N17   H18   1.043565 S    
N4    O55   1.300206 A    
N20   H24   1.044610 S    
C113  C125  1.412992 A    
O24   C20   1.277413 A    
C61   N5    1.439532 S    
O30   Zn8   1.992938 S    
N13   O74   1.301427 A    
C41   C81   1.394379 A    
C46   C62   1.391295 A    
O19   C17   1.277413 A    
C44   C84   1.393515 A    
N18   H19   1.045575 S    
C68   N12   1.439530 S    
C49   H9    1.084076 S    
O42   C30   1.273194 A    
N43   O102  1.301208 A    
C53   H13   1.083714 S    
N34   O83   1.300509 A    
N3    O54   1.301457 A    
C50   C66   1.391032 A    
N8    O64   1.301457 A    
C115  C127  1.412992 A    
C55   H15   1.083715 S    
C60   N4    1.439530 S    
C41   H1    1.084076 S    
N19   H21   1.045591 S    
N36   O88   1.300725 A    
C69   C79   1.415422 A    
O31   C23   1.277412 A    
O32   C24   1.277413 A    
C64   N8    1.439988 S    
O17   Zn1   1.992940 S    
O38   Zn10  2.017137 S    
C47   H7    1.083713 S    
C3    C93   1.404575 A    
C17   C33   1.395978 S    
O20   Zn4   1.992939 S    
N15   O77   1.300208 A    
C1    C95   1.404576 A    
N5    O58   1.301427 A    
C109  N37   1.436904 S    
C95   C111  1.399808 A    
C89   C105  1.396041 A    
C56   C72   1.391296 A    
C41   C57   1.391295 A    
N48   O111  1.300537 A    
C96   C112  1.396041 A    
C97   C113  1.396041 A    
N29   H42   1.044610 S    
C32   C127  1.454490 S    
C22   C38   1.395980 S    
O13   Zn5   2.019382 S    
N2    O52   1.301427 A    
O15   Zn7   2.019385 S    
C9    C73   1.444199 S    
C100  N28   1.436339 S    
O40   C26   1.273827 A    
O3    Zn3   2.017783 S    
