data_mof_unit_28640.cif
_audit_creation_date              2012-12-11T14:49:43-0500
_audit_creation_method            fapswitch 2.2
_symmetry_space_group_name_H-M    P1
_symmetry_Int_Tables_number       1
_space_group_crystal_system       triclinic
_cell_length_a                    16.914924
_cell_length_b                    7.030351
_cell_length_c                    16.805075
_cell_angle_alpha                 90.19323
_cell_angle_beta                  100.806624
_cell_angle_gamma                 89.830617
_cell_volume                      1962.96590012

loop_
_atom_site_label
_atom_site_type_symbol
_atom_type_description
_atom_site_fract_x
_atom_site_fract_y
_atom_site_fract_z
_atom_type_partial_charge
O1    O     O_R   0.579510 0.506290 0.439030 -0.537676
O2    O     O_R   0.420490 0.006290 0.560970 -0.538278
O3    O     O_R   0.412540 0.170090 0.405290 -0.543187
O4    O     O_R   0.587460 0.670090 0.594710 -0.541012
C1    C     C_R   0.384521 0.345639 0.382445 0.702063
C2    C     C_R   0.615384 0.845568 0.617652 0.711768
O5    O     O_R   0.578390 0.176230 0.429330 -0.525372
O6    O     O_R   0.421610 0.676230 0.570670 -0.526239
O7    O     O_R   0.587530 0.011250 0.585190 -0.536649
O8    O     O_R   0.412470 0.511250 0.414810 -0.537124
C3    C     C_R   0.604551 0.345061 0.413633 0.840862
C4    C     C_R   0.394714 0.845800 0.585414 0.848713
O9    O     O_3   0.502800 0.340940 0.551110 -0.377107
O10   O     O_3   0.497200 0.840940 0.448890 -0.376809
V1    V     V_3+5 0.499480 0.064020 0.490520 1.520419
V2    V     V_3+5 0.500520 0.564020 0.509480 1.522780
C5    C     C_R   0.171080 0.908713 0.866279 -0.148012
C6    C     C_R   0.828625 0.414201 0.133335 -0.141315
C7    C     C_R   0.332193 0.858701 0.637039 -0.266518
C8    C     C_R   0.666977 0.354502 0.361759 -0.261144
C9    C     C_R   0.190314 0.882542 0.647674 0.383837
C10   C     C_R   0.807954 0.326263 0.348544 0.383761
C11   C     C_R   0.250215 0.852913 0.600721 0.307466
C12   C     C_R   0.747279 0.308762 0.395147 0.314503
C13   C     C_R   0.353672 0.891736 0.721528 -0.091537
C14   C     C_R   0.647683 0.418198 0.280478 -0.105805
C15   C     C_R   0.293631 0.882115 0.771065 -0.021945
C16   C     C_R   0.706283 0.406382 0.229174 -0.024447
C17   C     C_R   0.211536 0.896357 0.733186 -0.023950
C18   C     C_R   0.787889 0.373085 0.265201 -0.014456
C19   C     C_R   0.152358 0.922753 0.781621 -0.139662
C20   C     C_R   0.847818 0.384772 0.217101 -0.154038
C21   C     C_R   0.250890 0.862272 0.903771 -0.066846
C22   C     C_R   0.746656 0.428153 0.095015 -0.063425
C23   C     C_R   0.312665 0.854535 0.856814 -0.021516
C24   C     C_R   0.685439 0.419989 0.142845 -0.010311
H1    H     H_    0.090382 0.949581 0.753939 0.193830
H2    H     H_    0.910623 0.371185 0.244238 0.192482
C25   C     C_3   0.753184 0.751789 0.829586 -0.308358
C26   C     C_3   0.251377 0.272639 0.167076 -0.272360
H3    H     H_    0.783658 0.613274 0.845183 0.207854
H4    H     H_    0.225444 0.132429 0.147315 0.231762
H5    H     H_    0.729210 0.797579 0.883907 0.164291
H6    H     H_    0.273832 0.333661 0.114520 0.162748
C27   C     C_3   0.682233 0.722296 0.757485 -0.321987
C28   C     C_3   0.322992 0.242378 0.238338 -0.318769
H7    H     H_    0.624924 0.740821 0.779367 0.199781
H8    H     H_    0.379622 0.280149 0.218150 0.201172
H9    H     H_    0.683379 0.573418 0.734964 0.160151
H10   H     H_    0.327362 0.089092 0.255051 0.160449
H11   H     H_    0.765769 0.676669 0.632974 0.181347
H12   H     H_    0.239803 0.145578 0.357267 0.186242
C29   C     C_3   0.841633 0.850808 0.729282 -0.139951
C30   C     C_3   0.158685 0.328710 0.269440 -0.142363
C31   C     C_3   0.764659 0.092434 0.795170 -0.342621
C32   C     C_3   0.226208 0.599492 0.214777 -0.341399
C33   C     C_3   0.813383 0.905135 0.810373 -0.000981
C34   C     C_3   0.185549 0.406047 0.190801 -0.017554
H13   H     H_    0.803870 0.209880 0.781789 0.212376
H14   H     H_    0.182347 0.694359 0.236186 0.222613
H15   H     H_    0.741380 0.132262 0.850364 0.199519
H16   H     H_    0.244181 0.668706 0.161886 0.182916
C35   C     C_3   0.687425 0.863599 0.687973 0.064666
C36   C     C_3   0.312184 0.363989 0.312487 0.049555
C37   C     C_3   0.767537 0.823107 0.658696 -0.333646
C38   C     C_3   0.233499 0.297733 0.338892 -0.325537
C39   C     C_3   0.692626 0.069565 0.724110 -0.301930
C40   C     C_3   0.300141 0.575557 0.283646 -0.300061
H17   H     H_    0.635898 0.104827 0.745477 0.165512
H18   H     H_    0.354797 0.625982 0.262160 0.167899
H19   H     H_    0.699434 0.174971 0.676571 0.185985
H20   H     H_    0.291730 0.668925 0.335068 0.192302
H21   H     H_    0.877116 0.973111 0.712950 0.150284
H22   H     H_    0.120558 0.440457 0.290663 0.141614
H23   H     H_    0.773172 0.921094 0.608326 0.202311
H24   H     H_    0.224808 0.379386 0.393475 0.184872
O11   O     O_R   0.087500 0.266000 0.085220 -0.533708
O12   O     O_R   0.912500 0.766000 0.914780 -0.542370
O13   O     O_R   0.921600 0.589950 0.070670 -0.544477
O14   O     O_R   0.078400 0.089950 0.929330 -0.534838
C41   C     C_R   0.895258 0.422065 0.086442 0.754840
C42   C     C_R   0.104825 0.920922 0.913643 0.756790
O15   O     O_R   0.087460 0.596020 0.094710 -0.527392
O16   O     O_R   0.912540 0.096020 0.905290 -0.523535
O17   O     O_R   0.079520 0.760970 0.939020 -0.536228
O18   O     O_R   0.920480 0.260970 0.060980 -0.523343
C43   C     C_R   0.115004 0.425770 0.119100 0.654596
C44   C     C_R   0.884247 0.925668 0.881678 0.661104
O19   O     O_3   0.997180 0.425140 0.948910 -0.366741
O20   O     O_3   0.002820 0.925140 0.051090 -0.362526
V3    V     V_3+5 0.000520 0.702080 0.009480 1.527258
V4    V     V_3+5 0.999480 0.202080 0.990520 1.548432
C45   C     C_2   0.896885 0.679169 0.736764 0.810518
O21   O     O_2   0.871607 0.520856 0.748172 -0.564682
O22   O     O_R   0.977099 0.702298 0.729296 -0.649869
H25   H     H_    0.008383 0.578302 0.735566 0.319385
C46   C     C_2   0.106923 0.152553 0.256066 0.805325
O23   O     O_2   0.131497 0.008598 0.228157 -0.573359
O24   O     O_R   0.030748 0.154337 0.276620 -0.636940
H26   H     H_    0.001534 0.028746 0.264693 0.321578
C47   C     C_2   0.269521 0.812197 0.991312 0.753230
O25   O     O_2   0.241788 0.907005 0.040523 -0.587584
O26   O     O_R   0.319174 0.656175 0.017225 -0.657991
H27   H     H_    0.333929 0.645958 0.078273 0.286422
C48   C     C_2   0.724750 0.441015 0.004786 0.701290
O27   O     O_2   0.765949 0.360962 0.962427 -0.592062
O28   O     O_R   0.656840 0.543320 0.967958 -0.634878
H28   H     H_    0.644849 0.527730 0.906918 0.299629
Cl1   Cl    Cl    0.088335 0.892052 0.598111 -0.446777
Cl2   Cl    Cl    0.908940 0.281860 0.395755 -0.447584
C49   C     C_2   0.395560 0.801522 0.897532 0.847723
O29   O     O_2   0.428764 0.662942 0.874122 -0.531748
O30   O     O_R   0.434975 0.909619 0.963035 -0.627989
H29   H     H_    0.491333 0.861365 0.985025 0.349224
C50   C     C_2   0.601141 0.382956 0.101924 0.833882
O31   O     O_2   0.574391 0.221421 0.100956 -0.536081
O32   O     O_R   0.552068 0.532072 0.066660 -0.617940
H30   H     H_    0.495759 0.488234 0.041844 0.334993
Cl3   Cl    Cl    0.222494 0.820264 0.494659 -0.607094
Cl4   Cl    Cl    0.773101 0.242747 0.498297 -0.600440
C51   C     C_2   0.435285 0.966337 0.754886 0.766920
O33   O     O_2   0.494698 0.890649 0.737353 -0.596338
O34   O     O_R   0.443722 0.125737 0.805777 -0.633609
H31   H     H_    0.502061 0.163500 0.824617 0.310023
C52   C     C_2   0.570869 0.522111 0.253806 0.769970
O35   O     O_2   0.507160 0.450724 0.261758 -0.600944
O36   O     O_R   0.572091 0.704389 0.221038 -0.627106
H32   H     H_    0.516286 0.761933 0.205687 0.314232

loop_
_geom_bond_atom_site_label_1
_geom_bond_atom_site_label_2
_ccdc_geom_bond_type
O15   C43   A    
C35   C37   S    
O11   V4    S    
O4    V2    S    
C47   O25   D    
C31   H13   S    
C15   C17   A    
C50   O32   S    
C7    C11   A    
O22   H25   S    
O1    C3    A    
O2    C4    A    
C34   C43   S    
C2    O7    A    
C46   O23   D    
O17   V3    S    
O3    V1    S    
O34   H31   S    
C25   H3    S    
C26   C28   S    
C48   O28   S    
C45   O21   D    
C21   C47   S    
C36   C40   S    
C11   Cl3   S    
C50   O31   D    
C25   C33   S    
C6    C41   S    
C5    C42   S    
H11   C37   S    
C30   H22   S    
C8    C12   A    
C10   Cl2   S    
O28   H28   S    
C30   C46   S    
C20   H2    S    
O19   V3    S    
C29   C37   S    
O13   V3    S    
C41   O18   A    
C40   H20   S    
C25   C27   S    
C32   H16   S    
O5    V1    S    
C47   O26   S    
C5    C21   A    
C46   O24   S    
C28   H8    S    
C27   H7    S    
C35   C39   S    
C3    C8    S    
C12   Cl4   S    
C26   C34   S    
C29   C45   S    
O14   C42   A    
O13   C41   A    
C29   C33   S    
C25   H5    S    
C15   C23   A    
C32   C40   S    
C9    C17   A    
C27   C35   S    
C19   H1    S    
C1    C36   S    
C28   C36   S    
C39   H17   S    
C14   C52   S    
C36   C38   S    
C2    C35   S    
O14   V4    S    
O5    C3    A    
O20   V4    S    
O24   H26   S    
C27   H9    S    
O6    C4    A    
C38   H24   S    
C49   O30   S    
O1    V2    S    
O19   V4    S    
O2    V1    S    
C6    C22   A    
O11   C43   A    
C51   O33   D    
C40   H18   S    
C31   C33   S    
C52   O35   D    
C5    C19   A    
C10   C12   A    
O4    C2    A    
C6    C20   A    
O36   H32   S    
C23   C49   S    
O30   H29   S    
C30   C34   S    
O12   C44   A    
C10   C18   A    
C49   O29   D    
C22   C48   S    
C29   H21   S    
O16   C44   A    
C26   H4    S    
O3    C1    A    
C31   C39   S    
C30   C38   S    
O12   V3    S    
C13   C15   A    
C42   O17   A    
O15   V3    S    
C48   O27   D    
C28   H10   S    
C14   C16   A    
C37   H23   S    
C33   C44   S    
C9    C11   A    
O7    V1    S    
C1    O8    A    
C17   C19   A    
O8    V2    S    
O32   H30   S    
C18   C20   A    
O20   V3    S    
C45   O22   S    
C8    C14   A    
C31   H15   S    
C4    C7    S    
C16   C18   A    
C21   C23   A    
C22   C24   A    
C32   C34   S    
C39   H19   S    
C7    C13   A    
C51   O34   S    
C32   H14   S    
C26   H6    S    
H12   C38   S    
C16   C24   A    
O6    V2    S    
O9    V2    S    
O26   H27   S    
C52   O36   S    
O10   V1    S    
O18   V4    S    
O16   V4    S    
C24   C50   S    
C13   C51   S    
C9    Cl1   S    
