data_mof_unit_37924.cif
_audit_creation_date              2012-12-10T17:51:33-0500
_audit_creation_method            fapswitch 2.2
_symmetry_space_group_name_H-M    P1
_symmetry_Int_Tables_number       1
_space_group_crystal_system       triclinic
_cell_length_a                    9.941077
_cell_length_b                    10.637628
_cell_length_c                    16.668342
_cell_angle_alpha                 92.674493
_cell_angle_beta                  84.696403
_cell_angle_gamma                 91.427786
_cell_volume                      1752.83434245

loop_
_atom_site_label
_atom_site_type_symbol
_atom_type_description
_atom_site_fract_x
_atom_site_fract_y
_atom_site_fract_z
_atom_type_partial_charge
C1    C     C_R   0.502587 0.737898 0.489146 0.904796
C2    C     C_R   0.531016 0.473939 0.259512 -0.022614
C3    C     C_R   0.302095 0.856094 0.393397 -0.177606
C4    C     C_R   0.480701 0.492085 0.652745 0.933557
C5    C     C_R   0.200657 0.916714 0.358763 -0.146314
C6    C     C_R   0.198875 0.047330 0.360305 -0.146740
C7    C     C_R   0.298244 0.118053 0.396723 -0.171171
C8    C     C_R   0.398998 0.058736 0.435435 0.107964
C9    C     C_R   0.401247 0.925894 0.433408 0.105650
C10   C     C_R   0.508064 0.868055 0.467828 -0.129124
C11   C     C_R   0.622989 0.937935 0.484227 -0.206408
C12   C     C_R   0.346735 0.455983 0.783489 -0.195567
C13   C     C_R   0.618580 0.065619 0.490221 -0.205942
C14   C     C_R   0.502517 0.126470 0.473192 -0.123663
C15   C     C_R   0.849779 0.613245 0.635982 0.024359
C16   C     C_R   0.499863 0.259985 0.491728 0.869798
C17   C     C_R   0.914837 0.631415 0.706834 -0.198266
C18   C     C_R   0.054004 0.645130 0.700663 -0.271437
C19   C     C_R   0.126622 0.620772 0.626805 -0.142871
C20   C     C_R   0.065251 0.557741 0.563545 0.173274
C21   C     C_R   0.920838 0.556111 0.565442 0.038927
C22   C     C_R   0.936563 0.446074 0.438233 -0.109855
C23   C     C_R   0.421114 0.439828 0.137080 -0.147959
C24   C     C_R   0.079336 0.445472 0.438493 -0.124885
C25   C     C_R   0.519252 0.497134 0.346566 0.825125
C26   C     C_R   0.468937 0.448285 0.734589 -0.019130
C27   C     C_R   0.576986 0.382877 0.760218 -0.191218
C28   C     C_R   0.565134 0.330518 0.835006 -0.155353
C29   C     C_R   0.446665 0.346593 0.886436 0.203501
C30   C     C_R   0.335854 0.405628 0.859467 -0.165832
C31   C     C_2   0.754447 0.713689 0.629229 0.519996
C32   C     C_R   0.415738 0.479381 0.217585 -0.222303
C33   C     C_R   0.653176 0.432337 0.219258 -0.197432
C34   C     C_R   0.658440 0.392478 0.138485 -0.181331
C35   C     C_R   0.541821 0.393118 0.097571 0.207334
C36   C     C_2   0.444990 0.323937 0.972253 -0.237856
C37   C     C_2   0.552640 0.359432 0.011297 -0.227992
H1    H     H_    0.670502 0.370585 0.722122 0.163183
H2    H     H_    0.859752 0.666074 0.762343 0.183205
H3    H     H_    0.320788 0.512613 0.247220 0.148587
H4    H     H_    0.104207 0.685048 0.751184 0.164266
H5    H     H_    0.228540 0.655795 0.619673 0.210625
H6    H     H_    0.139111 0.400545 0.388190 0.130239
H7    H     H_    0.743443 0.427033 0.250595 0.147006
H8    H     H_    0.649139 0.380659 0.978103 0.150379
H9    H     H_    0.243671 0.418526 0.898731 0.124148
H10   H     H_    0.331310 0.448614 0.105923 0.123429
H11   H     H_    0.261000 0.502452 0.763632 0.156458
H12   H     H_    0.753172 0.360131 0.108043 0.124899
H13   H     H_    0.348257 0.303504 0.005335 0.145422
H14   H     H_    0.650390 0.281651 0.853795 0.133056
H15   H     H_    0.776841 0.777182 0.581619 0.029868
H16   H     H_    0.714702 0.895301 0.497135 0.156707
H17   H     H_    0.305052 0.755017 0.384415 0.166113
H18   H     H_    0.125701 0.862073 0.328277 0.135304
H19   H     H_    0.122532 0.094124 0.331003 0.130593
H20   H     H_    0.297899 0.218327 0.390111 0.157939
H21   H     H_    0.705403 0.115922 0.511657 0.177357
H22   H     H_    0.889759 0.401572 0.387850 0.133659
N1    N     N_R   0.857140 0.501200 0.500750 -0.120937
N2    N     N_R   0.142740 0.501280 0.500770 -0.115212
O1    O     O_R   0.385310 0.683220 0.500000 -0.641306
O2    O     O_R   0.614640 0.683250 0.500010 -0.631486
O3    O     O_R   0.371780 0.500010 0.615800 -0.636276
O4    O     O_R   0.601110 0.500030 0.615800 -0.603110
O5    O     O_R   0.385360 0.316750 0.499990 -0.616197
O6    O     O_R   0.614690 0.316780 0.500000 -0.621286
O7    O     O_R   0.398890 0.499970 0.384200 -0.642273
O8    O     O_R   0.628220 0.499990 0.384200 -0.625151
O9    O     O_2   0.661315 0.734694 0.680896 -0.603930
Zn1   Zn    Zn3+2 0.346870 0.499980 0.499990 0.927109
Zn2   Zn    Zn3+2 0.653130 0.500020 0.500010 0.942200

loop_
_geom_bond_atom_site_label_1
_geom_bond_atom_site_label_2
_ccdc_geom_bond_type
O8    Zn2   S    
C4    C26   S    
C15   C31   S    
C24   N2    A    
C3    C9    A    
O4    Zn2   S    
C9    C10   A    
C4    O3    A    
O5    Zn1   S    
C11   H16   S    
C19   H5    S    
C31   H15   S    
C12   H11   S    
C23   C32   A    
N2    Zn1   S    
C22   C24   A    
C33   C34   A    
C36   H13   S    
C7    C8    A    
C22   H22   S    
C16   O6    A    
C13   C14   A    
C1    O1    A    
C7    H20   S    
C11   C13   A    
C29   C36   S    
C28   C29   A    
C26   C27   A    
C6    C7    A    
C25   O7    A    
O7    Zn1   S    
C1    O2    A    
C2    C33   A    
C36   C37   D    
C35   C37   S    
C30   H9    S    
O1    Zn1   S    
C17   C18   A    
C2    C25   S    
C23   C35   A    
C32   H3    S    
C22   N1    A    
C5    C6    A    
C3    H17   S    
C14   C16   S    
O2    Zn2   S    
O3    Zn1   S    
C25   O8    A    
C10   C11   A    
N1    Zn2   S    
C27   H1    S    
C29   C30   A    
C20   N2    A    
C3    C5    A    
C15   C21   A    
O6    Zn2   S    
C23   H10   S    
C20   C21   A    
C21   N1    A    
C2    C32   A    
C34   C35   A    
C17   H2    S    
C18   H4    S    
C12   C26   A    
C27   C28   A    
C15   C17   A    
C24   H6    S    
C4    O4    A    
C18   C19   A    
C16   O5    A    
C8    C14   A    
C13   H21   S    
C12   C30   A    
C28   H14   S    
C33   H7    S    
C37   H8    S    
C5    H18   S    
C31   O9    D    
C1    C10   S    
C19   C20   A    
C6    H19   S    
C8    C9    A    
C34   H12   S    
