data_mof_unit_64369.cif
_audit_creation_date              2012-12-10T17:54:42-0500
_audit_creation_method            fapswitch 2.2
_symmetry_space_group_name_H-M    P1
_symmetry_Int_Tables_number       1
_space_group_crystal_system       triclinic
_cell_length_a                    18.875022
_cell_length_b                    18.899299
_cell_length_c                    18.972194
_cell_angle_alpha                 109.948243
_cell_angle_beta                  109.771685
_cell_angle_gamma                 109.718306
_cell_volume                      5142.9449881

loop_
_atom_site_label
_atom_site_type_symbol
_atom_type_description
_atom_site_fract_x
_atom_site_fract_y
_atom_site_fract_z
_atom_type_partial_charge
C1    C     C_R   0.118923 0.000717 0.618723 0.819218
C2    C     C_R   0.265398 0.259071 0.587126 0.073842
C3    C     C_R   0.190356 0.187610 0.506401 -0.079980
C4    C     C_R   0.178807 0.183299 0.428017 -0.198295
C5    C     C_R   0.240213 0.249383 0.428302 -0.200817
C6    C     C_R   0.314152 0.321444 0.507049 -0.089038
C7    C     C_R   0.256668 0.002524 0.683727 0.009622
C8    C     C_R   0.183221 0.999802 0.685282 -0.087797
C9    C     C_R   0.171783 0.992821 0.752513 -0.253549
C10   C     C_R   0.233838 0.988440 0.815782 0.242349
C11   C     C_R   0.311513 0.997264 0.814855 -0.090718
C12   C     C_R   0.120595 0.119222 0.502221 0.774672
C13   C     C_R   0.318625 0.002600 0.746073 -0.065563
C14   C     C_3   0.375860 0.009752 0.706725 0.191557
C15   C     C_3   0.304598 0.011216 0.635875 -0.038224
C16   C     C_R   0.754968 0.735555 0.432019 -0.019897
C17   C     C_R   0.822396 0.814755 0.506876 -0.108072
C18   C     C_R   0.828644 0.828059 0.587677 0.166350
C19   C     C_R   0.763464 0.762904 0.588511 -0.076171
C20   C     C_R   0.689448 0.688077 0.507749 -0.205252
C21   C     C_R   0.689920 0.676989 0.432142 0.058674
C22   C     C_3   0.639137 0.617407 0.335073 0.014310
C23   C     C_R   0.880990 0.999592 0.380876 0.801337
C24   C     C_3   0.714221 0.685047 0.335041 -0.261873
C25   C     C_R   0.758411 0.929826 0.229049 0.017499
C26   C     C_R   0.815796 0.001102 0.314233 -0.093368
C27   C     C_R   0.808340 0.076668 0.333996 -0.196527
C28   C     C_R   0.744824 0.078184 0.269581 -0.220731
C29   C     C_R   0.686375 0.003356 0.185570 -0.071708
C30   C     C_R   0.696723 0.931647 0.168098 0.049008
C31   C     C_3   0.660450 0.841338 0.097242 -0.013242
C32   C     C_3   0.730678 0.837989 0.165987 0.031489
C33   C     C_R   0.501431 0.619628 0.618834 0.786807
C34   C     C_R   0.883575 0.881113 0.501872 0.849119
C35   C     C_R   0.380990 0.384250 0.502717 0.770425
C36   C     C_R   0.501182 0.382435 0.381037 0.826876
C37   C     C_R   0.619416 0.620628 0.502988 0.820958
C38   C     C_R   0.500213 0.119059 0.118393 0.858290
C39   C     C_R   0.380527 0.999550 0.881461 0.890981
C40   C     C_R   0.501199 0.880276 0.882805 0.843508
C41   C     C_R   0.618962 0.001373 0.119247 0.821905
C42   C     C_R   0.560143 0.772837 0.724389 0.102088
C43   C     C_R   0.501978 0.684389 0.686696 -0.049740
C44   C     C_R   0.455423 0.658362 0.725541 -0.284557
C45   C     C_R   0.282200 0.261979 0.666913 -0.238207
C46   C     C_R   0.455563 0.720828 0.792090 -0.121277
C47   C     C_R   0.505529 0.811549 0.821415 -0.151212
C48   C     C_R   0.563136 0.835309 0.791565 0.119008
C49   C     C_3   0.581251 0.898009 0.759977 -0.413163
C50   C     C_3   0.573250 0.827347 0.683509 -0.484974
C51   C     C_R   0.456202 0.290924 0.226553 0.051468
C52   C     C_R   0.507020 0.321084 0.314865 -0.123096
C53   C     C_R   0.565811 0.291768 0.338982 -0.279562
C54   C     C_R   0.564301 0.224719 0.275087 0.225065
C55   C     C_R   0.503505 0.187133 0.186237 -0.116963
C56   C     C_R   0.354136 0.335299 0.746955 0.038889
C57   C     C_R   0.452315 0.223057 0.164079 0.002175
C58   C     C_3   0.356428 0.184969 0.102052 0.383991
C59   C     C_3   0.362560 0.263682 0.171268 -0.267424
C60   C     C_R   0.409717 0.406638 0.747202 -0.168509
C61   C     C_R   0.396105 0.403501 0.668983 -0.206197
C62   C     C_R   0.326077 0.328578 0.587745 0.108179
Cu1   Cu    Cu3+1 0.000020 0.938200 0.438210 0.987950
Cu2   Cu    Cu3+1 0.999980 0.061800 0.561790 0.969140
Cu3   Cu    Cu3+1 0.438170 0.500030 0.438220 0.989380
Cu4   Cu    Cu3+1 0.561770 0.500000 0.561810 0.990584
Cu5   Cu    Cu3+1 0.561810 0.061820 0.000030 0.978516
Cu6   Cu    Cu3+1 0.438190 0.938280 0.000080 1.023839
H1    H     H_    0.121406 0.128687 0.366170 0.151718
H2    H     H_    0.326446 0.075334 0.639078 0.131395
H3    H     H_    0.575770 0.614299 0.303609 0.147117
H4    H     H_    0.693646 0.721063 0.305095 0.120814
H5    H     H_    0.851868 0.134660 0.398593 0.167903
H6    H     H_    0.240425 0.206793 0.667507 0.175609
H7    H     H_    0.740678 0.136831 0.285652 0.167392
H8    H     H_    0.591423 0.796950 0.075769 0.159987
H9    H     H_    0.782912 0.833583 0.153409 0.165749
H10   H     H_    0.415729 0.589207 0.701248 0.140613
H11   H     H_    0.529496 0.914330 0.741199 0.234439
H12   H     H_    0.648867 0.955741 0.805111 0.201496
H13   H     H_    0.513839 0.799428 0.620129 0.222079
H14   H     H_    0.634893 0.846341 0.682291 0.242416
H15   H     H_    0.609707 0.317168 0.407172 0.177246
H16   H     H_    0.322760 0.246702 0.200973 0.119453
H17   H     H_    0.464534 0.465026 0.808040 0.180865
H18   H     H_    0.440509 0.461003 0.673376 0.155950
H19   H     H_    0.230758 0.243389 0.366473 0.154507
H20   H     H_    0.113633 0.987927 0.754428 0.158209
O1    O     O_R   0.090180 0.947810 0.537990 -0.570217
O2    O     O_R   0.552150 0.590170 0.642370 -0.584521
O3    O     O_R   0.357600 0.409850 0.447820 -0.584064
O4    O     O_R   0.461980 0.409830 0.552180 -0.590459
O5    O     O_R   0.447790 0.409860 0.357660 -0.566737
O6    O     O_R   0.552170 0.409840 0.462020 -0.597435
O7    O     O_R   0.537960 0.590200 0.447840 -0.575144
O8    O     O_R   0.642340 0.590180 0.552210 -0.553710
O9    O     O_R   0.552220 0.142430 0.090190 -0.598373
O10   O     O_R   0.447830 0.038100 0.090230 -0.583754
O11   O     O_R   0.462030 0.052220 0.909860 -0.588419
O12   O     O_R   0.090150 0.052180 0.642350 -0.581412
O13   O     O_R   0.357640 0.947890 0.909900 -0.554127
O14   O     O_R   0.552170 0.962000 0.909870 -0.584038
O15   O     O_R   0.447780 0.857670 0.909910 -0.560419
O16   O     O_R   0.642360 0.052210 0.090200 -0.590642
O17   O     O_R   0.537970 0.947880 0.090240 -0.591517
O18   O     O_R   0.090190 0.037990 0.447830 -0.583627
O19   O     O_R   0.090170 0.142360 0.552190 -0.581310
O20   O     O_R   0.909850 0.947820 0.357650 -0.582366
O21   O     O_R   0.909820 0.052190 0.462010 -0.591896
O22   O     O_R   0.909830 0.857640 0.447810 -0.553684
O23   O     O_R   0.909810 0.962010 0.552170 -0.582811
O24   O     O_R   0.447770 0.590190 0.538000 -0.583975
C63   C     C_2   0.386368 0.930615 0.676866 0.855870
O25   O     O_2   0.410761 0.915648 0.624224 -0.628899
O26   O     O_R   0.365354 0.872952 0.706994 -0.792899
H21   H     H_    0.371638 0.820783 0.679539 0.328426
N1    N     N_2   0.258140 0.938110 0.546201 -0.407802
H22   H     H_    0.294508 0.941730 0.516089 0.271955
C64   C     C_3   0.197446 0.849266 0.519405 -0.539230
H23   H     H_    0.232871 0.815869 0.536250 0.224157
H24   H     H_    0.153425 0.811359 0.447422 0.207193
H25   H     H_    0.155653 0.847540 0.548766 0.237462
N2    N     N_2   0.904283 0.902164 0.667611 -0.433801
H26   H     H_    0.935052 0.887939 0.712575 0.244787
C65   C     C_3   0.896980 0.978313 0.705524 -0.551364
H27   H     H_    0.896160 0.988011 0.766285 0.229623
H28   H     H_    0.836711 0.972158 0.659577 0.228048
H29   H     H_    0.954858 0.037308 0.722748 0.227622
C66   C     C_2   0.774806 0.773972 0.673525 0.842800
O27   O     O_2   0.790110 0.725108 0.696427 -0.572071
O28   O     O_R   0.772632 0.842966 0.729322 -0.803312
H30   H     H_    0.782144 0.844222 0.785731 0.327545
N3    N     N_2   0.628493 0.530170 0.304383 -0.379757
H31   H     H_    0.610142 0.496891 0.239622 0.290471
C67   C     C_3   0.685759 0.513170 0.360869 -0.583560
H32   H     H_    0.670298 0.444920 0.323599 0.213174
H33   H     H_    0.675187 0.519900 0.416223 0.224184
H34   H     H_    0.755475 0.558432 0.386183 0.240097
C68   C     C_2   0.768532 0.653308 0.305937 0.937617
O29   O     O_2   0.738014 0.604354 0.228331 -0.624223
O30   O     O_R   0.852927 0.679133 0.366903 -0.748751
H35   H     H_    0.881913 0.653091 0.338713 0.323066
N4    N     N_2   0.672098 0.836004 0.023730 -0.437163
H36   H     H_    0.655976 0.774051 0.981229 0.253798
C69   C     C_3   0.748929 0.905338 0.037938 -0.646801
H37   H     H_    0.745178 0.890295 0.974407 0.220759
H38   H     H_    0.809628 0.910909 0.081867 0.213370
H39   H     H_    0.751577 0.968831 0.065834 0.242610
N5    N     N_2   0.691808 0.775263 0.188720 -0.442653
H40   H     H_    0.650492 0.784670 0.210262 0.248935
C70   C     C_3   0.654959 0.684924 0.124151 -0.609359
H41   H     H_    0.624934 0.641071 0.145227 0.244172
H42   H     H_    0.707089 0.674819 0.116278 0.255122
H43   H     H_    0.602931 0.666690 0.060235 0.219950
C71   C     C_2   0.399886 0.687024 0.825458 0.929748
O31   O     O_2   0.328971 0.682508 0.801320 -0.523807
O32   O     O_R   0.425773 0.656803 0.881629 -0.736011
H44   H     H_    0.485096 0.662675 0.896418 0.279488
C72   C     C_2   0.370945 0.337744 0.830323 0.835914
O33   O     O_2   0.321360 0.276028 0.830214 -0.614419
O34   O     O_R   0.443730 0.410733 0.909470 -0.767759
H45   H     H_    0.448141 0.404473 0.961563 0.337594
N6    N     N_2   0.619844 0.191914 0.300914 -0.446827
H46   H     H_    0.681119 0.240185 0.354604 0.252325
C73   C     C_3   0.580330 0.119081 0.311667 -0.701874
H47   H     H_    0.626489 0.095836 0.330041 0.231159
H48   H     H_    0.519358 0.063735 0.249845 0.248660
H49   H     H_    0.564941 0.139732 0.364173 0.228124
N7    N     N_2   0.337013 0.181796 0.019091 -0.438511
H50   H     H_    0.278518 0.178065 0.986379 0.269147
C74   C     C_3   0.406498 0.229931 0.008026 -0.638958
H51   H     H_    0.378480 0.215910 0.939843 0.254041
H52   H     H_    0.455261 0.208675 0.019652 0.230425
H53   H     H_    0.439156 0.301440 0.053108 0.239018
N8    N     N_2   0.296428 0.100583 0.086573 -0.400285
H54   H     H_    0.231719 0.081408 0.049615 0.244367
C75   C     C_3   0.310299 0.082286 0.157032 -0.669262
H55   H     H_    0.256435 0.015909 0.131478 0.222606
H56   H     H_    0.310140 0.129915 0.210774 0.204396
H57   H     H_    0.372020 0.081866 0.182835 0.246956
C76   C     C_2   0.353596 0.329744 0.147064 0.896602
O35   O     O_2   0.280916 0.312456 0.097084 -0.602378
O36   O     O_R   0.427213 0.410896 0.182936 -0.754046
H58   H     H_    0.412087 0.449138 0.161641 0.325847
N9    N     N_2   0.217589 0.976124 0.879740 -0.398451
H59   H     H_    0.192655 0.013042 0.903456 0.247192
C77   C     C_3   0.162712 0.885283 0.850783 -0.606732
H60   H     H_    0.095371 0.858221 0.797614 0.204338
H61   H     H_    0.159017 0.880501 0.906302 0.225047
H62   H     H_    0.190118 0.845379 0.826665 0.255607
N10   N     N_2   0.458773 0.093149 0.764292 -0.441245
H63   H     H_    0.453659 0.145313 0.798084 0.258616
C78   C     C_3   0.514030 0.115286 0.728600 -0.654785
H64   H     H_    0.570786 0.183074 0.775993 0.221809
H65   H     H_    0.476995 0.111671 0.666595 0.221960
H66   H     H_    0.540376 0.070823 0.717443 0.259533

loop_
_geom_bond_atom_site_label_1
_geom_bond_atom_site_label_2
_ccdc_geom_bond_type
C19   C66   S    
C67   H34   S    
C74   H51   S    
C16   C21   A    
C71   O32   S    
C1    C8    S    
C11   C13   A    
N7    H50   S    
C58   N8    S    
Cu6   O15   S    
C38   O10   A    
C69   H37   S    
Cu2   O21   S    
N2    H26   S    
N8    C75   S    
C53   C54   A    
C46   C71   S    
C74   H52   S    
C50   H14   S    
C26   C27   A    
C73   H47   S    
C41   O17   A    
C28   C29   A    
N6    C73   S    
C63   O25   D    
C56   C72   S    
N5    C70   S    
C9    H20   S    
C5    C6    A    
N9    C77   S    
N4    H36   S    
C10   N9    S    
C6    C35   S    
C37   O7    A    
N4    C69   S    
C18   C19   A    
C23   C26   S    
C42   C43   A    
C59   C76   S    
C77   H62   S    
C3    C12   S    
N2    C65   S    
C32   H9    S    
C54   C55   A    
O30   H35   S    
C36   O5    A    
O32   H44   S    
C38   C55   S    
C72   O33   D    
C45   C56   A    
C16   C17   A    
C78   H65   S    
C65   H29   S    
C70   H41   S    
C72   O34   S    
C51   C57   A    
C54   N6    S    
C9    C10   A    
C27   H5    S    
C36   C52   S    
Cu5   O11   S    
C18   N2    S    
Cu4   O6    S    
C35   O4    A    
C75   H57   S    
C25   C32   S    
C7    C15   S    
C65   H27   S    
C16   C24   S    
C67   H33   S    
C13   C14   S    
C70   H42   S    
C34   O23   A    
N7    C74   S    
C38   O9    A    
N1    H22   S    
C1    O12   A    
C4    H1    S    
C69   H38   S    
C44   C46   A    
Cu5   O16   S    
C39   O13   A    
C57   C58   S    
C64   H24   S    
C24   C68   S    
C23   O21   A    
C74   H53   S    
C32   N5    S    
C22   N3    S    
C51   C52   A    
C33   C43   S    
C67   H32   S    
C58   N7    S    
C59   H16   S    
Cu4   O2    S    
C64   H23   S    
C76   O36   S    
C8    C9    A    
Cu2   O23   S    
Cu4   O4    S    
C75   H56   S    
C58   C59   S    
C76   O35   D    
C40   C47   S    
Cu5   Cu6   S    
C37   O8    A    
C60   C61   A    
O36   H58   S    
N10   C78   S    
Cu3   O24   S    
C55   C57   A    
C29   C30   A    
C65   H28   S    
C36   O6    A    
C39   O11   A    
C47   C48   A    
Cu2   O12   S    
C60   H17   S    
C78   H66   S    
Cu1   O1    S    
C17   C18   A    
C33   O24   A    
C42   C48   A    
Cu6   O13   S    
Cu1   O18   S    
C11   C39   S    
C42   C50   S    
C14   N10   S    
C48   C49   S    
C78   H64   S    
C73   H49   S    
C2    C45   A    
C43   C44   A    
N3    H31   S    
C34   O22   A    
C49   C50   S    
C22   C24   S    
C51   C59   S    
C17   C34   S    
C3    C4    A    
C22   H3    S    
C71   O31   D    
C69   H39   S    
C49   H11   S    
C52   C53   A    
C24   H4    S    
Cu2   O19   S    
Cu4   O8    S    
C66   O27   D    
C64   H25   S    
C25   C30   A    
Cu3   O3    S    
C15   H2    S    
C46   C47   A    
C1    O1    A    
C29   C41   S    
C33   O2    A    
C31   C32   S    
C4    C5    A    
O28   H30   S    
C12   O19   A    
C68   O29   D    
C41   O16   A    
C70   H43   S    
C61   H18   S    
C14   C63   S    
N9    H59   S    
C49   H12   S    
C53   H15   S    
C6    C62   A    
C19   C20   A    
N1    C64   S    
C2    C3    A    
C25   C26   A    
C77   H60   S    
N8    H54   S    
O34   H45   S    
N5    H40   S    
C40   O15   A    
C12   O18   A    
C20   C37   S    
C68   O30   S    
C31   H8    S    
C30   C31   S    
Cu1   O22   S    
C23   O20   A    
C44   H10   S    
Cu3   O5    S    
Cu3   Cu4   S    
C31   N4    S    
C61   C62   A    
N10   H63   S    
Cu6   O10   S    
C77   H61   S    
N6    H46   S    
C7    C8    A    
C10   C11   A    
Cu5   O9    S    
C40   O14   A    
Cu1   Cu2   S    
C5    H19   S    
C15   N1    S    
C7    C13   A    
C56   C60   A    
C20   C21   A    
Cu5   O14   S    
C73   H48   S    
C75   H55   S    
Cu6   O17   S    
C27   C28   A    
N3    C67   S    
C14   C15   S    
C45   H6    S    
C63   O26   S    
Cu1   O20   S    
C21   C22   S    
C28   H7    S    
C2    C62   A    
Cu3   O7    S    
O26   H21   S    
C50   H13   S    
C66   O28   S    
C35   O3    A    
