data_mof_unit_21072.cif
_audit_creation_date              2012-12-10T17:21:07-0500
_audit_creation_method            fapswitch 2.2
_symmetry_space_group_name_H-M    P1
_symmetry_Int_Tables_number       1
_space_group_crystal_system       triclinic
_cell_length_a                    10.099885
_cell_length_b                    10.724859
_cell_length_c                    10.559602
_cell_angle_alpha                 90.581678
_cell_angle_beta                  94.698195
_cell_angle_gamma                 82.163374
_cell_volume                      1129.32425007

loop_
_atom_site_label
_atom_site_type_symbol
_atom_type_description
_atom_site_fract_x
_atom_site_fract_y
_atom_site_fract_z
_atom_type_partial_charge
C1    C     C_R   0.444734 0.502098 0.265694 0.910091
C2    C     C_2   0.928440 0.505048 0.516216 -0.133336
C3    C     C_R   0.492577 0.260744 0.477212 0.813492
C4    C     C_R   0.554603 0.481645 0.733384 0.949753
C5    C     C_R   0.498219 0.742425 0.492176 0.859246
C6    C     C_3   0.609788 0.055492 0.398384 -0.067408
C7    C     C_3   0.603901 0.912406 0.397499 -0.441752
C8    C     C_3   0.493471 0.076833 0.604437 -0.430487
C9    C     C_3   0.350979 0.085635 0.388206 -0.119681
C10   C     C_3   0.484608 0.123614 0.464203 0.044448
C11   C     C_3   0.232508 0.931364 0.519579 -0.324257
C12   C     C_3   0.489599 0.879684 0.477364 0.074109
C13   C     C_3   0.110599 0.860924 0.482753 -0.354812
C14   C     C_3   0.023379 0.855362 0.594238 -0.945151
C15   C     C_3   0.373578 0.342863 0.872376 -0.320508
C16   C     C_3   0.342020 0.228552 0.945428 -0.388347
C17   C     C_3   0.213925 0.182781 0.886977 -0.906975
C18   C     C_3   0.629663 0.108132 0.264444 -0.441008
C19   C     C_3   0.749186 0.035510 0.201063 -0.349020
C20   C     C_3   0.790464 0.111256 0.092641 -0.907084
C21   C     C_3   0.223625 0.186083 0.400183 -0.387274
C22   C     C_3   0.086538 0.167276 0.331466 -0.358907
C23   C     C_3   0.523071 0.934074 0.611154 -0.492167
C24   C     C_3   0.974554 0.177401 0.422184 -0.895283
C25   C     C_3   0.296708 0.868375 0.290114 -0.440694
C26   C     C_3   0.380141 0.857330 0.173337 -0.399889
C27   C     C_3   0.296325 0.824538 0.053429 -0.894626
C28   C     C_3   0.341304 0.940952 0.416992 0.259528
C29   C     C_2   0.415446 0.476682 0.132107 -0.392984
C30   C     C_2   0.512608 0.412652 0.068936 -0.185494
C31   C     C_2   0.583208 0.450181 0.866756 -0.423743
C32   C     C_2   0.495741 0.397713 0.932476 0.135228
C33   C     C_2   0.068874 0.501789 0.480323 -0.162319
H1    H     H_    0.397670 0.108403 0.646933 0.181582
H2    H     H_    0.701299 0.070352 0.460142 0.185429
H3    H     H_    0.082746 0.805325 0.676114 0.259062
H4    H     H_    0.983865 0.950836 0.626684 0.259401
H5    H     H_    0.937402 0.804242 0.564824 0.250882
H6    H     H_    0.047536 0.904539 0.400191 0.203901
H7    H     H_    0.144444 0.763261 0.455149 0.256651
H8    H     H_    0.279024 0.883687 0.606997 0.204167
H9    H     H_    0.194055 0.023281 0.558637 0.202841
H10   H     H_    0.127811 0.259082 0.888761 0.261278
H11   H     H_    0.225280 0.152014 0.787329 0.253154
H12   H     H_    0.471028 0.897588 0.688519 0.164537
H13   H     H_    0.191767 0.102172 0.942667 0.253476
H14   H     H_    0.426876 0.150892 0.943305 0.222148
H15   H     H_    0.327379 0.253169 0.046215 0.229743
H16   H     H_    0.285559 0.417699 0.867935 0.198810
H17   H     H_    0.390948 0.310172 0.774326 0.212991
H18   H     H_    0.612397 0.383712 0.114560 0.169803
H19   H     H_    0.672571 0.480673 0.915153 0.133915
H20   H     H_    0.098255 0.454018 0.394121 0.167785
H21   H     H_    0.871026 0.415990 0.361582 0.170916
H22   H     H_    0.704999 0.133353 0.019638 0.265510
H23   H     H_    0.316018 0.506394 0.086425 0.152541
H24   H     H_    0.823646 0.200407 0.128977 0.254287
H25   H     H_    0.874976 0.055568 0.047613 0.248342
H26   H     H_    0.836401 0.012146 0.271592 0.228737
H27   H     H_    0.721614 0.945667 0.160717 0.217205
H28   H     H_    0.539979 0.108581 0.197191 0.181939
H29   H     H_    0.646596 0.207775 0.274730 0.225111
H30   H     H_    0.703015 0.865204 0.438560 0.175973
H31   H     H_    0.968008 0.087829 0.467832 0.264069
H32   H     H_    0.989908 0.245396 0.499628 0.270719
H33   H     H_    0.876334 0.205773 0.368977 0.258813
H34   H     H_    0.897545 0.555552 0.600763 0.163915
H35   H     H_    0.057537 0.243041 0.259152 0.193598
H36   H     H_    0.087732 0.080252 0.276945 0.224710
H37   H     H_    0.212500 0.209801 0.501552 0.230907
H38   H     H_    0.246530 0.272653 0.354574 0.190548
H39   H     H_    0.255970 0.734797 0.066827 0.257873
H40   H     H_    0.211167 0.899913 0.031023 0.253688
H41   H     H_    0.359623 0.814042 0.971755 0.255866
H42   H     H_    0.420775 0.944956 0.153865 0.226291
H43   H     H_    0.462989 0.778181 0.187952 0.220419
H44   H     H_    0.286852 0.770022 0.312737 0.221662
H45   H     H_    0.127376 0.589498 0.635990 0.172368
H46   H     H_    0.194793 0.907776 0.255020 0.201188
H47   H     H_    0.596301 0.874757 0.301387 0.170239
H48   H     H_    0.573736 0.116557 0.664352 0.177465
H49   H     H_    0.631387 0.906668 0.641596 0.188936
H50   H     H_    0.363725 0.092656 0.286393 0.140011
N1    N     N_2   0.157300 0.551950 0.551120 -0.207965
N2    N     N_2   0.842730 0.448000 0.448950 -0.203574
O1    O     O_R   0.568940 0.489540 0.307530 -0.615644
O2    O     O_R   0.348880 0.522880 0.340350 -0.631425
O3    O     O_R   0.610030 0.298130 0.483570 -0.619135
O4    O     O_R   0.389960 0.331470 0.516390 -0.636796
O5    O     O_R   0.651120 0.477120 0.659650 -0.598096
O6    O     O_R   0.431060 0.510460 0.692470 -0.605158
O7    O     O_R   0.610040 0.668530 0.483610 -0.612477
O8    O     O_R   0.389970 0.701870 0.516430 -0.628731
Zn1   Zn    Zn3+2 0.646940 0.477740 0.478080 0.910337
Zn2   Zn    Zn3+2 0.353060 0.522260 0.521920 0.890576

loop_
_geom_bond_atom_site_label_1
_geom_bond_atom_site_label_2
_ccdc_geom_bond_type
C1    O2    A    
C30   H18   S    
C23   H12   S    
C23   H49   S    
C19   C20   S    
C31   H19   S    
C16   H15   S    
C15   C32   S    
C25   C28   S    
C12   C23   S    
C26   C27   S    
C21   H38   S    
C25   H44   S    
C21   C22   S    
C14   H3    S    
C15   C16   S    
C8    C23   S    
C6    H2    S    
C11   H9    S    
C18   C19   S    
C15   H17   S    
C13   H7    S    
O1    Zn1   S    
C16   C17   S    
O2    Zn2   S    
C26   H43   S    
C27   H41   S    
C9    C10   S    
C22   H36   S    
C24   H33   S    
C4    O6    A    
O8    Zn2   S    
C13   C14   S    
C20   H22   S    
C16   H14   S    
O7    Zn1   S    
O5    Zn1   S    
C4    O5    A    
C33   H20   S    
C7    C12   S    
C6    C18   S    
O3    Zn1   S    
C8    H48   S    
C5    O7    A    
C17   H13   S    
C5    C12   S    
C2    H34   S    
C18   H29   S    
C2    N2    D    
C19   H26   S    
C25   C26   S    
N1    Zn2   S    
O4    Zn2   S    
C17   H10   S    
C29   C30   D    
C14   H5    S    
N2    Zn1   S    
C31   C32   D    
C22   H35   S    
C1    C29   S    
C26   H42   S    
C8    H1    S    
C7    H30   S    
C24   H32   S    
C9    H50   S    
C2    C33   S    
C8    C10   S    
C12   C28   S    
C22   C24   S    
C20   H25   S    
C1    O1    A    
C3    O3    A    
C25   H46   S    
C6    C10   S    
H21   N2    S    
C5    O8    A    
C18   H28   S    
C6    C7    S    
C29   H23   S    
C19   H27   S    
C21   H37   S    
C3    O4    A    
C17   H11   S    
C3    C10   S    
C14   H4    S    
C30   C32   S    
C11   C13   S    
C9    C21   S    
C11   C28   S    
C11   H8    S    
C15   H16   S    
C33   N1    D    
C13   H6    S    
C4    C31   S    
O6    Zn2   S    
H45   N1    S    
C24   H31   S    
C20   H24   S    
C27   H40   S    
C27   H39   S    
C9    C28   S    
C7    H47   S    
