data_mof_unit_18269.cif
_audit_creation_date              2012-12-10T17:32:13-0500
_audit_creation_method            fapswitch 2.2
_symmetry_space_group_name_H-M    P1
_symmetry_Int_Tables_number       1
_space_group_crystal_system       triclinic
_cell_length_a                    12.454855
_cell_length_b                    13.463472
_cell_length_c                    15.031189
_cell_angle_alpha                 74.48097
_cell_angle_beta                  101.675997
_cell_angle_gamma                 117.958948
_cell_volume                      2136.37784551

loop_
_atom_site_label
_atom_site_type_symbol
_atom_type_description
_atom_site_fract_x
_atom_site_fract_y
_atom_site_fract_z
_atom_type_partial_charge
C1    C     C_R   0.854408 0.285972 0.510599 0.944989
C2    C     C_R   0.047054 0.608305 0.074844 -0.065207
C3    C     C_R   0.884562 0.293632 0.082553 -0.188758
C4    C     C_R   0.879621 0.288091 0.990621 0.437246
C5    C     C_R   0.939260 0.390219 0.924688 -0.050423
C6    C     C_R   0.991130 0.497766 0.952839 -0.084840
C7    C     C_R   0.041606 0.602000 0.888089 -0.003599
C8    C     C_R   0.092361 0.707426 0.916441 0.658584
C9    C     C_R   0.095536 0.710400 0.008824 -0.167464
C10   C     C_R   0.950592 0.390705 0.832539 0.441582
C11   C     C_R   0.997689 0.495361 0.768560 -0.166785
C12   C     C_R   0.999317 0.498121 0.671113 0.895447
C13   C     C_R   0.040733 0.599439 0.795947 -0.199889
C14   C     C_R   0.287485 0.983381 0.589252 0.437032
C15   C     C_R   0.228725 0.830068 0.506453 -0.203868
C16   C     C_R   0.809637 0.100438 0.468203 0.252169
C17   C     C_R   0.733638 0.983904 0.467691 0.385648
C18   C     C_R   0.614949 0.932260 0.495413 0.329147
C19   C     C_R   0.569620 0.999553 0.519297 -0.102538
C20   C     C_R   0.656199 0.105530 0.542387 -0.253335
C21   C     C_R   0.444183 0.962060 0.530040 0.004874
C22   C     C_R   0.412208 0.017542 0.581303 -0.272098
C23   C     C_R   0.145408 0.712806 0.491858 0.863533
C24   C     C_R   0.507015 0.101521 0.626849 0.594175
C25   C     C_R   0.627306 0.143393 0.608075 0.660589
C26   C     C_R   0.350207 0.873731 0.488640 -0.115243
C27   C     C_R   0.196198 0.887990 0.553791 0.288951
C28   C     C_R   0.773503 0.162084 0.509133 -0.177909
C29   C     C_R   0.362558 0.360821 0.668131 0.628499
C30   C     C_R   0.760381 0.639681 0.367506 0.778713
C31   C     C_R   0.668768 0.674813 0.336670 -0.335983
C32   C     C_R   0.569317 0.631660 0.387609 0.723410
C33   C     C_R   0.556937 0.546664 0.470066 -0.118781
C34   C     C_R   0.001146 0.502828 0.329161 0.854366
C35   C     C_R   0.655709 0.515232 0.499590 -0.099105
C36   C     C_R   0.453468 0.491031 0.525504 -0.190611
C37   C     C_R   0.463477 0.423690 0.615390 -0.357301
C38   C     C_R   0.570515 0.411484 0.647160 0.446725
C39   C     C_R   0.652484 0.440806 0.584983 0.588486
C40   C     C_R   0.339017 0.495012 0.496635 0.831687
C41   C     C_R   0.254007 0.366696 0.634223 0.373313
C42   C     C_R   0.050509 0.609704 0.168914 0.386542
C43   C     C_R   0.000598 0.505250 0.232247 -0.098881
C44   C     C_R   0.946445 0.400978 0.203421 -0.232751
C45   C     C_R   0.942239 0.398400 0.110926 0.072571
C46   C     C_R   0.993375 0.501550 0.046124 0.034000
Cu1   Cu    Cu3+1 0.098270 0.475420 0.521130 1.146693
Cu2   Cu    Cu3+1 0.901730 0.524580 0.478870 1.136153
H1    H     H_    0.370211 0.835568 0.443254 0.238856
H2    H     H_    0.906295 0.321629 0.253343 0.179331
H3    H     H_    0.677880 0.740631 0.274674 0.232774
H4    H     H_    0.840328 0.215029 0.132189 0.199445
H5    H     H_    0.077230 0.678721 0.745342 0.219980
H6    H     H_    0.136438 0.793498 0.027784 0.243863
N1    N     N_R   0.246280 0.438190 0.553160 -0.334454
N2    N     N_R   0.754320 0.561190 0.447410 -0.240721
O1    O     O_R   0.972510 0.318130 0.526570 -0.503978
O2    O     O_R   0.806530 0.359650 0.490890 -0.549581
O3    O     O_R   0.082980 0.479210 0.647590 -0.563703
O4    O     O_R   0.917000 0.520730 0.611900 -0.502996
O5    O     O_R   0.193470 0.640350 0.509110 -0.560436
O6    O     O_R   0.027490 0.681870 0.473430 -0.489923
O7    O     O_R   0.083000 0.479270 0.388100 -0.501474
O8    O     O_R   0.917020 0.520790 0.352410 -0.545682
Cl1   Cl    Cl    0.117986 0.740243 0.209210 -0.489521
F1    F     F_    0.486021 0.137354 0.694763 -0.506822
Cl2   Cl    Cl    0.241933 0.059151 0.641808 -0.291338
Cl3   Cl    Cl    0.951295 0.165280 0.419857 -0.482108
Cl4   Cl    Cl    0.542049 0.780991 0.527838 -0.509120
Cl5   Cl    Cl    0.789220 0.901508 0.434631 -0.402647
F2    F     F_    0.717397 0.202864 0.666843 -0.522551
Cl6   Cl    Cl    0.125534 0.273086 0.694394 -0.315020
Cl7   Cl    Cl    0.606936 0.354967 0.763777 -0.295348
F3    F     F_    0.364437 0.286500 0.749197 -0.490723
F4    F     F_    0.313528 0.546680 0.410759 -0.558458
F5    F     F_    0.859372 0.689283 0.318812 -0.577035
F6    F     F_    0.496688 0.685700 0.359189 -0.541681
F7    F     F_    0.719660 0.384152 0.607482 -0.586187
Cl8   Cl    Cl    0.783945 0.150971 0.964570 -0.356563
Cl9   Cl    Cl    0.921589 0.265226 0.797205 -0.319525
F8    F     F_    0.140490 0.808168 0.854848 -0.573661
Cl10  Cl    Cl    0.042646 0.839091 0.574187 -0.412753

loop_
_geom_bond_atom_site_label_1
_geom_bond_atom_site_label_2
_ccdc_geom_bond_type
C16   C28   A    
C21   C26   A    
C19   C20   A    
C7    C8    A    
C45   C46   A    
C2    C46   A    
C5    C6    A    
C36   C37   A    
C19   C21   A    
Cu1   O7    S    
C38   C39   A    
Cu2   O8    S    
C20   C25   A    
C33   C36   A    
C18   C19   A    
C41   N1    A    
C32   F6    S    
C12   O3    A    
Cu2   O6    S    
C23   O6    A    
Cu1   Cu2   S    
C8    C9    A    
C1    C28   S    
C14   Cl2   S    
C25   F2    S    
C14   C27   A    
C24   F1    S    
C18   Cl4   S    
C15   C23   S    
C17   Cl5   S    
C21   C22   A    
Cu2   O4    S    
C13   H5    S    
C8    F8    S    
C39   F7    S    
C36   C40   A    
C24   C25   A    
C4    Cl8   S    
C26   H1    S    
C10   Cl9   S    
C16   C17   A    
C15   C26   A    
C29   F3    S    
C20   C28   A    
C30   N2    A    
C3    C45   A    
C35   C39   A    
C43   C44   A    
C37   C38   A    
C1    O1    A    
Cu1   O1    S    
C30   F5    S    
C15   C27   A    
C31   C32   A    
C7    C13   A    
C3    H4    S    
C40   N1    A    
C34   O8    A    
C17   C18   A    
C41   Cl6   S    
C16   Cl3   S    
C22   C24   A    
C42   C43   A    
C3    C4    A    
C44   C45   A    
Cu1   N1    S    
C44   H2    S    
Cu2   N2    S    
C42   Cl1   S    
C6    C46   A    
C29   C41   A    
C35   N2    A    
C27   Cl10  S    
C34   C43   S    
C31   H3    S    
C4    C5    A    
Cu1   O5    S    
C11   C12   S    
Cu2   O2    S    
C6    C7    A    
C40   F4    S    
C32   C33   A    
C14   C22   A    
C5    C10   A    
C1    O2    A    
C11   C13   A    
C30   C31   A    
C2    C42   A    
C34   O7    A    
C33   C35   A    
C10   C11   A    
Cu1   O3    S    
C12   O4    A    
C23   O5    A    
C29   C37   A    
C9    H6    S    
C2    C9    A    
C38   Cl7   S    
