data_mof_unit_63634.cif
_audit_creation_date              2012-10-26T17:14:03-0400
_audit_creation_method            fapswitch 2.2
_symmetry_space_group_name_H-M    P1
_symmetry_Int_Tables_number       1
_space_group_crystal_system       triclinic
_cell_length_a                    19.254282
_cell_length_b                    18.944832
_cell_length_c                    19.006967
_cell_angle_alpha                 109.467852
_cell_angle_beta                  110.019287
_cell_angle_gamma                 109.930091
_cell_volume                      5269.90168097

loop_
_atom_site_label
_atom_site_type_symbol
_atom_type_description
_atom_site_fract_x
_atom_site_fract_y
_atom_site_fract_z
_atom_type_partial_charge
C1    C     C_R   0.377835 0.381567 0.494263 0.577872
C2    C     C_R   0.605374 0.336831 0.616960 0.001473
C3    C     C_2   0.173065 0.249088 0.489009 -0.151467
C4    C     C_R   0.617447 0.499942 0.618876 0.541252
C5    C     C_2   0.186278 0.194253 0.513765 -0.109754
C6    C     C_2   0.246832 0.324731 0.503628 0.242103
C7    C     C_2   0.301936 0.310528 0.479880 0.266176
C8    C     C_2   0.167630 0.468120 0.230672 -0.136909
C9    C     C_2   0.181858 0.519764 0.197344 -0.117046
C10   C     C_2   0.239179 0.482347 0.306722 -0.029559
C11   C     C_2   0.313924 0.492969 0.309261 0.014492
C12   C     C_R   0.753734 0.583556 0.761631 -0.048389
C13   C     C_2   0.736136 0.753422 0.423223 0.249164
C14   C     C_2   0.817448 0.806483 0.491651 -0.092735
C15   C     C_2   0.677285 0.676195 0.420420 -0.037050
C16   C     C_R   0.614526 0.618095 0.497561 0.558757
C17   C     C_2   0.672925 0.687034 0.492474 -0.135530
C18   C     C_R   0.994812 0.381657 0.878053 0.548916
C19   C     C_R   0.879930 0.505402 0.883870 0.595557
C20   C     C_R   0.000457 0.618307 0.117020 0.609737
C21   C     C_R   0.114800 0.504720 0.119110 0.562861
C22   C     C_R   0.001871 0.119265 0.617517 0.551017
C23   C     C_R   0.815916 0.507901 0.817639 -0.010228
C24   C     C_R   0.117606 0.120308 0.503187 0.552856
C25   C     C_R   0.996404 0.879160 0.382282 0.572646
C26   C     C_R   0.882594 0.880005 0.497564 0.567772
C27   C     C_2   0.991922 0.249440 0.675287 -0.166751
C28   C     C_R   0.381302 0.498439 0.380763 0.563353
C29   C     C_2   0.009052 0.189917 0.686744 -0.115436
C30   C     C_2   0.003026 0.322284 0.747457 -0.167055
C31   C     C_2   0.987487 0.311877 0.807885 -0.120026
C32   C     C_2   0.019886 0.757492 0.328145 -0.152098
C33   C     C_2   0.981330 0.802256 0.311739 0.217764
C34   C     C_R   0.752651 0.428386 0.738580 -0.026419
C35   C     C_2   0.005219 0.680098 0.256074 0.252634
C36   C     C_2   0.011320 0.688029 0.190389 -0.026944
C37   C     C_R   0.763054 0.663013 0.766891 -0.167148
C38   C     C_R   0.817903 0.741312 0.844965 -0.139151
C39   C     C_R   0.870706 0.744481 0.918213 0.282914
C40   C     C_R   0.878911 0.670942 0.909697 0.279741
C41   C     C_R   0.816729 0.587252 0.831299 -0.026525
C42   C     C_3   0.218150 0.422768 0.582911 -0.127057
C43   C     C_3   0.232612 0.187577 0.347808 -0.126314
C44   C     C_3   0.221669 0.474562 0.376287 -0.355242
C45   C     C_R   0.678878 0.422365 0.680597 0.019935
C46   C     C_3   0.325783 0.483515 0.232007 -0.404253
C47   C     C_3   0.639223 0.773041 0.334162 -0.109121
C48   C     C_3   0.622494 0.589590 0.336012 -0.357869
C49   C     C_3   0.840298 0.715972 0.203507 -0.124017
C50   C     C_3   0.962752 0.592593 0.312510 -0.116381
C51   C     C_3   0.892056 0.816829 0.052704 -0.098519
C52   C     C_3   0.026650 0.744181 0.994889 -0.047497
C53   C     C_3   0.706561 0.195911 0.621884 -0.407852
C54   C     C_3   0.513856 0.316803 0.579299 -0.348619
C55   C     C_R   0.683221 0.501351 0.688225 -0.005051
C56   C     C_R   0.761549 0.354043 0.716464 -0.082378
C57   C     C_R   0.694557 0.273073 0.644078 0.000738
C58   C     C_R   0.615569 0.264117 0.596647 -0.081104
Cu1   Cu    Cu3+1 0.500390 0.438990 0.439360 0.894521
Cu2   Cu    Cu3+1 0.499610 0.561010 0.560640 0.934801
Cu3   Cu    Cu3+1 0.935830 0.439030 0.996840 0.963246
Cu4   Cu    Cu3+1 0.057850 0.561040 0.996790 0.904012
Cu5   Cu    Cu3+1 0.061410 0.000010 0.561410 0.921399
Cu6   Cu    Cu3+1 0.938590 0.999990 0.438590 0.949993
H1    H     H_    0.560634 0.199731 0.545726 0.109772
H2    H     H_    0.019613 0.383454 0.748126 0.141724
H3    H     H_    0.961693 0.248075 0.801862 0.106356
H4    H     H_    0.060620 0.775949 0.394768 0.101560
H5    H     H_    0.031612 0.750660 0.193643 0.103671
H6    H     H_    0.818880 0.799998 0.848747 0.136680
H7    H     H_    0.821098 0.358375 0.754455 0.129382
H8    H     H_    0.109282 0.240637 0.460782 0.124268
H9    H     H_    0.238432 0.406444 0.634735 0.120040
H10   H     H_    0.146833 0.386680 0.541388 0.109928
H11   H     H_    0.240398 0.493330 0.615658 0.141208
H12   H     H_    0.251516 0.207677 0.548773 0.143620
H13   H     H_    0.262310 0.224448 0.321047 0.133609
H14   H     H_    0.168609 0.180895 0.331618 0.115045
H15   H     H_    0.221734 0.120984 0.315020 0.147187
H16   H     H_    0.266553 0.537112 0.439216 0.169961
H17   H     H_    0.155034 0.459166 0.359348 0.122504
H18   H     H_    0.229162 0.421381 0.383577 0.158025
H19   H     H_    0.378851 0.470920 0.236042 0.139873
H20   H     H_    0.266597 0.427848 0.169951 0.139991
H21   H     H_    0.343837 0.544740 0.230241 0.110376
H22   H     H_    0.580698 0.710469 0.307959 0.111703
H23   H     H_    0.102946 0.415138 0.202776 0.147870
H24   H     H_    0.627058 0.791840 0.283755 0.133648
H25   H     H_    0.650145 0.825580 0.393054 0.116881
H26   H     H_    0.632702 0.596042 0.283892 0.149227
H27   H     H_    0.640271 0.541955 0.344802 0.147759
H28   H     H_    0.553164 0.564293 0.313877 0.130992
H29   H     H_    0.819599 0.746263 0.247069 0.159628
H30   H     H_    0.836068 0.655846 0.203261 0.119808
H31   H     H_    0.794419 0.696230 0.136462 0.131992
H32   H     H_    0.905246 0.599773 0.298268 0.106892
H33   H     H_    0.014045 0.638054 0.382139 0.113128
H34   H     H_    0.245045 0.576925 0.229841 0.110282
H35   H     H_    0.942318 0.525286 0.300104 0.139697
H36   H     H_    0.899647 0.768588 0.070594 0.185491
H37   H     H_    0.823636 0.799999 0.024129 0.107925
H38   H     H_    0.931100 0.881181 0.113626 0.155283
H39   H     H_    0.052847 0.808207 0.051840 0.151328
H40   H     H_    0.022916 0.752004 0.938257 0.092481
H41   H     H_    0.074209 0.723408 0.011771 0.146936
H42   H     H_    0.647471 0.135844 0.563358 0.125220
H43   H     H_    0.760223 0.209012 0.608789 0.137392
H44   H     H_    0.722501 0.184308 0.677360 0.138928
H45   H     H_    0.838588 0.792455 0.543532 0.053263
H46   H     H_    0.484479 0.291665 0.508489 0.187760
H47   H     H_    0.476076 0.264986 0.588389 0.124660
H48   H     H_    0.508535 0.373322 0.612521 0.137128
H49   H     H_    0.727307 0.666403 0.711555 0.160335
H50   H     H_    0.709236 0.752332 0.548932 0.077716
H51   H     H_    0.974081 0.247635 0.613680 0.140146
H52   H     H_    0.035805 0.197001 0.750802 0.108406
O1    O     O_R   0.411310 0.359450 0.448800 -0.521859
O2    O     O_R   0.947570 0.089010 0.536620 -0.512949
O3    O     O_R   0.140880 0.089030 0.551840 -0.506057
O4    O     O_R   0.410660 0.462490 0.551220 -0.476590
O5    O     O_R   0.037150 0.089020 0.448130 -0.510437
O6    O     O_R   0.052430 0.910990 0.463380 -0.537540
O7    O     O_R   0.948700 0.910980 0.359670 -0.478365
O8    O     O_R   0.962850 0.910980 0.551870 -0.524304
O9    O     O_R   0.859120 0.910970 0.448160 -0.457768
O10   O     O_R   0.589930 0.448490 0.538390 -0.506076
O11   O     O_R   0.589280 0.551530 0.640800 -0.519208
O12   O     O_R   0.048900 0.462510 0.908320 -0.508089
O13   O     O_R   0.589340 0.537510 0.448780 -0.506897
O14   O     O_R   0.588690 0.640550 0.551200 -0.515917
O15   O     O_R   0.410720 0.448470 0.359200 -0.523003
O16   O     O_R   0.410070 0.551510 0.461610 -0.508227
O17   O     O_R   0.945860 0.359480 0.908360 -0.517096
O18   O     O_3   0.255768 0.407150 0.531858 -0.579977
O19   O     O_3   0.287194 0.226663 0.438289 -0.611830
O20   O     O_3   0.712043 0.763984 0.351421 -0.553847
O21   O     O_3   0.923830 0.775225 0.226911 -0.601410
O22   O     O_3   0.994647 0.604242 0.258111 -0.550805
O23   O     O_R   0.855710 0.448510 0.907250 -0.519472
O24   O     O_3   0.922209 0.823316 0.995856 -0.586936
O25   O     O_3   0.947026 0.681870 0.977946 -0.555723
O26   O     O_R   0.958760 0.551540 0.907200 -0.488693
O27   O     O_R   0.944780 0.537560 0.085320 -0.459139
O28   O     O_R   0.047820 0.640590 0.085270 -0.519901
O29   O     O_R   0.034920 0.448530 0.086440 -0.500079
O30   O     O_R   0.137970 0.551560 0.086390 -0.518354
O31   O     O_R   0.051300 0.089020 0.640330 -0.508342

loop_
_geom_bond_atom_site_label_1
_geom_bond_atom_site_label_2
_ccdc_geom_bond_type
C14   H45   S    
C38   H6    S    
C52   H39   S    
C34   C56   A    
C9    H34   S    
C22   C29   S    
C49   O21   S    
C47   O20   S    
C27   C29   D    
C20   O28   A    
C35   C36   D    
C3    C6    S    
C9    C21   S    
Cu2   O16   S    
Cu5   O8    S    
Cu3   O17   S    
Cu1   O10   S    
C31   H3    S    
Cu1   O15   S    
C42   H11   S    
C37   C38   A    
C44   H18   S    
C35   O22   S    
C30   C31   D    
C37   H49   S    
C43   H15   S    
Cu6   O5    S    
Cu6   O2    S    
C56   C57   A    
C54   H46   S    
C18   O17   A    
C15   C17   D    
C12   C37   A    
Cu3   O29   S    
C18   O12   A    
C53   H42   S    
Cu3   O27   S    
Cu1   O13   S    
C33   O21   S    
C8    C9    D    
C24   O3    A    
C48   H27   S    
C51   H38   S    
C49   H30   S    
C16   O14   A    
C25   O6    A    
C32   H4    S    
C46   H21   S    
C51   O24   S    
C23   C34   A    
Cu1   Cu2   S    
Cu1   O1    S    
C48   H26   S    
C40   O25   S    
C27   C30   S    
C47   H25   S    
C20   O27   A    
C26   O8    A    
C15   C48   S    
Cu4   O26   S    
Cu5   O31   S    
C17   H50   S    
C2    C45   A    
C42   H10   S    
C10   C44   S    
C32   C35   S    
C44   H16   S    
C44   H17   S    
C2    C54   S    
Cu2   O14   S    
C39   C40   A    
C53   C57   S    
Cu3   O23   S    
C49   H31   S    
Cu5   Cu6   S    
C43   H14   S    
C26   O9    A    
C21   O29   A    
C19   C23   S    
C47   H22   S    
C7    O19   S    
C12   C41   A    
Cu5   O3    S    
C53   H43   S    
C58   H1    S    
C56   H7    S    
C2    C58   A    
C50   H35   S    
C54   H48   S    
C34   C45   A    
C1    O1    A    
C14   C26   S    
C43   O19   S    
C16   O13   A    
C25   O7    A    
C30   H2    S    
C46   H20   S    
C8    C10   S    
C40   C41   A    
C29   H52   S    
C52   H41   S    
C19   O26   A    
C13   C15   S    
C4    C55   S    
C48   H28   S    
C13   O20   S    
C51   H37   S    
Cu5   O6    S    
C36   H5    S    
C51   H36   S    
C22   O2    A    
C39   O24   S    
C52   H40   S    
C50   H33   S    
C4    O11   A    
C1    C7    S    
Cu2   O11   S    
Cu4   O28   S    
C3    C5    D    
C50   O22   S    
C6    C7    D    
C43   H13   S    
Cu6   O7    S    
C52   O25   S    
C23   C41   A    
C4    O10   A    
C42   O18   S    
C28   O15   A    
C49   H29   S    
C32   C33   D    
C8    H23   S    
C5    H12   S    
C3    H8    S    
C6    O18   S    
C47   H24   S    
Cu4   O12   S    
C53   H44   S    
C50   H32   S    
C57   C58   A    
C38   C39   A    
C5    C24   S    
C11   C28   S    
C24   O5    A    
C42   H9    S    
C54   H47   S    
Cu2   O4    S    
Cu3   Cu4   S    
C12   C55   A    
C10   C11   D    
C46   H19   S    
C20   C36   S    
C21   O30   A    
C22   O31   A    
C45   C55   A    
C19   O23   A    
Cu6   O9    S    
Cu4   O30   S    
C11   C46   S    
C18   C31   S    
C28   O16   A    
C13   C14   D    
C1    O4    A    
C16   C17   S    
C25   C33   S    
C27   H51   S    
