data_mof_unit_34543.cif
_audit_creation_date              2012-12-10T16:56:28-0500
_audit_creation_method            fapswitch 2.2
_symmetry_space_group_name_H-M    P1
_symmetry_Int_Tables_number       1
_space_group_crystal_system       triclinic
_cell_length_a                    7.819229
_cell_length_b                    8.566655
_cell_length_c                    15.730241
_cell_angle_alpha                 91.967255
_cell_angle_beta                  84.455955
_cell_angle_gamma                 94.263135
_cell_volume                      1045.46262968

loop_
_atom_site_label
_atom_site_type_symbol
_atom_type_description
_atom_site_fract_x
_atom_site_fract_y
_atom_site_fract_z
_atom_type_partial_charge
C1    C     C_R   0.546034 0.794710 0.497939 0.943743
C2    C     C_3   0.366513 0.414215 0.035447 0.481326
C3    C     C_1   0.499587 0.499169 0.750440 -0.202195
C4    C     C_1   0.500414 0.500821 0.249558 -0.202214
C5    C     C_3   0.352051 0.555796 0.978245 -0.452658
C6    C     C_3   0.647953 0.444182 0.021752 -0.452522
C7    C     C_3   0.497482 0.491457 0.916228 -0.108879
C8    C     C_3   0.502527 0.508519 0.083769 -0.108874
C9    C     C_1   0.498408 0.496045 0.825554 -0.000411
C10   C     C_1   0.501598 0.503937 0.174443 -0.000401
C11   C     C_3   0.885294 0.738661 0.978963 0.108630
C12   C     C_R   0.453966 0.205290 0.502061 0.943747
C13   C     C_3   0.030147 0.838092 0.930850 -0.885273
C14   C     C_3   0.114692 0.261323 0.021052 0.108461
C15   C     C_3   0.969801 0.161955 0.069180 -0.885198
C16   C     C_3   0.464543 0.845426 0.132282 0.059784
C17   C     C_3   0.448343 0.020037 0.147655 -0.715612
C18   C     C_3   0.535112 0.154506 0.867720 0.059882
C19   C     C_3   0.551224 0.979884 0.852340 -0.715661
C20   C     C_3   0.957263 0.297795 0.362569 0.207198
C21   C     C_3   0.065936 0.179118 0.312740 -0.869633
C22   C     C_3   0.042732 0.702194 0.637435 0.207180
C23   C     C_R   0.500220 0.500967 0.661795 0.869884
C24   C     C_3   0.934069 0.820880 0.687264 -0.869569
C25   C     C_R   0.499780 0.499031 0.338205 0.869886
C26   C     C_2   0.569886 0.958657 0.496733 -0.387373
C27   C     C_2   0.430113 0.041343 0.503267 -0.387385
C28   C     C_3   0.490330 0.649506 0.026707 0.416871
C29   C     C_3   0.509676 0.350469 0.973291 0.416870
C30   C     C_3   0.633491 0.585759 0.964551 0.481397
H1    H     H_    0.768669 0.402825 0.040666 0.180186
H2    H     H_    0.181214 0.185184 0.971714 0.176332
H3    H     H_    0.057110 0.355700 0.989044 0.132964
H4    H     H_    0.872245 0.120381 0.025169 0.246009
H5    H     H_    0.021496 0.059062 0.096124 0.249561
H6    H     H_    0.906371 0.232057 0.122207 0.257233
H7    H     H_    0.579894 0.813993 0.162395 0.135156
H8    H     H_    0.345558 0.782362 0.162488 0.155833
H9    H     H_    0.334368 0.055612 0.118430 0.296706
H10   H     H_    0.432379 0.047426 0.217359 0.183934
H11   H     H_    0.565665 0.087078 0.119087 0.273166
H12   H     H_    0.231342 0.597166 0.959328 0.180190
H13   H     H_    0.653994 0.217531 0.837383 0.155855
H14   H     H_    0.419613 0.185966 0.837737 0.135030
H15   H     H_    0.433976 0.912879 0.881015 0.273159
H16   H     H_    0.566921 0.952469 0.782634 0.183883
H17   H     H_    0.665327 0.944293 0.881452 0.296722
H18   H     H_    0.960173 0.404061 0.323381 0.147515
H19   H     H_    0.824013 0.244250 0.373296 0.164017
H20   H     H_    0.071897 0.074034 0.351529 0.254029
H21   H     H_    0.007996 0.142352 0.253023 0.222014
H22   H     H_    0.198693 0.231640 0.296302 0.270554
H23   H     H_    0.701549 0.010684 0.490492 0.195014
H24   H     H_    0.175987 0.755729 0.626711 0.164016
H25   H     H_    0.039808 0.595925 0.676622 0.147520
H26   H     H_    0.801297 0.768380 0.703688 0.270554
H27   H     H_    0.991990 0.857617 0.746990 0.222010
H28   H     H_    0.928146 0.925979 0.648482 0.254017
H29   H     H_    0.298451 0.989316 0.509508 0.195014
H30   H     H_    0.942912 0.644283 0.010952 0.132907
H31   H     H_    0.818751 0.814756 0.028317 0.176407
H32   H     H_    0.978399 0.940958 0.903906 0.249648
H33   H     H_    0.127670 0.879702 0.974871 0.245901
H34   H     H_    0.093634 0.768024 0.877825 0.257207
N1    N     N_2   0.950320 0.457950 0.477300 0.163536
N2    N     N_2   0.049680 0.542050 0.522700 0.163538
O1    O     O_R   0.389250 0.738570 0.505570 -0.638228
O2    O     O_3   0.228672 0.325144 0.079422 -0.603804
O3    O     O_3   0.484417 0.812415 0.043820 -0.593078
O4    O     O_3   0.515657 0.187562 0.956184 -0.593049
O5    O     O_3   0.026454 0.333469 0.440567 -0.525980
O6    O     O_3   0.973545 0.666529 0.559435 -0.525980
O7    O     O_R   0.610750 0.261430 0.494430 -0.638229
O8    O     O_R   0.678390 0.711630 0.491020 -0.569830
O9    O     O_R   0.321610 0.288370 0.508980 -0.569829
O10   O     O_R   0.355460 0.513480 0.630490 -0.665670
O11   O     O_R   0.644540 0.486520 0.369510 -0.665666
O12   O     O_R   0.644600 0.486540 0.615950 -0.585050
O13   O     O_R   0.355400 0.513460 0.384050 -0.585051
O14   O     O_3   0.771330 0.674843 0.920585 -0.603794
Zn1   Zn    Zn3+2 0.306940 0.517990 0.509710 1.012448
Zn2   Zn    Zn3+2 0.693060 0.482010 0.490290 1.012450

loop_
_geom_bond_atom_site_label_1
_geom_bond_atom_site_label_2
_ccdc_geom_bond_type
C18   O4    S    
C5    H12   S    
C7    C29   S    
C15   H6    S    
C3    C23   S    
C28   O3    S    
C23   O10   A    
C14   H3    S    
C4    C25   S    
C19   H16   S    
C22   H24   S    
C26   C27   D    
C2    C29   S    
C25   O11   A    
C1    O8    A    
C2    O2    S    
C19   H17   S    
C18   C19   S    
C17   H9    S    
C22   O6    S    
N2    O6    S    
C13   H32   S    
C24   H27   S    
C20   O5    S    
C15   H4    S    
C16   H7    S    
C30   O14   S    
C6    H1    S    
C7    C30   S    
C12   O7    A    
O8    Zn2   S    
C15   H5    S    
C21   H20   S    
C12   C27   S    
C5    C7    S    
O9    Zn1   S    
C6    C8    S    
N1    O5    S    
C17   H10   S    
C20   H19   S    
C3    C9    T    
C18   H14   S    
C5    C28   S    
O12   Zn2   S    
C13   H33   S    
C20   H18   S    
C8    C10   S    
C6    C30   S    
O1    Zn1   S    
C1    C26   S    
C8    C28   S    
C22   C24   S    
C2    C5    S    
C4    C10   T    
C11   H30   S    
C26   H23   S    
O7    Zn2   S    
C21   H21   S    
O13   Zn1   S    
C29   O4    S    
C7    C9    S    
C25   O13   A    
C2    C8    S    
C16   O3    S    
C14   H2    S    
C11   H31   S    
O10   Zn1   S    
C19   H15   S    
C22   H25   S    
C24   H26   S    
C28   C30   S    
C27   H29   S    
C18   H13   S    
N2    Zn1   S    
C11   C13   S    
N1    Zn2   S    
C16   C17   S    
C13   H34   S    
O11   Zn2   S    
C1    O1    A    
C23   O12   A    
C17   H11   S    
C11   O14   S    
C6    C29   S    
C20   C21   S    
C24   H28   S    
N1    N2    D    
C12   O9    A    
C14   O2    S    
C14   C15   S    
C21   H22   S    
C16   H8    S    
