data_mof_unit_51858.cif
_audit_creation_date              2012-12-11T16:45:46-0500
_audit_creation_method            fapswitch 2.2
_symmetry_space_group_name_H-M    P1
_symmetry_Int_Tables_number       1
_space_group_crystal_system       triclinic
_cell_length_a                    19.677624
_cell_length_b                    17.098701
_cell_length_c                    15.260155
_cell_angle_alpha                 89.999709
_cell_angle_beta                  52.886078
_cell_angle_gamma                 89.999726
_cell_volume                      4094.40958794

loop_
_atom_site_label
_atom_site_type_symbol
_atom_type_description
_atom_site_fract_x
_atom_site_fract_y
_atom_site_fract_z
_atom_type_partial_charge
C1    C     C_R   0.875308 0.694186 0.991187 -0.212121
C2    C     C_R   0.212799 0.349276 0.975550 0.130409
C3    C     C_R   0.287202 0.849275 0.024448 0.130410
C4    C     C_R   0.712799 0.849281 0.975556 0.130418
C5    C     C_R   0.808201 0.639042 0.324610 0.051655
C6    C     C_R   0.191801 0.639042 0.675391 0.051668
C7    C     C_R   0.308200 0.139043 0.324609 0.051653
C8    C     C_R   0.691800 0.139042 0.675391 0.051660
C9    C     C_R   0.704269 0.636149 0.528376 0.159311
C10   C     C_R   0.295739 0.636148 0.471626 0.159326
C11   C     C_R   0.204262 0.136149 0.528374 0.159327
C12   C     C_R   0.124691 0.694184 0.008821 -0.212079
C13   C     C_R   0.795738 0.136148 0.471626 0.159333
C14   C     C_R   0.728881 0.665050 0.427025 0.034808
C15   C     C_R   0.271122 0.665051 0.572978 0.034799
C16   C     C_R   0.228879 0.165052 0.427022 0.034800
C17   C     C_R   0.771122 0.165051 0.572978 0.034800
C18   C     C_R   0.183654 0.229243 0.427988 -0.193906
C19   C     C_R   0.816347 0.229241 0.572012 -0.193912
C20   C     C_R   0.683652 0.729238 0.427992 -0.193909
C21   C     C_R   0.316346 0.729241 0.572012 -0.193909
C22   C     C_R   0.133246 0.274835 0.523064 -0.203443
C23   C     C_R   0.375309 0.194185 0.991178 -0.212077
C24   C     C_R   0.866755 0.274834 0.476936 -0.203443
C25   C     C_R   0.633244 0.774831 0.523068 -0.203438
C26   C     C_R   0.366755 0.774834 0.476936 -0.203441
C27   C     C_R   0.127972 0.255571 0.616747 0.030644
C28   C     C_R   0.872029 0.255570 0.383253 0.030646
C29   C     C_R   0.627975 0.755569 0.616748 0.030655
C30   C     C_R   0.372029 0.755570 0.383253 0.030648
C31   C     C_R   0.654063 0.680724 0.622175 0.169432
C32   C     C_R   0.345946 0.680722 0.377825 0.169458
C33   C     C_R   0.154056 0.180723 0.622174 0.169464
C34   C     C_R   0.624690 0.194184 0.008823 -0.212073
C35   C     C_R   0.845945 0.180723 0.377825 0.169473
C36   C     C_3   0.700343 0.653552 0.666433 -0.538917
C37   C     C_3   0.299671 0.653545 0.333563 -0.538974
C38   C     C_3   0.200330 0.153545 0.666437 -0.538974
C39   C     C_3   0.799670 0.153546 0.333563 -0.538998
C40   C     C_R   0.900004 0.301749 0.207429 -0.155194
C41   C     C_R   0.099997 0.301749 0.792571 -0.155191
C42   C     C_R   0.400003 0.801749 0.207429 -0.155193
C43   C     C_R   0.599999 0.801750 0.792571 -0.155187
C44   C     C_3   0.755557 0.605157 0.563814 -0.510176
C45   C     C_R   0.889057 0.315473 0.304128 0.075414
C46   C     C_3   0.244457 0.605150 0.436182 -0.510193
C47   C     C_3   0.255545 0.105151 0.563818 -0.510196
C48   C     C_3   0.744455 0.105151 0.436183 -0.510205
C49   C     C_2   0.686293 0.242124 0.102238 -0.153205
C50   C     C_2   0.313714 0.242132 0.897756 -0.153205
C51   C     C_2   0.186288 0.742130 0.102240 -0.153205
C52   C     C_2   0.813736 0.742153 0.897748 -0.153211
C53   C     C_2   0.212490 0.810240 0.047563 -0.197282
C54   C     C_2   0.787499 0.810243 0.952471 -0.197342
C55   C     C_2   0.712491 0.310235 0.047566 -0.197282
C56   C     C_R   0.110944 0.315474 0.695871 0.075422
C57   C     C_2   0.287512 0.310241 0.952433 -0.197284
C58   C     C_R   0.828645 0.412175 0.953573 -0.163186
C59   C     C_R   0.171359 0.412183 0.046419 -0.163127
C60   C     C_R   0.328641 0.912182 0.953579 -0.163128
C61   C     C_R   0.671358 0.912187 0.046422 -0.163120
C62   C     C_R   0.858380 0.578295 0.315180 -0.108533
C63   C     C_R   0.141621 0.578295 0.684821 -0.108552
C64   C     C_R   0.358379 0.078295 0.315179 -0.108521
C65   C     C_R   0.641621 0.078295 0.684821 -0.108534
C66   C     C_R   0.839784 0.320713 0.048700 -0.115605
C67   C     C_R   0.389057 0.815473 0.304128 0.075412
C68   C     C_R   0.160219 0.320716 0.951298 -0.115612
C69   C     C_R   0.339782 0.820715 0.048701 -0.115612
C70   C     C_R   0.660222 0.820716 0.951300 -0.115625
C71   C     C_R   0.850441 0.672343 0.220728 -0.119807
C72   C     C_R   0.149559 0.672342 0.779273 -0.119801
C73   C     C_R   0.350441 0.172343 0.220726 -0.119809
C74   C     C_R   0.649559 0.172342 0.779273 -0.119809
C75   C     C_R   0.906692 0.393795 0.304521 -0.133286
C76   C     C_R   0.093309 0.393795 0.695479 -0.133304
C77   C     C_R   0.406691 0.893795 0.304521 -0.133285
C78   C     C_R   0.610946 0.815473 0.695872 0.075408
C79   C     C_R   0.593310 0.893795 0.695479 -0.133287
C80   C     C_R   0.868087 0.603165 0.891930 0.487170
C81   C     C_R   0.131902 0.603158 0.108084 0.487181
C82   C     C_R   0.368099 0.103159 0.891915 0.487181
C83   C     C_R   0.631897 0.103157 0.108090 0.487176
C84   C     C_R   0.849481 0.681417 0.926366 -0.000811
C85   C     C_R   0.150512 0.681410 0.073649 -0.000865
C86   C     C_R   0.349489 0.181411 0.926350 -0.000865
C87   C     C_R   0.650510 0.181408 0.073653 -0.000854
C88   C     C_3   0.815069 0.569865 0.796368 0.247965
C89   C     C_R   0.787206 0.349269 0.024443 0.130432
C90   C     C_3   0.827388 0.503480 0.721289 -0.912369
C91   C     C_3   0.184846 0.569920 0.203759 0.247922
C92   C     C_3   0.172573 0.503494 0.278758 -0.912534
C93   C     C_3   0.315155 0.069921 0.796240 0.247923
C94   C     C_3   0.327430 0.003496 0.721239 -0.912542
C95   C     C_3   0.684817 0.069923 0.203797 0.247902
C96   C     C_3   0.672534 0.003491 0.278795 -0.912373
H1    H     H_    0.883533 0.749838 0.017051 0.119615
H2    H     H_    0.263297 0.700718 0.328386 0.201896
H3    H     H_    0.236705 0.200718 0.671613 0.201894
H4    H     H_    0.763296 0.200719 0.328387 0.201895
H5    H     H_    0.659387 0.617414 0.741834 0.186180
H6    H     H_    0.340632 0.617407 0.258163 0.186189
H7    H     H_    0.159371 0.117408 0.741837 0.186191
H8    H     H_    0.840630 0.117408 0.258164 0.186190
H9    H     H_    0.822898 0.625473 0.511527 0.210649
H10   H     H_    0.177115 0.625464 0.488465 0.210658
H11   H     H_    0.322887 0.125465 0.511534 0.210657
H12   H     H_    0.116481 0.749838 0.982942 0.119603
H13   H     H_    0.677114 0.125465 0.488466 0.210660
H14   H     H_    0.746612 0.541208 0.580244 0.191333
H15   H     H_    0.253406 0.541201 0.419756 0.191324
H16   H     H_    0.246597 0.041202 0.580244 0.191324
H17   H     H_    0.753404 0.041203 0.419757 0.191318
H18   H     H_    0.705781 0.226368 0.152168 0.108989
H19   H     H_    0.294238 0.226383 0.847811 0.109008
H20   H     H_    0.205764 0.726381 0.152185 0.109008
H21   H     H_    0.794324 0.726440 0.847718 0.109128
H22   H     H_    0.191678 0.830126 0.999912 0.125963
H23   H     H_    0.383519 0.249838 0.017056 0.119601
H24   H     H_    0.808259 0.830101 0.000193 0.125974
H25   H     H_    0.691669 0.330127 0.999927 0.125963
H26   H     H_    0.308324 0.330127 0.000084 0.125963
H27   H     H_    0.907374 0.245512 0.170461 0.099470
H28   H     H_    0.092627 0.245512 0.829539 0.099467
H29   H     H_    0.407374 0.745512 0.170461 0.099467
H30   H     H_    0.592631 0.745513 0.829539 0.099465
H31   H     H_    0.805599 0.447153 0.918169 0.124595
H32   H     H_    0.194410 0.447174 0.081809 0.124586
H33   H     H_    0.305591 0.947173 0.918188 0.124586
H34   H     H_    0.616484 0.249837 0.982942 0.119598
H35   H     H_    0.694406 0.947181 0.081813 0.124572
H36   H     H_    0.844114 0.536811 0.377115 0.106557
H37   H     H_    0.155888 0.536811 0.622885 0.106563
H38   H     H_    0.344113 0.036811 0.377115 0.106557
H39   H     H_    0.655888 0.036811 0.622885 0.106561
H40   H     H_    0.830506 0.270542 0.097727 0.082500
H41   H     H_    0.169498 0.270544 0.902272 0.082502
H42   H     H_    0.330503 0.770543 0.097726 0.082502
H43   H     H_    0.669504 0.770538 0.902282 0.082497
H44   H     H_    0.829671 0.721077 0.197437 0.094889
H45   H     H_    0.108244 0.329442 0.517709 0.130768
H46   H     H_    0.170329 0.721076 0.802565 0.094889
H47   H     H_    0.329671 0.221077 0.197435 0.094891
H48   H     H_    0.670329 0.221076 0.802565 0.094890
H49   H     H_    0.917414 0.421588 0.358814 0.101371
H50   H     H_    0.082587 0.421589 0.641186 0.101363
H51   H     H_    0.417413 0.921588 0.358814 0.101373
H52   H     H_    0.582588 0.921587 0.641185 0.101372
H53   H     H_    0.195454 0.250344 0.353091 0.128644
H54   H     H_    0.804547 0.250343 0.646909 0.128643
H55   H     H_    0.695449 0.750338 0.353096 0.128640
H56   H     H_    0.891757 0.329440 0.482291 0.130768
H57   H     H_    0.304546 0.750343 0.646909 0.128644
H58   H     H_    0.808071 0.623564 0.762036 0.114877
H59   H     H_    0.755182 0.559213 0.880571 0.052563
H60   H     H_    0.840214 0.447422 0.745386 0.245920
H61   H     H_    0.769068 0.496771 0.726144 0.212808
H62   H     H_    0.882010 0.516751 0.634907 0.261969
H63   H     H_    0.191713 0.623612 0.238225 0.115001
H64   H     H_    0.244781 0.559360 0.119572 0.052616
H65   H     H_    0.159905 0.447430 0.254504 0.245908
H66   H     H_    0.230850 0.496865 0.274012 0.212873
H67   H     H_    0.608239 0.829436 0.517714 0.130766
H68   H     H_    0.117874 0.516657 0.365129 0.261998
H69   H     H_    0.308288 0.123613 0.761775 0.114999
H70   H     H_    0.255220 0.059360 0.880427 0.052618
H71   H     H_    0.340100 0.947432 0.745491 0.245910
H72   H     H_    0.269153 0.996866 0.725986 0.212876
H73   H     H_    0.382128 0.016661 0.634868 0.261990
H74   H     H_    0.691667 0.123615 0.238285 0.115008
H75   H     H_    0.744763 0.059370 0.119613 0.052605
H76   H     H_    0.659899 0.947418 0.254501 0.245858
H77   H     H_    0.730801 0.996879 0.274085 0.212857
H78   H     H_    0.391756 0.829441 0.482291 0.130767
H79   H     H_    0.617803 0.016639 0.365167 0.261970
H80   H     H_    0.736717 0.700728 0.671605 0.201902
N1    N     N_R   0.908660 0.628630 0.995840 -0.069332
N2    N     N_R   0.096530 0.421430 0.063580 -0.035875
N3    N     N_R   0.403470 0.921430 0.936420 -0.035876
N4    N     N_R   0.596530 0.921430 0.063580 -0.035876
N5    N     N_R   0.927500 0.575670 0.211370 -0.034148
N6    N     N_R   0.072500 0.575670 0.788630 -0.034156
N7    N     N_R   0.427500 0.075670 0.211370 -0.034144
N8    N     N_R   0.572500 0.075670 0.788630 -0.034148
N9    N     N_R   0.908660 0.365680 0.995820 -0.047675
N10   N     N_R   0.091340 0.365680 0.004180 -0.047678
N11   N     N_R   0.408660 0.865680 0.995820 -0.047679
N12   N     N_R   0.091340 0.628630 0.004160 -0.069334
N13   N     N_R   0.591340 0.865680 0.004180 -0.047677
N14   N     N_R   0.922310 0.631420 0.151980 -0.040970
N15   N     N_R   0.077690 0.631420 0.848020 -0.040969
N16   N     N_R   0.422310 0.131420 0.151980 -0.040972
N17   N     N_R   0.577690 0.131420 0.848020 -0.040972
N18   N     N_R   0.927500 0.426330 0.211360 -0.039876
N19   N     N_R   0.072500 0.426330 0.788640 -0.039877
N20   N     N_R   0.427500 0.926330 0.211360 -0.039876
N21   N     N_R   0.572500 0.926330 0.788640 -0.039876
N22   N     N_R   0.903470 0.570760 0.936440 -0.083026
N23   N     N_R   0.408660 0.128630 0.995840 -0.069335
N24   N     N_R   0.096530 0.570760 0.063560 -0.083013
N25   N     N_R   0.403470 0.070760 0.936440 -0.083014
N26   N     N_R   0.596530 0.070760 0.063560 -0.083011
N27   N     N_R   0.591340 0.128630 0.004160 -0.069334
N28   N     N_R   0.922310 0.368460 0.151950 -0.042552
N29   N     N_R   0.077690 0.368460 0.848050 -0.042550
N30   N     N_R   0.422310 0.868460 0.151950 -0.042553
N31   N     N_R   0.577690 0.868460 0.848050 -0.042551
N32   N     N_R   0.903470 0.421430 0.936420 -0.035882
Ni1   Ni    Ni4+2 0.000000 0.630300 0.000000 0.200234
Ni2   Ni    Ni4+2 0.500000 0.130300 0.000000 0.200233
Ni3   Ni    Ni4+2 0.000000 0.369700 0.000000 0.197832
Ni4   Ni    Ni4+2 0.500000 0.869700 0.000000 0.197831
Ni5   Ni    Ni4+2 0.988090 0.497570 0.863760 0.258097
Ni6   Ni    Ni4+2 0.011910 0.497570 0.136240 0.258125
Ni7   Ni    Ni4+2 0.488090 0.997570 0.863760 0.258123
Ni8   Ni    Ni4+2 0.511910 0.997570 0.136240 0.258126
O1    O     O_3   0.888204 0.575533 0.793276 -0.634286
O2    O     O_3   0.111755 0.575517 0.206752 -0.634302
O3    O     O_3   0.388246 0.075518 0.793247 -0.634302
O4    O     O_3   0.611736 0.075519 0.206766 -0.634307

loop_
_geom_bond_atom_site_label_1
_geom_bond_atom_site_label_2
_ccdc_geom_bond_type
C92   H65   S    
C83   C87   A    
C21   C26   A    
C55   H25   S    
N32   Ni5   S    
C79   N21   A    
C96   H79   S    
C54   H24   S    
C49   C87   S    
C11   C47   S    
C95   C96   S    
C67   C77   A    
C80   C84   A    
N7    N16   A    
C51   C85   S    
C81   N24   A    
C4    C70   A    
N17   Ni2   S    
C2    C57   S    
C39   H8    S    
C7    C73   A    
C44   H9    S    
C75   H49   S    
C60   N3    A    
C6    C72   A    
N26   Ni8   S    
C93   C94   S    
C12   C85   A    
C68   N10   A    
C91   O2    S    
C56   C76   A    
C63   H37   S    
C41   H28   S    
C3    C69   A    
C77   N20   A    
C25   H67   S    
C13   C35   A    
C2    C68   A    
N4    N13   A    
C94   H73   S    
C23   H23   S    
C37   H6    S    
N20   Ni8   S    
N12   Ni1   S    
N3    N11   A    
C20   C25   A    
N12   N24   A    
N30   Ni4   S    
C47   H16   S    
C12   N12   A    
C23   N23   A    
C80   N22   A    
C69   H42   S    
C19   H54   S    
C88   O1    S    
C22   H45   S    
C50   H19   S    
N5    N14   A    
N1    Ni1   S    
C52   C84   S    
N25   Ni7   S    
C24   H56   S    
C42   H29   S    
C57   H26   S    
C64   N7    A    
C1    N1    A    
C29   C78   S    
C40   N28   A    
C28   C35   A    
C9    C31   A    
C23   C86   A    
C10   C46   S    
N6    Ni5   S    
N24   Ni6   S    
N9    Ni3   S    
N27   Ni2   S    
C42   N30   A    
N5    Ni6   S    
C69   N11   A    
C45   C75   A    
C18   H53   S    
C77   H51   S    
C72   N15   A    
C91   H63   S    
C30   C67   S    
N21   Ni7   S    
C52   H21   S    
C92   H68   S    
C48   H13   S    
C6    C15   S    
C74   N17   A    
C76   H50   S    
C58   H31   S    
C63   N6    A    
C18   C22   A    
N10   Ni3   S    
N20   N30   A    
N9    N32   A    
C68   H41   S    
C83   N26   A    
C43   H30   S    
C37   H2    S    
C58   C89   A    
C52   C54   D    
C66   C89   A    
C25   C29   A    
C40   C45   A    
C64   H38   S    
C28   C45   S    
C96   H77   S    
C82   O3    S    
C43   N31   A    
C88   H59   S    
C14   C20   A    
N4    Ni8   S    
N26   N27   A    
C60   H33   S    
C94   H72   S    
C80   O1    S    
C12   H12   S    
N2    Ni6   S    
C78   C79   A    
N8    Ni7   S    
C81   O2    S    
C59   H32   S    
C82   C86   A    
C4    C61   A    
C27   C33   A    
C36   H5    S    
C1    C84   A    
C88   H58   S    
C6    C63   A    
C90   H62   S    
C72   H46   S    
C9    C14   A    
C41   C56   A    
C38   H7    S    
C76   N19   A    
C62   H36   S    
C13   C48   S    
C43   C78   A    
C11   C16   A    
N19   N29   A    
C58   N32   A    
C34   N27   A    
N18   N28   A    
C8    C74   A    
C95   O4    S    
C5    C14   S    
C70   H43   S    
C32   C37   S    
C27   C56   S    
N16   Ni2   S    
C38   C47   S    
C65   H39   S    
N15   Ni1   S    
C66   H40   S    
C16   C18   A    
C7    C16   S    
C2    C59   A    
C88   C90   S    
C93   H70   S    
C36   H80   S    
C47   H11   S    
N1    N22   A    
C61   H35   S    
N31   Ni4   S    
C36   C44   S    
N6    N15   A    
C1    H1    S    
C91   C92   S    
C73   H47   S    
C92   H66   S    
N7    Ni8   S    
C26   H78   S    
C74   H48   S    
C9    C44   S    
C21   H57   S    
C4    C54   S    
C53   H22   S    
C50   C57   D    
N14   Ni1   S    
C59   N2    A    
C24   C28   A    
C38   H3    S    
N13   Ni4   S    
C94   H71   S    
N18   Ni6   S    
C82   N25   A    
C26   C30   A    
C71   H44   S    
C11   C33   A    
C22   C27   A    
C51   H20   S    
C20   H55   S    
C13   C17   A    
C10   C15   A    
N23   Ni2   S    
C93   O3    S    
C90   H61   S    
C19   C24   A    
C29   C31   A    
C49   C55   D    
C3    C60   A    
C8    C17   S    
C30   C32   A    
C83   O4    S    
C3    C53   S    
C91   H64   S    
C39   H4    S    
C42   C67   A    
C15   C21   A    
C95   H75   S    
C40   H27   S    
C35   C39   S    
C46   H10   S    
N28   Ni3   S    
C17   C19   A    
C5    C62   A    
C49   H18   S    
C79   H52   S    
C34   C87   A    
C71   N14   A    
C41   N29   A    
C55   C89   S    
C95   H74   S    
C7    C64   A    
N19   Ni5   S    
C73   N16   A    
N21   N31   A    
C50   C86   S    
C93   H69   S    
N2    N10   A    
C75   N18   A    
C10   C32   A    
C8    C65   A    
N11   Ni4   S    
C34   H34   S    
C61   N4    A    
C5    C71   A    
C96   H76   S    
C66   N9    A    
N3    Ni7   S    
N23   N25   A    
N29   Ni3   S    
C31   C36   S    
C48   H17   S    
C33   C38   S    
C51   C53   D    
C37   C46   S    
C46   H15   S    
N22   Ni5   S    
C90   H60   S    
C81   C85   A    
N8    N17   A    
C70   N13   A    
C39   C48   S    
C62   N5    A    
C65   N8    A    
C44   H14   S    
