data_mof_unit_15375.cif
_audit_creation_date              2012-12-11T16:04:40-0500
_audit_creation_method            fapswitch 2.2
_symmetry_space_group_name_H-M    P1
_symmetry_Int_Tables_number       1
_space_group_crystal_system       triclinic
_cell_length_a                    19.858882
_cell_length_b                    19.772794
_cell_length_c                    20.041959
_cell_angle_alpha                 107.444358
_cell_angle_beta                  110.303424
_cell_angle_gamma                 110.099218
_cell_volume                      6096.63696837

loop_
_atom_site_label
_atom_site_type_symbol
_atom_type_description
_atom_site_fract_x
_atom_site_fract_y
_atom_site_fract_z
_atom_type_partial_charge
Br1   Br    Br    0.738267 0.561818 0.884485 -0.493037
Br2   Br    Br    0.408404 0.126679 0.661507 -0.642656
Br3   Br    Br    0.449358 0.849104 0.509014 -0.593477
Br4   Br    Br    0.304150 0.861317 0.530978 -0.603082
Br5   Br    Br    0.722351 0.393869 0.718113 -0.555081
Br6   Br    Br    0.818426 0.812247 0.802530 -0.591761
Br7   Br    Br    0.175456 0.985540 0.010828 -0.664543
Br8   Br    Br    0.152062 0.747117 0.953652 -0.606415
Br9   Br    Br    0.940488 0.240402 0.335738 -0.420720
Br10  Br    Br    0.918197 0.242235 0.489823 -0.401529
Br11  Br    Br    0.177878 0.545758 0.652741 -0.543666
Br12  Br    Br    0.117985 0.366567 0.586034 -0.461697
Br13  Br    Br    0.862969 0.465382 0.506038 -0.520896
Br14  Br    Br    0.041376 0.601225 0.613892 -0.500606
Br15  Br    Br    0.818568 0.305706 0.312503 -0.505504
C1    C     C_R   0.070794 0.333890 0.027918 -0.192421
C2    C     C_R   0.069770 0.498164 0.226771 -0.135257
C3    C     C_3   0.465267 0.015555 0.676480 -0.371241
C4    C     C_3   0.417313 0.999686 0.722035 -0.120544
C5    C     C_3   0.465937 0.065805 0.810570 -0.877720
C6    C     C_3   0.624515 0.069084 0.571131 -0.382472
C7    C     C_3   0.695848 0.075943 0.640936 -0.315426
C8    C     C_3   0.780060 0.128226 0.651993 -0.869252
C9    C     C_3   0.115215 0.921674 0.845892 -0.444551
C10   C     C_3   0.208068 0.963127 0.869893 -0.174296
C11   C     C_3   0.218806 0.937099 0.796108 -0.901262
C12   C     C_3   0.093791 0.055854 0.831559 -0.480638
C13   C     C_R   0.195103 0.736151 0.170357 0.130602
C14   C     C_3   0.094032 0.129121 0.817819 -0.292952
C15   C     C_3   0.078506 0.113164 0.732917 -0.853720
C16   C     C_3   0.894181 0.983392 0.748678 -0.446410
C17   C     C_3   0.798834 0.936516 0.694596 -0.248750
C18   C     C_3   0.772684 0.923912 0.608648 -0.919079
C19   C     C_3   0.911220 0.835403 0.725421 -0.447093
C20   C     C_3   0.909847 0.753133 0.706998 -0.249823
C21   C     C_3   0.883486 0.705262 0.618322 -0.772510
C22   C     C_3   0.173114 0.130765 0.982864 -0.323067
C23   C     C_3   0.186741 0.163928 0.069512 -0.243040
C24   C     C_R   0.929287 0.456604 0.765068 -0.097220
C25   C     C_3   0.277019 0.230158 0.130958 -0.929029
C26   C     C_3   0.267162 0.502717 0.156386 -0.418989
C27   C     C_3   0.312172 0.453337 0.152295 -0.287724
C28   C     C_3   0.348795 0.450123 0.231211 -0.904695
C29   C     C_3   0.152658 0.571196 0.842553 -0.379315
C30   C     C_3   0.188814 0.514006 0.830527 -0.290012
C31   C     C_3   0.280707 0.561297 0.857703 -0.754144
C32   C     C_3   0.852724 0.196094 0.948886 -0.410883
C33   C     C_3   0.805010 0.126796 0.861757 -0.288059
C34   C     C_3   0.717049 0.067595 0.837980 -0.901624
C35   C     C_R   0.786135 0.453037 0.022443 0.098350
C36   C     C_R   0.219065 0.740206 0.245776 0.042067
C37   C     C_R   0.754909 0.499451 0.998957 -0.061899
C38   C     C_R   0.000900 0.453478 0.228399 0.086844
C39   C     C_R   0.996253 0.719801 0.937502 -0.044998
C40   C     C_3   0.551014 0.590459 0.016149 -0.106978
C41   C     C_3   0.479670 0.531111 0.019817 -0.218036
C42   C     C_R   0.997396 0.471594 0.756369 -0.011366
C43   C     C_1   0.367849 0.591731 0.091087 -0.037429
C44   C     C_1   0.701906 0.521642 0.019998 0.056526
C45   C     C_3   0.575452 0.660834 0.096160 -0.138177
C46   C     C_R   0.768530 0.276312 0.845295 -0.218135
C47   C     C_3   0.504957 0.601263 0.100098 0.116493
C48   C     C_3   0.634384 0.636737 0.145185 -0.214588
C49   C     C_3   0.607992 0.566283 0.064895 0.110734
C50   C     C_3   0.562058 0.576898 0.148484 0.140457
C51   C     C_3   0.537180 0.507166 0.068617 0.130185
C52   C     C_1   0.435314 0.605097 0.103638 -0.061011
C53   C     C_R   0.721860 0.275971 0.776670 0.009295
C54   C     C_1   0.660110 0.542805 0.040772 -0.047417
C55   C     C_3   0.927595 0.336615 0.471888 0.072003
C56   C     C_3   0.085954 0.441784 0.557619 0.546607
C57   C     C_3   0.084092 0.432573 0.476216 -0.180637
C58   C     C_R   0.234925 0.582671 0.015420 -0.166898
C59   C     C_1   0.000137 0.430403 0.288061 -0.042487
C60   C     C_3   0.997051 0.423932 0.546363 -0.228667
C61   C     C_3   0.927815 0.331536 0.391994 0.482925
C62   C     C_3   0.998317 0.416297 0.413631 -0.039367
C63   C     C_3   0.980642 0.485093 0.451058 -0.533817
C64   C     C_R   0.282273 0.561297 0.062518 0.046154
C65   C     C_3   0.974779 0.487775 0.526372 0.553864
C66   C     C_1   0.998885 0.418087 0.342171 0.134710
C67   C     C_1   0.995071 0.430783 0.619525 0.229059
C68   C     C_1   0.994902 0.445500 0.681456 0.047005
C69   C     C_3   0.352516 0.964256 0.524635 0.319242
C70   C     C_R   0.768465 0.345361 0.776522 0.299557
C71   C     C_3   0.399404 0.026971 0.441656 -0.171860
C72   C     C_3   0.474616 0.105269 0.520928 -0.059041
C73   C     C_1   0.639015 0.215415 0.718667 0.034845
C74   C     C_3   0.382028 0.950061 0.457568 -0.031234
C75   C     C_R   0.196292 0.663005 0.235836 -0.143685
C76   C     C_3   0.431596 0.041169 0.609474 0.296164
C77   C     C_3   0.503878 0.083661 0.591952 -0.002851
C78   C     C_3   0.537728 0.023985 0.566071 -0.209259
C79   C     C_3   0.465010 0.942172 0.485413 0.400777
C80   C     C_1   0.574151 0.158158 0.664484 0.045623
C81   C     C_1   0.315340 0.875047 0.383111 0.067453
C82   C     C_R   0.233489 0.510530 0.080739 0.133285
C83   C     C_1   0.267863 0.812759 0.321093 -0.009762
C84   C     C_3   0.090721 0.049502 0.907982 0.190793
C85   C     C_3   0.923992 0.969422 0.824269 -0.162165
C86   C     C_R   0.787579 0.524696 0.955078 0.334037
C87   C     C_3   0.922461 0.884755 0.810199 0.335101
C88   C     C_1   0.994374 0.774665 0.905781 0.103838
C89   C     C_3   0.006338 0.043481 0.905556 0.217462
C90   C     C_3   0.090564 0.965650 0.906058 0.304581
C91   C     C_3   0.000928 0.903536 0.888604 0.085642
C92   C     C_3   0.993061 0.944544 0.963311 -0.393736
C93   C     C_3   0.996173 0.024703 0.972886 -0.477919
C94   C     C_R   0.067667 0.527460 0.831328 0.179861
C95   C     C_1   0.996232 0.828897 0.890494 0.028034
C96   C     C_1   0.006462 0.120853 0.925186 -0.083986
C97   C     C_R   0.932151 0.426724 0.157498 -0.129161
C98   C     C_1   0.005335 0.183396 0.948705 -0.076651
C99   C     C_R   0.932493 0.263089 0.967201 0.152741
C100  C     C_R   0.002662 0.256566 0.979320 0.072002
C101  C     C_3   0.207544 0.810605 0.159760 -0.430748
C102  C     C_3   0.146009 0.837125 0.170756 -0.279288
C103  C     C_3   0.142026 0.899266 0.141212 -0.818305
C104  C     C_3   0.742157 0.388337 0.040530 -0.390880
C105  C     C_3   0.752853 0.425601 0.125250 -0.319910
C106  C     C_3   0.713698 0.359021 0.145239 -0.804727
C107  C     C_3   0.514955 0.418193 0.046363 -0.427625
C108  C     C_R   0.065053 0.717002 0.979712 0.309453
C109  C     C_3   0.438092 0.371960 0.050601 -0.262158
C110  C     C_3   0.412732 0.281742 0.020943 -0.894022
C111  C     C_3   0.569135 0.576140 0.226734 -0.446690
C112  C     C_3   0.634963 0.554967 0.265149 -0.271626
C113  C     C_3   0.643968 0.558652 0.345115 -0.832791
C114  C     C_3   0.164721 0.493124 0.482814 -0.319640
C115  C     C_3   0.177969 0.578520 0.495926 -0.266309
C116  C     C_3   0.265195 0.634309 0.515359 -0.752789
C117  C     C_3   0.275355 0.978653 0.494619 -0.396615
C118  C     C_3   0.217783 0.961879 0.530783 -0.163211
C119  C     C_R   0.929437 0.653859 0.921677 -0.098314
C120  C     C_3   0.160344 0.996904 0.510686 -0.887003
C121  C     C_3   0.407046 0.021213 0.365028 -0.395575
C122  C     C_3   0.355565 0.050415 0.316722 -0.325879
C123  C     C_3   0.373272 0.055153 0.249453 -0.821254
C124  C     C_3   0.461781 0.181295 0.540663 -0.351488
C125  C     C_3   0.508848 0.242573 0.518486 -0.337328
C126  C     C_3   0.489838 0.312406 0.531703 -0.736350
C127  C     C_3   0.486242 0.920406 0.415075 -0.402761
C128  C     C_3   0.544472 0.883675 0.422641 -0.216086
C129  C     C_3   0.584139 0.893331 0.370581 -0.929321
H1    H     H_    0.134195 0.349199 0.048365 0.129145
H2    H     H_    0.084195 0.374684 0.450340 0.196515
H3    H     H_    0.627168 0.041799 0.516467 0.213983
H4    H     H_    0.641636 0.132128 0.580693 0.197566
H5    H     H_    0.189306 0.869382 0.763153 0.295017
H6    H     H_    0.190340 0.958423 0.754696 0.254475
H7    H     H_    0.285822 0.964589 0.815821 0.253107
H8    H     H_    0.239283 0.030646 0.902241 0.189731
H9    H     H_    0.241658 0.944672 0.911471 0.258754
H10   H     H_    0.078528 0.909200 0.784045 0.179055
H11   H     H_    0.100429 0.860486 0.841212 0.226333
H12   H     H_    0.125997 0.101334 0.723167 0.264985
H13   H     H_    0.743055 0.239161 0.869291 0.137650
H14   H     H_    0.015947 0.059742 0.686358 0.254215
H15   H     H_    0.082087 0.167596 0.725632 0.265555
H16   H     H_    0.046709 0.142166 0.824983 0.213276
H17   H     H_    0.155360 0.185521 0.860611 0.197466
H18   H     H_    0.151210 0.058819 0.834117 0.208814
H19   H     H_    0.044350 0.999715 0.776274 0.189135
H20   H     H_    0.800236 0.983586 0.609439 0.276717
H21   H     H_    0.793296 0.884494 0.579224 0.261714
H22   H     H_    0.704103 0.893172 0.572493 0.257557
H23   H     H_    0.770474 0.875631 0.691068 0.248436
H24   H     H_    0.922574 0.476214 0.405132 0.235798
H25   H     H_    0.773001 0.971450 0.721032 0.199694
H26   H     H_    0.913985 0.048917 0.768269 0.199556
H27   H     H_    0.920606 0.966659 0.710701 0.214103
H28   H     H_    0.819641 0.690327 0.578196 0.249467
H29   H     H_    0.926917 0.741523 0.603268 0.253374
H30   H     H_    0.884343 0.647140 0.607200 0.298463
H31   H     H_    0.972036 0.763260 0.743747 0.205104
H32   H     H_    0.866156 0.714398 0.720108 0.256078
H33   H     H_    0.850469 0.820220 0.678264 0.236751
H34   H     H_    0.955497 0.871888 0.712411 0.152144
H35   H     H_    0.866886 0.328558 0.463682 0.189191
H36   H     H_    0.318213 0.203482 0.133321 0.286049
H37   H     H_    0.296021 0.279303 0.114222 0.258628
H38   H     H_    0.284383 0.257292 0.191972 0.261908
H39   H     H_    0.148108 0.192603 0.073864 0.193010
H40   H     H_    0.172227 0.116521 0.088626 0.249969
H41   H     H_    0.227121 0.124577 0.985047 0.201812
H42   H     H_    0.179911 0.183433 0.971604 0.166307
H43   H     H_    0.391257 0.513029 0.283065 0.269666
H44   H     H_    0.298486 0.416483 0.240909 0.269304
H45   H     H_    0.384962 0.418270 0.228668 0.249247
H46   H     H_    0.028332 0.545466 0.466420 0.203310
H47   H     H_    0.269240 0.390055 0.101533 0.190194
H48   H     H_    0.363372 0.481721 0.141653 0.198976
H49   H     H_    0.311186 0.565351 0.208603 0.196553
H50   H     H_    0.216280 0.474188 0.167641 0.188309
H51   H     H_    0.290444 0.597214 0.825354 0.298795
H52   H     H_    0.317714 0.603739 0.923719 0.233602
H53   H     H_    0.303436 0.517657 0.844343 0.247750
H54   H     H_    0.181012 0.479351 0.864366 0.201351
H55   H     H_    0.154679 0.468304 0.765557 0.252316
H56   H     H_    0.147571 0.593087 0.796984 0.252528
H57   H     H_    0.344231 0.033266 0.428196 0.150864
H58   H     H_    0.193694 0.627250 0.900794 0.219720
H59   H     H_    0.718876 0.039913 0.878847 0.282417
H60   H     H_    0.681125 0.099621 0.841156 0.250139
H61   H     H_    0.684820 0.017818 0.775007 0.249091
H62   H     H_    0.802908 0.152823 0.819829 0.210705
H63   H     H_    0.837608 0.091699 0.855351 0.205096
H64   H     H_    0.867846 0.170342 0.990652 0.195587
H65   H     H_    0.815232 0.222161 0.963154 0.179139
H66   H     H_    0.261666 0.637755 0.011549 0.139441
H67   H     H_    0.527006 0.123337 0.509525 0.147948
H68   H     H_    0.553820 0.005277 0.613216 0.172338
H69   H     H_    0.874164 0.966809 0.838745 0.191340
H70   H     H_    0.871995 0.377204 0.135475 0.126730
H71   H     H_    0.042146 0.073579 0.035167 0.180738
H72   H     H_    0.937428 0.019946 0.969862 0.191358
H73   H     H_    0.041228 0.955707 0.020854 0.213844
H74   H     H_    0.934802 0.904050 0.958774 0.223510
H75   H     H_    0.207447 0.644854 0.282519 0.138662
H76   H     H_    0.099280 0.868028 0.075333 0.274798
H77   H     H_    0.118596 0.934561 0.171300 0.235758
H78   H     H_    0.203561 0.942270 0.153892 0.296428
H79   H     H_    0.082651 0.783263 0.138080 0.206389
H80   H     H_    0.165498 0.865124 0.236056 0.190176
H81   H     H_    0.868595 0.627679 0.871536 0.203224
H82   H     H_    0.271346 0.861112 0.205820 0.174600
H83   H     H_    0.206656 0.801816 0.103669 0.246249
H84   H     H_    0.646188 0.319634 0.100880 0.249314
H85   H     H_    0.743373 0.320561 0.144153 0.279979
H86   H     H_    0.722297 0.387742 0.206609 0.269515
H87   H     H_    0.819438 0.466425 0.171950 0.215676
H88   H     H_    0.722507 0.463346 0.128377 0.196298
H89   H     H_    0.674889 0.354342 0.995093 0.192856
H90   H     H_    0.762402 0.342351 0.031223 0.172873
H91   H     H_    0.397791 0.252375 0.957125 0.267782
H92   H     H_    0.132943 0.516342 0.267237 0.099961
H93   H     H_    0.463588 0.275361 0.059320 0.268992
H94   H     H_    0.356866 0.249617 0.024225 0.244452
H95   H     H_    0.451194 0.399006 0.113862 0.201313
H96   H     H_    0.385413 0.376463 0.012523 0.195432
H97   H     H_    0.502850 0.387368 0.983744 0.208850
H98   H     H_    0.568596 0.416975 0.087273 0.182012
H99   H     H_    0.663690 0.621362 0.388764 0.253939
H100  H     H_    0.584132 0.514440 0.335244 0.260247
H101  H     H_    0.691605 0.542616 0.371385 0.265232
H102  H     H_    0.617325 0.492285 0.223814 0.205717
H103  H     H_    0.415349 0.488068 0.968128 0.137279
H104  H     H_    0.695847 0.598747 0.276474 0.200995
H105  H     H_    0.585895 0.637882 0.269774 0.201706
H106  H     H_    0.508132 0.531494 0.213994 0.188668
H107  H     H_    0.312336 0.643318 0.572345 0.271800
H108  H     H_    0.275663 0.607474 0.465251 0.244220
H109  H     H_    0.272754 0.694906 0.523141 0.296933
H110  H     H_    0.133544 0.573469 0.440015 0.192697
H111  H     H_    0.169199 0.608133 0.546149 0.272232
H112  H     H_    0.219151 0.499506 0.531459 0.240504
H113  H     H_    0.165182 0.463917 0.426176 0.172377
H114  H     H_    0.547000 0.595043 0.961173 0.154968
H115  H     H_    0.197058 0.064594 0.538365 0.289451
H116  H     H_    0.122340 0.970389 0.444123 0.259318
H117  H     H_    0.118145 0.981648 0.535142 0.251808
H118  H     H_    0.177793 0.894936 0.505158 0.228410
H119  H     H_    0.253707 0.989052 0.597171 0.232710
H120  H     H_    0.296311 0.042255 0.504827 0.206320
H121  H     H_    0.234237 0.938953 0.428172 0.173369
H122  H     H_    0.439462 0.100206 0.275554 0.260823
H123  H     H_    0.358888 0.994269 0.207129 0.268433
H124  H     H_    0.334325 0.075228 0.215185 0.269746
H125  H     H_    0.865595 0.416839 0.717508 0.169044
H126  H     H_    0.288935 0.007488 0.290508 0.213290
H127  H     H_    0.368411 0.111323 0.356647 0.214575
H128  H     H_    0.472262 0.058080 0.381247 0.196600
H129  H     H_    0.385174 0.957579 0.323169 0.185024
H130  H     H_    0.422705 0.288157 0.492310 0.237535
H131  H     H_    0.507600 0.345795 0.595971 0.285106
H132  H     H_    0.525686 0.355994 0.516371 0.256320
H133  H     H_    0.576527 0.268587 0.556773 0.250328
H134  H     H_    0.493198 0.211914 0.454776 0.209632
H135  H     H_    0.395039 0.162526 0.509833 0.198046
H136  H     H_    0.699209 0.679479 0.195776 0.135448
H137  H     H_    0.485956 0.216436 0.606138 0.258483
H138  H     H_    0.535421 0.863650 0.306217 0.269656
H139  H     H_    0.624324 0.959154 0.391500 0.272723
H140  H     H_    0.622892 0.863808 0.375315 0.259818
H141  H     H_    0.594057 0.912084 0.486156 0.219881
H142  H     H_    0.508193 0.817045 0.401596 0.234889
H143  H     H_    0.429173 0.873985 0.356299 0.181175
H144  H     H_    0.512504 0.974558 0.407459 0.174212
H145  H     H_    0.524764 0.067120 0.843463 0.250168
H146  H     H_    0.480544 0.127050 0.815291 0.297954
H147  H     H_    0.590245 0.724224 0.108224 0.142368
H148  H     H_    0.428586 0.052171 0.839989 0.243953
H149  H     H_    0.355886 0.993950 0.692116 0.224827
H150  H     H_    0.405541 0.940293 0.721595 0.208012
H151  H     H_    0.467329 0.959185 0.649826 0.212782
H152  H     H_    0.531065 0.062326 0.722273 0.181907
H153  H     H_    0.781432 0.102219 0.595388 0.276060
H154  H     H_    0.792820 0.191973 0.668552 0.265101
H155  H     H_    0.829524 0.129596 0.701263 0.242334
H156  H     H_    0.695781 0.104070 0.697653 0.211872
H157  H     H_    0.686133 0.013922 0.629265 0.220347
N1    N     N_R   0.043550 0.386750 0.043430 -0.052938
N2    N     N_R   0.843320 0.343600 0.886740 -0.057613
N3    N     N_R   0.156920 0.543410 0.000250 -0.055010
N4    N     N_R   0.843210 0.386780 0.843560 -0.074566
N5    N     N_R   0.157030 0.500230 0.043430 -0.064475
N6    N     N_R   0.043140 0.543420 0.886740 -0.052433
N7    N     N_R   0.957090 0.343580 0.000250 -0.061991
N8    N     N_R   0.156790 0.613220 0.156440 -0.061713
N9    N     N_R   0.842970 0.499770 0.956570 -0.084373
N10   N     N_R   0.956860 0.456580 0.113260 -0.045172
N11   N     N_R   0.042910 0.656420 0.999750 -0.084283
N12   N     N_R   0.956450 0.613250 0.956570 -0.068139
N13   N     N_R   0.043310 0.499740 0.156440 -0.041178
N14   N     N_R   0.156680 0.656400 0.113260 -0.056087
N15   N     N_R   0.843080 0.456590 0.999750 -0.081458
N16   N     N_R   0.956690 0.500260 0.843560 -0.050650
Ni1   Ni    Ni4+2 0.099270 0.499990 0.099040 0.191377
Ni2   Ni    Ni4+2 0.900730 0.500010 0.900960 0.274643
Ni3   Ni    Ni4+2 0.900990 0.400990 0.000000 0.190321
Ni4   Ni    Ni4+2 0.099010 0.599010 0.000000 0.231692

loop_
_geom_bond_atom_site_label_1
_geom_bond_atom_site_label_2
_ccdc_geom_bond_type
N13   Ni1   S    
C3    H151  S    
C48   C50   S    
C111  C112  S    
N4    Ni2   S    
C4    H150  S    
C18   H22   S    
C40   C41   S    
C99   C100  A    
C8    H155  S    
N2    N4    A    
N9    N15   A    
C12   C84   S    
C82   N5    A    
C19   C87   S    
C10   H8    S    
C3    C76   S    
C124  H135  S    
C11   H7    S    
C12   H18   S    
C48   H136  S    
C91   C92   S    
C128  C129  S    
C39   C119  A    
N1    N7    A    
C85   C89   S    
C45   C47   S    
C19   C20   S    
N6    Ni4   S    
C74   C79   S    
C26   H49   S    
C13   C101  S    
C25   H36   S    
C22   H41   S    
C4    C5    S    
C35   C37   A    
C51   C107  S    
C108  N11   A    
C69   C76   S    
C107  H97   S    
C15   H12   S    
C73   C80   T    
C21   H29   S    
C6    C7    S    
C9    H10   S    
C37   C86   A    
C124  H137  S    
C125  H134  S    
C39   C88   S    
C125  C126  S    
N7    Ni3   S    
C109  H95   S    
C30   C31   S    
C79   C127  S    
C6    H4    S    
C22   C23   S    
C110  H91   S    
Br4   C69   S    
C114  H112  S    
C28   H43   S    
C122  H126  S    
N10   Ni3   S    
C7    H157  S    
C58   N3    A    
C120  H116  S    
C121  H128  S    
C16   C85   S    
C9    C10   S    
C43   C64   S    
C44   C54   T    
C115  H110  S    
Br12  C56   S    
C113  H100  S    
C41   C47   S    
C59   C66   T    
C1    C100  A    
Br1   C86   S    
N2    Ni3   S    
C25   H37   S    
C64   C82   A    
C11   H5    S    
C124  C125  S    
C116  H109  S    
Br8   C108  S    
C31   H52   S    
C16   H26   S    
C46   N2    A    
C111  H106  S    
C40   H114  S    
C20   H31   S    
C74   C81   S    
C115  C116  S    
C5    H146  S    
C6    C78   S    
C41   C51   S    
Br6   C87   S    
C93   H71   S    
C43   C52   T    
C45   H147  S    
C128  H142  S    
C118  C120  S    
C7    C8    S    
C19   H33   S    
C112  H104  S    
C110  H94   S    
N11   Ni4   S    
C98   C100  S    
C32   C99   S    
C39   C108  A    
C12   C14   S    
C121  H129  S    
N6    N16   A    
C105  H88   S    
N8    N14   A    
N1    Ni1   S    
C88   C95   T    
C113  H101  S    
C114  H113  S    
C36   C75   A    
C63   C65   S    
C55   H35   S    
N9    Ni2   S    
C23   H40   S    
N11   N12   A    
C13   N14   A    
C12   H19   S    
C117  H121  S    
C92   H73   S    
C104  H89   S    
C81   C83   T    
C92   C93   S    
C97   H70   S    
N3    Ni4   S    
C127  H143  S    
Br5   C70   S    
N3    N5    A    
C29   H58   S    
C53   C70   A    
C116  H107  S    
C14   H16   S    
C15   H15   S    
C42   C94   A    
C21   H28   S    
C106  H85   S    
C5    H148  S    
C119  H81   S    
C76   C77   S    
C10   C11   S    
C69   C117  S    
C1    H1    S    
C14   C15   S    
N8    Ni1   S    
C16   C17   S    
C129  H139  S    
C42   C68   S    
C58   C64   A    
C112  H102  S    
C49   C54   S    
C8    H154  S    
C29   H56   S    
C97   N10   A    
C32   H65   S    
C103  H76   S    
N5    Ni1   S    
C26   C82   S    
C126  H131  S    
C107  C109  S    
C105  C106  S    
C114  C115  S    
C2    H92   S    
C118  H119  S    
C3    H152  S    
C4    H149  S    
C72   H67   S    
C7    H156  S    
C121  C122  S    
C60   C67   S    
C30   H55   S    
C94   N6    A    
C63   H24   S    
C50   C111  S    
C56   C57   S    
C102  C103  S    
C29   C94   S    
C16   H27   S    
Br15  C61   S    
Br2   C76   S    
C34   H60   S    
C48   C49   S    
C127  H144  S    
C55   C60   S    
C102  H80   S    
C72   C77   S    
C24   H125  S    
C17   H25   S    
C34   H59   S    
C21   H30   S    
C26   C27   S    
C20   C21   S    
C57   C114  S    
C62   C63   S    
C32   H64   S    
C109  H96   S    
C13   C36   A    
Br11  C56   S    
C103  H78   S    
C3    C4    S    
N16   Ni2   S    
C27   H47   S    
C86   N9    A    
Br7   C90   S    
Br9   C61   S    
C117  H120  S    
C115  H111  S    
C36   C83   S    
C84   C89   S    
Br13  C65   S    
C40   C45   S    
N12   Ni2   S    
C25   H38   S    
C122  H127  S    
C41   H103  S    
C18   H21   S    
C85   H69   S    
C101  H83   S    
C10   H9    S    
C11   H6    S    
C71   C72   S    
C31   H53   S    
C26   H50   S    
C46   H13   S    
C22   H42   S    
C62   C66   S    
C78   H68   S    
C119  N12   A    
C93   H72   S    
Br10  C55   S    
C33   C34   S    
C34   H61   S    
C128  H141  S    
C111  H105  S    
C129  H138  S    
C19   H34   S    
C27   C28   S    
C20   H32   S    
C112  C113  S    
C2    C38   A    
C89   C93   S    
C110  H93   S    
C29   C30   S    
C120  H115  S    
C125  H133  S    
C72   C124  S    
C71   C74   S    
C104  C105  S    
C90   C91   S    
C2    N13   A    
N15   Ni3   S    
C17   C18   S    
C23   C25   S    
C123  H124  S    
C28   H44   S    
C57   H2    S    
C33   H63   S    
C77   C78   S    
C24   N16   A    
C67   C68   T    
C123  H123  S    
C17   H23   S    
C113  H99   S    
C127  C128  S    
C49   C51   S    
C78   C79   S    
C63   H46   S    
C31   H51   S    
C107  H98   S    
C106  H84   S    
C47   C52   S    
C45   C48   S    
C5    H145  S    
C6    H3    S    
C24   C42   A    
C101  C102  S    
C117  C118  S    
C129  H140  S    
Br14  C65   S    
C60   C65   S    
C8    H153  S    
C9    H11   S    
C35   N15   A    
C103  H77   S    
C126  H130  S    
C105  H87   S    
C118  H118  S    
C84   C90   S    
C35   C104  S    
C14   H17   S    
C58   H66   S    
C18   H20   S    
C61   C62   S    
C96   C98   T    
C123  H122  S    
C30   H54   S    
C77   C80   S    
C23   H39   S    
C101  H82   S    
C57   C62   S    
C37   C44   S    
C92   H74   S    
C104  H90   S    
C32   C33   S    
C71   H57   S    
C40   C49   S    
C85   C87   S    
C75   H75   S    
C38   C97   A    
C71   C121  S    
C120  H117  S    
C55   C61   S    
C53   C73   S    
C102  H79   S    
C69   C74   S    
C33   H62   S    
C22   C84   S    
C116  H108  S    
C70   N4    A    
C91   C95   S    
C15   H14   S    
C106  H86   S    
C47   C50   S    
C89   C96   S    
C75   N8    A    
C122  C123  S    
N14   Ni4   S    
C56   C60   S    
C46   C53   A    
C87   C91   S    
Br3   C79   S    
C99   N7    A    
C27   H48   S    
C28   H45   S    
C50   C51   S    
N10   N13   A    
C1    N1    A    
C9    C90   S    
C126  H132  S    
C109  C110  S    
C38   C59   S    
