data_mof_unit_30536.cif
_audit_creation_date              2012-10-26T19:40:07-0400
_audit_creation_method            fapswitch 2.2
_symmetry_space_group_name_H-M    P1
_symmetry_Int_Tables_number       1
_space_group_crystal_system       triclinic
_cell_length_a                    14.99229
_cell_length_b                    8.709578
_cell_length_c                    7.466248
_cell_angle_alpha                 103.047164
_cell_angle_beta                  94.350671
_cell_angle_gamma                 92.898619
_cell_volume                      944.709582244

loop_
_atom_site_label
_atom_site_type_symbol
_atom_type_description
_atom_site_fract_x
_atom_site_fract_y
_atom_site_fract_z
_atom_type_partial_charge
Br1   Br    Br    0.761465 0.837028 0.661743 -0.314466
Br2   Br    Br    0.238535 0.162972 0.338257 -0.314466
Br3   Br    Br    0.875721 0.014678 0.248984 -0.282356
Br4   Br    Br    0.124279 0.985322 0.751016 -0.282356
C1    C     C_R   0.497307 0.200112 0.453503 0.588992
C2    C     C_R   0.180346 0.355104 0.432277 0.109662
C3    C     C_R   0.766901 0.504493 0.493917 0.034151
C4    C     C_R   0.233099 0.495507 0.506083 0.034151
C5    C     C_R   0.804791 0.363607 0.420521 0.380694
C6    C     C_R   0.195209 0.636392 0.579478 0.380694
C7    C     C_R   0.898259 0.358625 0.422498 0.037015
C8    C     C_R   0.101741 0.641375 0.577502 0.037015
C9    C     C_R   0.952853 0.500467 0.497920 -0.051028
C10   C     C_R   0.047147 0.499532 0.502080 -0.051028
C11   C     C_R   0.913281 0.643522 0.569480 -0.007539
C12   C     C_R   0.502693 0.799888 0.546497 0.588992
C13   C     C_R   0.086719 0.356478 0.430520 -0.007539
C14   C     C_R   0.939213 0.217054 0.353156 0.206190
C15   C     C_R   0.060787 0.782946 0.646844 0.206190
C16   C     C_R   0.031962 0.217840 0.357985 -0.052519
C17   C     C_R   0.968038 0.782160 0.642015 -0.052519
C18   C     C_2   0.495558 0.032785 0.427190 0.402222
C19   C     C_2   0.504442 0.967215 0.572810 0.402222
C20   C     C_R   0.329254 0.498047 0.501914 0.587908
C21   C     C_R   0.670746 0.501953 0.498086 0.587908
C22   C     C_R   0.819654 0.644896 0.567723 0.109662
Cu1   Cu    Cu3+1 0.510010 0.517380 0.684380 1.359096
Cu2   Cu    Cu3+1 0.489990 0.482620 0.315620 1.359096
F1    F     F_    0.748727 0.232617 0.351915 -0.549641
F2    F     F_    0.251273 0.767382 0.648085 -0.549641
F3    F     F_    0.484366 0.945587 0.249697 -0.533497
F4    F     F_    0.515633 0.054412 0.750303 -0.533497
F5    F     F_    0.413179 0.357482 0.925578 -0.467304
F6    F     F_    0.586821 0.642518 0.074422 -0.467304
H1    H     H_    0.060389 0.107177 0.303348 0.203885
H2    H     H_    0.939611 0.892822 0.696652 0.203885
N1    N     N_2   0.474890 0.456420 0.038520 0.202639
N2    N     N_2   0.525110 0.543580 0.961480 0.202639
O1    O     O_R   0.506510 0.286130 0.619770 -0.468996
O2    O     O_R   0.493490 0.713870 0.380230 -0.468996
O3    O     O_R   0.489600 0.256770 0.308360 -0.433030
O4    O     O_R   0.510400 0.743230 0.691640 -0.433030
O5    O     O_R   0.378710 0.514640 0.655720 -0.459012
O6    O     O_R   0.621290 0.485360 0.344280 -0.459012
O7    O     O_R   0.361800 0.485290 0.344300 -0.493066
O8    O     O_R   0.638200 0.514710 0.655700 -0.493066

loop_
_geom_bond_atom_site_label_1
_geom_bond_atom_site_label_2
_ccdc_geom_bond_type
C8    C15   A    
C7    C14   A    
N1    N2    D    
Cu1   O5    S    
C7    C9    A    
C6    F2    S    
C10   C13   A    
C5    F1    S    
C19   F4    S    
C9    C11   A    
C17   H2    S    
C9    C10   A    
C5    C7    A    
Cu1   O4    S    
Br2   C2    S    
C3    C22   A    
C6    C8    A    
Cu2   N1    S    
C12   O2    A    
C20   O7    A    
Cu1   O8    S    
C15   C17   A    
C8    C10   A    
C16   H1    S    
C12   C19   S    
C14   C16   A    
C1    O1    A    
Br1   C22   S    
Cu2   O7    S    
C18   F3    S    
Cu2   O2    S    
Cu1   N2    S    
C2    C13   A    
C12   O4    A    
Cu2   O3    S    
C11   C17   A    
C13   C16   A    
C21   O6    A    
Br3   C14   S    
C4    C6    A    
Cu1   Cu2   S    
C3    C5    A    
C20   O5    A    
C1    O3    A    
C18   C19   D    
C11   C22   A    
C2    C4    A    
C4    C20   S    
F6    N2    S    
Br4   C15   S    
C21   O8    A    
Cu2   O6    S    
F5    N1    S    
C1    C18   S    
Cu1   O1    S    
C3    C21   S    
