data_mof_unit_14732.cif
_audit_creation_date              2012-12-10T18:29:35-0500
_audit_creation_method            fapswitch 2.2
_symmetry_space_group_name_H-M    P1
_symmetry_Int_Tables_number       1
_space_group_crystal_system       triclinic
_cell_length_a                    11.451008
_cell_length_b                    15.049606
_cell_length_c                    15.617638
_cell_angle_alpha                 83.897572
_cell_angle_beta                  88.7549
_cell_angle_gamma                 101.304209
_cell_volume                      2621.76638078

loop_
_atom_site_label
_atom_site_type_symbol
_atom_type_description
_atom_site_fract_x
_atom_site_fract_y
_atom_site_fract_z
_atom_type_partial_charge
C1    C     C_R   0.480291 0.443303 0.661298 0.902302
C2    C     C_R   0.517729 0.556993 0.338619 0.905281
C3    C     C_R   0.440992 0.356170 0.930299 -0.019598
C4    C     C_R   0.506794 0.649609 0.071967 -0.021973
C5    C     C_R   0.473393 0.517089 0.955164 0.062715
C6    C     C_R   0.471060 0.490111 0.043922 0.047608
C7    C     C_R   0.429228 0.397935 0.074464 -0.206870
C8    C     C_R   0.505960 0.610681 0.925924 -0.188160
C9    C     C_R   0.417323 0.330370 0.019083 0.357189
C10   C     C_R   0.510003 0.676968 0.982551 0.363679
C11   C     C_R   0.718457 0.849850 0.598087 0.313048
C12   C     C_R   0.283421 0.148171 0.402753 0.343458
C13   C     C_R   0.676819 0.759361 0.582010 -0.127796
C14   C     C_R   0.322493 0.238739 0.419910 -0.104828
C15   C     C_R   0.493306 0.793483 0.534517 0.430082
C16   C     C_R   0.509429 0.208128 0.463047 0.480094
C17   C     C_R   0.541854 0.887546 0.533089 -0.192220
C18   C     C_R   0.463763 0.113761 0.464567 -0.179812
C19   C     C_R   0.642738 0.913505 0.582142 -0.108913
C20   C     C_R   0.362143 0.086376 0.416515 -0.133496
C21   C     C_R   0.490363 0.956179 0.487800 0.059620
C22   C     C_R   0.519027 0.046151 0.508346 0.095060
C23   C     C_R   0.717098 0.499274 0.499557 0.920186
C24   C     C_R   0.282943 0.500852 0.500132 0.917889
C25   C     C_R   0.594349 0.064398 0.576880 -0.170995
C26   C     C_R   0.417813 0.938453 0.417980 -0.151069
C27   C     C_R   0.658591 0.000533 0.613123 0.437902
C28   C     C_R   0.349116 0.999977 0.384319 0.410906
C29   C     C_1   0.837532 0.498128 0.498979 -0.069431
C30   C     C_1   0.162594 0.502265 0.500228 -0.037883
C31   C     C_1   0.940370 0.499193 0.499161 0.042623
C32   C     C_1   0.059804 0.501355 0.499812 0.069666
C33   C     C_R   0.460877 0.410933 0.752974 -0.170418
C34   C     C_R   0.524257 0.591239 0.247104 -0.172337
C35   C     C_R   0.453886 0.293131 0.872195 -0.056330
C36   C     C_R   0.510600 0.711538 0.133745 -0.055262
C37   C     C_R   0.471825 0.322215 0.784303 -0.223196
C38   C     C_R   0.511327 0.680895 0.221051 -0.203626
C39   C     C_R   0.432746 0.469902 0.810512 0.357011
C40   C     C_R   0.536875 0.533066 0.184853 0.353553
C41   C     C_R   0.450039 0.449131 0.898254 -0.036638
C42   C     C_R   0.503763 0.556522 0.100703 -0.054285
H1    H     H_    0.601213 0.128336 0.603737 0.185783
H2    H     H_    0.414048 0.875543 0.389766 0.199854
H3    H     H_    0.504778 0.728026 0.267933 0.203198
H4    H     H_    0.490657 0.274810 0.740817 0.195869
H5    H     H_    0.457477 0.223205 0.894386 0.224853
H6    H     H_    0.509137 0.782653 0.116086 0.223186
H7    H     H_    0.404998 0.378638 0.141977 0.212445
H8    H     H_    0.528116 0.632476 0.858966 0.189452
H9    H     H_    0.262544 0.285825 0.412139 0.176592
H10   H     H_    0.734653 0.710874 0.591692 0.177400
N1    N     N_R   0.566020 0.731700 0.552730 -0.147920
N2    N     N_R   0.433980 0.268300 0.447270 -0.153222
O1    O     O_R   0.466720 0.383110 0.605620 -0.614529
O2    O     O_R   0.533280 0.616890 0.394380 -0.622090
O3    O     O_R   0.509090 0.531900 0.639510 -0.572299
O4    O     O_R   0.490910 0.468100 0.360490 -0.547647
O5    O     O_R   0.644370 0.425610 0.483050 -0.509054
O6    O     O_R   0.355630 0.574390 0.516950 -0.509567
O7    O     O_R   0.686740 0.574390 0.516930 -0.649529
O8    O     O_R   0.313260 0.425610 0.483070 -0.656156
Zn1   Zn    Zn3+2 0.471710 0.400660 0.477370 1.072498
Zn2   Zn    Zn3+2 0.528290 0.599340 0.522630 1.067136
S1    S     S_3+6 0.358480 0.217256 0.063549 0.097216
O9    O     O_2   0.284462 0.164509 0.000396 -0.225762
O10   O     O_2   0.459035 0.170695 0.089470 -0.212520
O11   O     O_3   0.272357 0.220499 0.151294 -0.476166
H11   H     H_    0.203863 0.245711 0.128957 0.374541
S2    S     S_3+6 0.524089 0.792346 0.938612 0.112674
O12   O     O_2   0.423398 0.830364 0.973891 -0.195912
O13   O     O_2   0.640181 0.847127 0.963526 -0.220781
O14   O     O_3   0.518747 0.801452 0.830494 -0.458212
H12   H     H_    0.594239 0.786550 0.809885 0.364575
S3    S     S_3+6 0.630158 0.451260 0.203981 0.077358
O15   O     O_2   0.689996 0.438753 0.120625 -0.271432
O16   O     O_2   0.724796 0.484793 0.264673 -0.236284
O17   O     O_3   0.548788 0.350468 0.247879 -0.523641
H13   H     H_    0.583671 0.303395 0.222580 0.410702
S4    S     S_3+6 0.334807 0.544981 0.779057 0.067635
O18   O     O_2   0.406228 0.635619 0.740791 -0.269978
O19   O     O_2   0.252460 0.504908 0.713265 -0.275443
O20   O     O_3   0.252593 0.559941 0.864997 -0.517222
H14   H     H_    0.211735 0.609930 0.844446 0.411698
S5    S     S_3+6 0.727934 0.025703 0.710717 0.142222
O21   O     O_2   0.736920 0.940311 0.766933 -0.177587
O22   O     O_2   0.850413 0.083475 0.691849 -0.202668
O23   O     O_3   0.645680 0.083934 0.765566 -0.498670
H15   H     H_    0.680148 0.149232 0.748233 0.361143
S6    S     S_3+6 0.275028 0.971846 0.289372 0.159166
O24   O     O_2   0.151063 0.918415 0.311734 -0.123572
O25   O     O_2   0.269498 0.055942 0.230449 -0.151467
O26   O     O_3   0.349020 0.906595 0.236485 -0.518386
H16   H     H_    0.427002 0.946450 0.218150 0.367182
S7    S     S_3+6 0.667657 0.244954 0.450069 0.060180
O27   O     O_2   0.724387 0.168399 0.426147 -0.268083
O28   O     O_2   0.699266 0.321401 0.378594 -0.192136
O29   O     O_3   0.724137 0.278712 0.542604 -0.598170
H17   H     H_    0.811463 0.284621 0.534458 0.392235
S8    S     S_3+6 0.333857 0.759123 0.538197 0.083931
O30   O     O_2   0.293291 0.727398 0.453680 -0.277795
O31   O     O_2   0.290449 0.684235 0.609314 -0.189247
O32   O     O_3   0.267154 0.845722 0.557402 -0.490985
H18   H     H_    0.290189 0.859819 0.615987 0.379436
S9    S     S_3+6 0.874670 0.883286 0.607447 0.137277
O33   O     O_2   0.916494 0.982191 0.574867 -0.127187
O34   O     O_2   0.907469 0.866932 0.699632 -0.223432
O35   O     O_3   0.945183 0.821620 0.547458 -0.465368
H19   H     H_    0.956923 0.768500 0.587124 0.370486
S10   S     S_3+6 0.127425 0.111369 0.395269 0.143354
O36   O     O_2   0.092907 0.119846 0.302929 -0.199302
O37   O     O_2   0.089367 0.014042 0.434160 -0.124864
O38   O     O_3   0.054781 0.175865 0.450344 -0.497575
H20   H     H_    0.042088 0.226328 0.407698 0.365843

loop_
_geom_bond_atom_site_label_1
_geom_bond_atom_site_label_2
_ccdc_geom_bond_type
C21   C26   A    
C4    C36   A    
O26   H16   S    
C8    H8    S    
O14   H12   S    
S7    O27   D    
C15   S8    S    
C35   H5    S    
C25   H1    S    
C12   S10   S    
S7    O29   S    
C26   H2    S    
C39   C41   A    
S5    O21   D    
C23   O5    A    
S9    O34   D    
C11   C19   A    
C33   C39   A    
O3    Zn2   S    
C34   C40   A    
C15   N1    A    
C35   C37   A    
C9    S1    S    
C14   H9    S    
C5    C6    A    
N1    Zn2   S    
N2    Zn1   S    
O35   H19   S    
C7    C9    A    
C27   S5    S    
S10   O36   D    
C38   H3    S    
O20   H14   S    
O11   H11   S    
S1    O10   D    
C22   C25   A    
O1    Zn1   S    
C11   S9    S    
O2    Zn2   S    
S2    O12   D    
C19   C27   A    
C2    C34   S    
C40   C42   A    
C34   C38   A    
C21   C22   A    
S4    O20   S    
C13   N1    A    
S5    O22   D    
S9    O35   S    
C1    C33   S    
C7    H7    S    
S4    O19   D    
O17   H13   S    
C20   C28   A    
S8    O32   S    
C33   C37   A    
O7    Zn2   S    
S3    O15   D    
O8    Zn1   S    
C3    C9    A    
C1    O3    A    
C13   H10   S    
S6    O25   D    
C31   C32   S    
C3    C35   A    
C24   O6    A    
S1    O11   S    
C12   C20   A    
S2    O14   S    
S8    O31   D    
S3    O16   D    
S10   O38   S    
C10   S2    S    
C16   C18   A    
C14   N2    A    
C12   C14   A    
O29   H17   S    
C24   C30   S    
C4    C10   A    
C23   C29   S    
S6    O26   S    
O38   H20   S    
S5    O23   S    
O4    Zn1   S    
C15   C17   A    
C5    C41   A    
C3    C41   A    
C16   S7    S    
C24   O8    A    
C18   C22   A    
C26   C28   A    
S4    O18   D    
C5    C8    A    
S2    O13   D    
S7    O28   D    
C6    C7    A    
C25   C27   A    
S9    O33   D    
O5    Zn1   S    
C40   S3    S    
O6    Zn2   S    
C39   S4    S    
C16   N2    A    
C36   C38   A    
C1    O1    A    
C29   C31   T    
C2    O2    A    
C30   C32   T    
C11   C13   A    
S6    O24   D    
C4    C42   A    
S8    O30   D    
C17   C19   A    
C36   H6    S    
C18   C20   A    
C2    O4    A    
S3    O17   S    
S10   O37   D    
C23   O7    A    
O23   H15   S    
C8    C10   A    
S1    O9    D    
C6    C42   A    
O32   H18   S    
C28   S6    S    
C37   H4    S    
C17   C21   A    
