data_mof_unit_47396.cif
_audit_creation_date              2012-12-11T14:41:03-0500
_audit_creation_method            fapswitch 2.2
_symmetry_space_group_name_H-M    P1
_symmetry_Int_Tables_number       1
_space_group_crystal_system       triclinic
_cell_length_a                    6.931818
_cell_length_b                    17.876163
_cell_length_c                    18.82562
_cell_angle_alpha                 90.002594
_cell_angle_beta                  89.98812
_cell_angle_gamma                 90.093155
_cell_volume                      2332.76054778

loop_
_atom_site_label
_atom_site_type_symbol
_atom_type_description
_atom_site_fract_x
_atom_site_fract_y
_atom_site_fract_z
_atom_type_partial_charge
O1    O     O_R   0.377350 0.828520 0.186660 -0.538618
O2    O     O_R   0.622650 0.171480 0.813340 -0.538616
O3    O     O_R   0.122650 0.171480 0.686660 -0.538784
O4    O     O_R   0.877350 0.828520 0.313340 -0.538788
O5    O     O_R   0.877350 0.671480 0.313340 -0.538622
O6    O     O_R   0.122650 0.328520 0.686660 -0.538625
O7    O     O_R   0.622650 0.328520 0.813340 -0.538605
O8    O     O_R   0.377350 0.671480 0.186660 -0.538607
O9    O     O_R   0.707090 0.671930 0.178410 -0.519481
O10   O     O_R   0.292910 0.328070 0.821590 -0.519482
O11   O     O_R   0.792910 0.328070 0.678410 -0.519492
O12   O     O_R   0.207090 0.671930 0.321590 -0.519487
O13   O     O_R   0.207090 0.828070 0.321590 -0.518907
O14   O     O_R   0.792910 0.171930 0.678410 -0.518906
O15   O     O_R   0.292910 0.171930 0.821590 -0.518784
O16   O     O_R   0.707090 0.828070 0.178410 -0.518778
C1    C     C_R   0.540043 0.644771 0.162294 0.753470
C2    C     C_R   0.459957 0.355230 0.837705 0.753476
C3    C     C_R   0.959975 0.355229 0.662296 0.753394
C4    C     C_R   0.040024 0.644771 0.337704 0.753387
C5    C     C_R   0.040310 0.855259 0.337696 0.750848
C6    C     C_R   0.959690 0.144744 0.662300 0.750826
C7    C     C_R   0.459639 0.144735 0.837697 0.750973
C8    C     C_R   0.540362 0.855268 0.162306 0.751002
O17   O     O_3   0.543850 0.750000 0.294270 -0.371719
O18   O     O_3   0.456150 0.250000 0.705730 -0.371719
O19   O     O_3   0.956150 0.250000 0.794270 -0.371535
O20   O     O_3   0.043850 0.750000 0.205730 -0.371534
V1    V     V_3+5 0.818700 0.750000 0.241790 1.526685
V2    V     V_3+5 0.181300 0.250000 0.758210 1.526669
V3    V     V_3+5 0.681300 0.250000 0.741790 1.526636
V4    V     V_3+5 0.318700 0.750000 0.258210 1.526648
C9    C     C_R   0.956917 0.417931 0.609899 -0.163215
C10   C     C_R   0.043081 0.582068 0.390100 -0.163237
C11   C     C_R   0.543126 0.582075 0.109889 -0.163306
C12   C     C_R   0.456873 0.417926 0.890109 -0.163291
C13   C     C_R   0.455601 0.082191 0.890304 -0.165245
C14   C     C_R   0.544399 0.917821 0.109709 -0.165182
C15   C     C_R   0.044141 0.917850 0.390244 -0.164923
C16   C     C_R   0.955858 0.082158 0.609745 -0.164986
C17   C     C_R   0.220316 0.480371 0.447871 -0.262265
C18   C     C_R   0.779683 0.519628 0.552129 -0.262285
C19   C     C_R   0.279618 0.519622 0.947918 -0.262268
C20   C     C_R   0.720384 0.480380 0.052080 -0.262260
C21   C     C_R   0.724830 0.017788 0.050108 -0.262657
C22   C     C_R   0.275149 0.982235 0.949914 -0.262618
C23   C     C_R   0.776219 0.981703 0.550607 -0.262415
C24   C     C_R   0.223769 0.018312 0.449376 -0.262463
C25   C     C_R   0.201241 0.531639 0.391232 0.461323
C26   C     C_R   0.798772 0.468364 0.608771 0.461372
C27   C     C_R   0.298686 0.468353 0.891274 0.461274
C28   C     C_R   0.701316 0.531649 0.108725 0.461250
C29   C     C_R   0.705843 0.966892 0.107026 0.460791
C30   C     C_R   0.294153 0.033123 0.892995 0.460815
C31   C     C_R   0.795202 0.032702 0.607461 0.460979
C32   C     C_R   0.204788 0.967312 0.392519 0.460964
C33   C     C_R   0.900250 0.576063 0.442769 -0.279468
C34   C     C_R   0.099735 0.423932 0.557227 -0.279505
C35   C     C_R   0.599744 0.423935 0.942748 -0.279351
C36   C     C_R   0.400256 0.576067 0.057250 -0.279341
C37   C     C_R   0.398708 0.924998 0.058298 -0.278586
C38   C     C_R   0.601285 0.075019 0.941719 -0.278550
C39   C     C_R   0.100875 0.075319 0.558008 -0.278716
C40   C     C_R   0.899125 0.924691 0.441981 -0.278766
C41   C     C_R   0.919057 0.523861 0.498527 0.090605
C42   C     C_R   0.080930 0.476135 0.501470 0.090613
C43   C     C_R   0.580954 0.476140 0.998509 0.090581
C44   C     C_R   0.419047 0.523863 0.001488 0.090576
C45   C     C_R   0.417560 0.976885 0.002265 0.089798
C46   C     C_R   0.582425 0.023136 0.997756 0.089852
C47   C     C_R   0.082064 0.023342 0.502046 0.090065
C48   C     C_R   0.917931 0.976670 0.497940 0.090011
H1    H     H_    0.345906 0.444544 0.450705 0.128919
H2    H     H_    0.654103 0.555457 0.549297 0.128924
H3    H     H_    0.154010 0.555447 0.950778 0.128942
H4    H     H_    0.845991 0.444552 0.049222 0.128938
H5    H     H_    0.852723 0.052413 0.046071 0.129850
H6    H     H_    0.147245 0.947612 0.953945 0.129896
H7    H     H_    0.648892 0.946735 0.546865 0.129557
H8    H     H_    0.351088 0.053283 0.453122 0.129520
H9    H     H_    0.221249 0.385830 0.557959 0.148158
H10   H     H_    0.778730 0.614163 0.442036 0.148167
H11   H     H_    0.278709 0.614165 0.058010 0.148218
H12   H     H_    0.721291 0.385838 0.941988 0.148220
H13   H     H_    0.725353 0.111985 0.939829 0.151317
H14   H     H_    0.274641 0.888031 0.060186 0.151329
H15   H     H_    0.775682 0.887396 0.440392 0.150422
H16   H     H_    0.224321 0.112611 0.559600 0.150424
O21   O     O_3   0.656651 0.462154 0.660583 -0.542419
C49   C     C_3   0.614466 0.532351 0.691181 -0.265063
H17   H     H_    0.503030 0.561842 0.659448 0.139870
H18   H     H_    0.744866 0.568226 0.697800 0.108042
H19   H     H_    0.553770 0.522737 0.744929 0.163718
O22   O     O_3   0.343405 0.537860 0.339432 -0.542402
C50   C     C_3   0.385600 0.467667 0.308806 -0.264876
H20   H     H_    0.255158 0.431812 0.302138 0.108005
H21   H     H_    0.496977 0.438149 0.340555 0.139819
H22   H     H_    0.446409 0.477292 0.255070 0.163660
O23   O     O_3   0.843498 0.537864 0.160506 -0.542403
C51   C     C_3   0.885659 0.467671 0.191113 -0.264802
H23   H     H_    0.997103 0.438171 0.159355 0.139863
H24   H     H_    0.755215 0.431799 0.197758 0.107983
H25   H     H_    0.946376 0.477292 0.244865 0.163650
O24   O     O_3   0.156504 0.462136 0.839496 -0.542412
C52   C     C_3   0.114379 0.532324 0.808890 -0.264878
H26   H     H_    0.244816 0.568190 0.802246 0.108004
H27   H     H_    0.002960 0.561834 0.840643 0.139874
H28   H     H_    0.053669 0.522694 0.755144 0.163720
O25   O     O_3   0.148767 0.040340 0.842617 -0.542609
C53   C     C_3   0.104119 0.970634 0.811394 -0.265323
H29   H     H_    0.996224 0.940168 0.844087 0.139745
H30   H     H_    0.234173 0.935308 0.802343 0.108371
H31   H     H_    0.037883 0.981129 0.758707 0.163340
O26   O     O_3   0.851250 0.959646 0.157395 -0.542618
C54   C     C_3   0.896286 0.029351 0.188535 -0.265386
H32   H     H_    0.766402 0.064770 0.197591 0.108409
H33   H     H_    0.004237 0.059708 0.155779 0.139809
H34   H     H_    0.962606 0.018867 0.241211 0.163407
O27   O     O_3   0.349364 0.960344 0.341753 -0.542644
C55   C     C_3   0.394710 0.030229 0.311033 -0.267181
H35   H     H_    0.504054 0.059992 0.343632 0.140432
H36   H     H_    0.265215 0.066063 0.302782 0.108599
H37   H     H_    0.459420 0.020085 0.258020 0.162911
O28   O     O_3   0.650608 0.039660 0.658216 -0.542632
C56   C     C_3   0.605650 0.969785 0.689045 -0.267033
H38   H     H_    0.735344 0.934085 0.697374 0.108567
H39   H     H_    0.496516 0.939861 0.656483 0.140302
H40   H     H_    0.540834 0.979966 0.742030 0.162884

loop_
_geom_bond_atom_site_label_1
_geom_bond_atom_site_label_2
_ccdc_geom_bond_type
C9    C34   A    
C39   H16   S    
O13   V4    S    
C50   H20   S    
C23   H7    S    
O14   V3    S    
C12   C35   A    
C19   C27   A    
C13   C38   A    
C50   H22   S    
O5    C4    A    
C55   H35   S    
O6    C3    A    
C52   H27   S    
O11   C3    A    
C16   C39   A    
O15   V2    S    
O20   V1    S    
C36   H11   S    
C54   H32   S    
C38   C46   A    
O14   C6    A    
C20   H4    S    
C53   H29   S    
C22   C45   A    
C35   C43   A    
C34   C42   A    
C15   C32   A    
C19   C44   A    
C54   H33   S    
C18   C41   A    
C8    C14   S    
C25   O22   S    
C40   H15   S    
O4    V1    S    
C55   H37   S    
O9    V1    S    
C14   C37   A    
C4    C10   S    
C54   H34   S    
O17   V4    S    
O15   C7    A    
O11   V3    S    
O18   V3    S    
O16   C8    A    
O12   V4    S    
O19   V2    S    
O17   V1    S    
C22   C30   A    
C45   C46   A    
C17   C25   A    
O24   C52   S    
C38   H13   S    
C55   H36   S    
O26   C54   S    
O5    V1    S    
C19   H3    S    
C52   H28   S    
C18   H2    S    
O7    V3    S    
O19   V3    S    
C43   C44   A    
O8    V4    S    
O20   V4    S    
C35   H12   S    
C3    C9    S    
C34   H9    S    
C22   H6    S    
C9    C26   A    
C7    C13   S    
C17   H1    S    
C51   H25   S    
C30   O25   S    
O2    V3    S    
O3    V2    S    
C15   C40   A    
C56   H40   S    
O10   V2    S    
C26   O21   S    
C49   H18   S    
O23   C51   S    
C5    C15   S    
O7    C2    A    
C6    C16   S    
O12   C4    A    
C51   H24   S    
O13   C5    A    
C53   H31   S    
C36   C44   A    
C12   C27   A    
C18   C26   A    
C13   C30   A    
O9    C1    A    
O6    V2    S    
C39   C47   A    
O18   V2    S    
C56   H38   S    
C32   O27   S    
C24   C47   A    
O2    C7    A    
C29   O26   S    
C49   H19   S    
C23   C31   A    
C37   C45   A    
C24   C32   A    
C31   O28   S    
C10   C25   A    
C21   C46   A    
C33   C41   A    
C20   C43   A    
C16   C31   A    
O27   C55   S    
C50   H21   S    
C17   C42   A    
C52   H26   S    
C28   O23   S    
O8    C1    A    
C24   H8    S    
C27   O24   S    
C47   C48   A    
O25   C53   S    
O4    C5    A    
C20   C28   A    
C49   H17   S    
C14   C29   A    
O10   C2    A    
C10   C33   A    
C51   H23   S    
O1    V4    S    
O22   C50   S    
C53   H30   S    
C23   C48   A    
C37   H14   S    
C21   C29   A    
O16   V1    S    
O1    C8    A    
C41   C42   A    
C11   C28   A    
C56   H39   S    
C33   H10   S    
C11   C36   A    
O3    C6    A    
C21   H5    S    
C1    C11   S    
O21   C49   S    
C2    C12   S    
C40   C48   A    
O28   C56   S    
