data_mof_unit_8976.cif
_audit_creation_date              2012-10-26T18:27:30-0400
_audit_creation_method            fapswitch 2.2
_symmetry_space_group_name_H-M    P1
_symmetry_Int_Tables_number       1
_space_group_crystal_system       triclinic
_cell_length_a                    10.889297
_cell_length_b                    11.019354
_cell_length_c                    9.901362
_cell_angle_alpha                 111.470341
_cell_angle_beta                  97.475046
_cell_angle_gamma                 91.134677
_cell_volume                      1093.32252713

loop_
_atom_site_label
_atom_site_type_symbol
_atom_type_description
_atom_site_fract_x
_atom_site_fract_y
_atom_site_fract_z
_atom_type_partial_charge
Br1   Br    Br    0.571643 0.025595 0.223762 -0.304925
Br2   Br    Br    0.609614 0.302140 0.843740 -0.339953
Br3   Br    Br    0.658054 0.624614 0.199864 -0.310338
Br4   Br    Br    0.485255 0.714200 0.958066 -0.358063
Br5   Br    Br    0.324339 0.314927 0.011144 -0.286397
Br6   Br    Br    0.829930 0.270200 0.255206 -0.351619
Br7   Br    Br    0.711558 0.923861 0.470005 -0.366178
Br8   Br    Br    0.336879 0.116482 0.596400 -0.363869
C1    C     C_R   0.491705 0.253947 0.439785 0.588319
C2    C     C_2   0.540979 0.941245 0.503786 0.208054
C3    C     C_2   0.523377 0.501216 0.080733 0.349192
C4    C     C_R   0.263252 0.509478 0.504167 0.514626
C5    C     C_2   0.535669 0.465032 0.919085 0.356896
C6    C     C_R   0.513164 0.746762 0.560324 0.540594
C7    C     C_R   0.737216 0.508357 0.500853 0.617356
C8    C     C_R   0.150745 0.753723 0.695931 0.140314
C9    C     C_R   0.107370 0.847887 0.813273 0.191472
C10   C     C_R   0.983955 0.839563 0.832072 0.102318
C11   C     C_R   0.901658 0.740305 0.723571 0.118663
C12   C     C_R   0.078454 0.635856 0.607691 -0.033385
C13   C     C_R   0.948216 0.632428 0.612768 0.010045
C14   C     C_R   0.129636 0.524994 0.508920 -0.018482
C15   C     C_R   0.051488 0.422532 0.405967 -0.077419
C16   C     C_R   0.924502 0.421850 0.400631 0.142321
C17   C     C_R   0.871226 0.523512 0.504019 0.044936
C18   C     C_2   0.506583 0.115058 0.403377 0.180160
C19   C     C_2   0.478691 0.057518 0.494991 0.174998
C20   C     C_2   0.512600 0.889257 0.599277 0.098941
Cu1   Cu    Cu3+1 0.521920 0.521810 0.644910 1.109825
Cu2   Cu    Cu3+1 0.478080 0.478190 0.355090 1.167535
H1    H     H_    0.090201 0.339879 0.329149 0.179259
H2    H     H_    0.478186 0.922861 0.810167 0.295823
H3    H     H_    0.590775 0.020120 0.796523 0.274850
H4    H     H_    0.262980 0.753999 0.547419 0.237428
H5    H     H_    0.330571 0.750528 0.715066 0.285912
H6    H     H_    0.196684 0.959580 0.015693 0.253727
H7    H     H_    0.151790 0.043430 0.906212 0.302042
H8    H     H_    0.981403 0.926701 0.050121 0.260442
H9    H     H_    0.847522 0.936952 0.953506 0.270810
H10   H     H_    0.754391 0.847718 0.719472 0.253176
H11   H     H_    0.746925 0.749779 0.817731 0.276166
N1    N     N_2   0.445130 0.445430 0.137370 -0.104029
N2    N     N_2   0.554930 0.554500 0.862630 -0.113497
N3    N     N_3   0.264430 0.789074 0.660987 -0.551062
N4    N     N_3   0.189845 0.957754 0.908663 -0.506112
N5    N     N_3   0.943279 0.940767 0.954906 -0.583090
N6    N     N_3   0.772190 0.755744 0.721842 -0.569969
N7    N     N_3   0.502428 0.974971 0.747256 -0.513030
O1    O     O_R   0.511700 0.332330 0.577400 -0.462969
O2    O     O_R   0.474680 0.295500 0.332650 -0.447547
O3    O     O_R   0.338160 0.518420 0.622400 -0.484093
O4    O     O_R   0.301140 0.481590 0.377650 -0.489863
O5    O     O_R   0.525320 0.704500 0.667350 -0.513607
O6    O     O_R   0.488300 0.667670 0.422600 -0.474691
O7    O     O_R   0.698860 0.518410 0.622350 -0.476624
O8    O     O_R   0.661840 0.481580 0.377600 -0.445388

loop_
_geom_bond_atom_site_label_1
_geom_bond_atom_site_label_2
_ccdc_geom_bond_type
C2    C19   S    
Br7   C2    S    
Br5   N1    S    
C6    C20   S    
Cu1   Cu2   S    
Br4   N2    S    
H10   N6    S    
C3    C5    S    
C8    N3    S    
Br3   C3    S    
C8    C12   A    
Br6   C16   S    
C7    O8    A    
C6    O5    A    
C9    C10   A    
H11   N6    S    
H4    N3    S    
H6    N4    S    
Cu1   O1    S    
Cu1   N2    S    
H3    N7    S    
H5    N3    S    
Cu2   O6    S    
C18   C19   D    
H2    N7    S    
Cu1   O5    S    
H9    N5    S    
C10   N5    S    
C6    O6    A    
C12   C14   A    
C1    C18   S    
Cu2   O2    S    
Br1   C18   S    
C11   N6    S    
H8    N5    S    
C7    C17   S    
C15   C16   A    
H7    N4    S    
C15   H1    S    
C4    C14   S    
C5    N2    D    
C4    O3    A    
C1    O1    A    
C16   C17   A    
C3    N1    D    
C10   C11   A    
Cu1   O3    S    
C2    C20   D    
Br2   C5    S    
Br8   C19   S    
C13   C17   A    
C14   C15   A    
C20   N7    S    
Cu2   O4    S    
Cu1   O7    S    
C4    O4    A    
C12   C13   A    
Cu2   O8    S    
Cu2   N1    S    
C1    O2    A    
C9    N4    S    
C8    C9    A    
C11   C13   A    
C7    O7    A    
