data_mof_unit_66434.cif
_audit_creation_date              2012-12-10T18:17:26-0500
_audit_creation_method            fapswitch 2.2
_symmetry_space_group_name_H-M    P1
_symmetry_Int_Tables_number       1
_space_group_crystal_system       triclinic
_cell_length_a                    26.26415
_cell_length_b                    33.014003
_cell_length_c                    32.998113
_cell_angle_alpha                 89.998324
_cell_angle_beta                  90.001454
_cell_angle_gamma                 89.997771
_cell_volume                      28612.1597555

loop_
_atom_site_label
_atom_site_type_symbol
_atom_type_description
_atom_site_fract_x
_atom_site_fract_y
_atom_site_fract_z
_atom_type_partial_charge
C1    C     C_R   0.392344 0.499453 0.750827 0.778250
C2    C     C_R   0.607655 0.499494 0.249188 0.778233
C3    C     C_R   0.607658 0.499435 0.750855 0.778084
C4    C     C_R   0.392346 0.499489 0.249192 0.778479
C5    C     C_R   0.892345 0.499483 0.250808 0.778289
C6    C     C_R   0.107655 0.499488 0.749185 0.778175
C7    C     C_R   0.107656 0.499458 0.250846 0.778237
C8    C     C_R   0.892345 0.499480 0.749186 0.778464
C9    C     C_R   0.892345 0.999462 0.750825 0.778291
C10   C     C_R   0.107655 0.999500 0.249191 0.778266
C11   C     C_R   0.107657 0.999482 0.750804 0.778086
C12   C     C_R   0.892346 0.999497 0.249199 0.778479
C13   C     C_R   0.392344 0.999439 0.250840 0.778398
C14   C     C_R   0.607655 0.999499 0.749190 0.778277
C15   C     C_R   0.607657 0.999462 0.250818 0.777990
C16   C     C_R   0.392346 0.999496 0.749198 0.778485
C17   C     C_1   0.250002 0.149513 0.750001 -0.149453
C18   C     C_1   0.750002 0.149513 0.250001 -0.149589
C19   C     C_1   0.749999 0.149513 0.749998 -0.149272
C20   C     C_1   0.249999 0.149513 0.249998 -0.149452
C21   C     C_1   0.750002 0.649513 0.750001 -0.149517
C22   C     C_1   0.250002 0.649513 0.250001 -0.149243
C23   C     C_1   0.249999 0.649513 0.749998 -0.149569
C24   C     C_1   0.750000 0.649513 0.249998 -0.149329
C25   C     C_3   0.029458 0.458392 0.764042 -0.402480
C26   C     C_3   0.970555 0.458334 0.235891 -0.402249
C27   C     C_3   0.970561 0.458363 0.763978 -0.402492
C28   C     C_3   0.029452 0.458440 0.235643 -0.401749
C29   C     C_3   0.529459 0.458330 0.263777 -0.402675
C30   C     C_3   0.470560 0.458656 0.734672 -0.400953
C31   C     C_3   0.470559 0.458293 0.263690 -0.402814
C32   C     C_3   0.529450 0.458744 0.734496 -0.400847
C33   C     C_3   0.529459 0.958279 0.763563 -0.402801
C34   C     C_3   0.470566 0.958893 0.234204 -0.400899
C35   C     C_3   0.470558 0.958236 0.763457 -0.403045
C36   C     C_3   0.529454 0.958868 0.234278 -0.401323
C37   C     C_3   0.029459 0.958269 0.263522 -0.402810
C38   C     C_3   0.970562 0.958699 0.734995 -0.401892
C39   C     C_3   0.970558 0.958225 0.263412 -0.403070
C40   C     C_3   0.029455 0.958672 0.735072 -0.402180
C41   C     C_3   0.029431 0.533506 0.775949 -0.365167
C42   C     C_3   0.970574 0.533525 0.224034 -0.366928
C43   C     C_3   0.970559 0.533438 0.776009 -0.366764
C44   C     C_3   0.029444 0.533749 0.224341 -0.364461
C45   C     C_3   0.529433 0.533334 0.276159 -0.365264
C46   C     C_3   0.470573 0.534330 0.725036 -0.366118
C47   C     C_3   0.470559 0.533244 0.276246 -0.366959
C48   C     C_3   0.529438 0.534481 0.725265 -0.364013
C49   C     C_3   0.529435 0.033195 0.776329 -0.365336
C50   C     C_3   0.470554 0.034611 0.225510 -0.365322
C51   C     C_3   0.470560 0.033086 0.776439 -0.367116
C52   C     C_3   0.529419 0.034554 0.225399 -0.365035
C53   C     C_3   0.029435 0.033168 0.276361 -0.365359
C54   C     C_3   0.970556 0.034084 0.724857 -0.365656
C55   C     C_3   0.970560 0.033056 0.276476 -0.367148
C56   C     C_3   0.029424 0.034023 0.724747 -0.365897
C57   C     C_3   0.029866 0.505060 0.703192 -0.256017
C58   C     C_3   0.970082 0.504999 0.296864 -0.255257
C59   C     C_3   0.970114 0.505126 0.703216 -0.255142
C60   C     C_3   0.029836 0.504655 0.296942 -0.257208
C61   C     C_3   0.529860 0.505366 0.203256 -0.255798
C62   C     C_3   0.470085 0.503583 0.797136 -0.256875
C63   C     C_3   0.470112 0.505462 0.203289 -0.254735
C64   C     C_3   0.529857 0.503330 0.797180 -0.258218
C65   C     C_3   0.529855 0.005613 0.703307 -0.255633
C66   C     C_3   0.470130 0.002995 0.297133 -0.257271
C67   C     C_3   0.470111 0.005734 0.703348 -0.254425
C68   C     C_3   0.529905 0.003129 0.297110 -0.256853
C69   C     C_3   0.029854 0.005661 0.203317 -0.255603
C70   C     C_3   0.970138 0.003913 0.796939 -0.255897
C71   C     C_3   0.970110 0.005787 0.203359 -0.254368
C72   C     C_3   0.029900 0.004051 0.796911 -0.255374
C73   C     C_3   0.050477 0.499533 0.747850 0.085656
C74   C     C_3   0.949525 0.499501 0.252140 0.085431
C75   C     C_3   0.949527 0.499517 0.747858 0.084618
C76   C     C_3   0.050476 0.499494 0.252192 0.086178
C77   C     C_3   0.550477 0.499554 0.247857 0.085443
C78   C     C_3   0.449526 0.499410 0.752178 0.086480
C79   C     C_3   0.449527 0.499540 0.247870 0.084379
C80   C     C_3   0.550477 0.499405 0.752215 0.087057
C81   C     C_3   0.550476 0.999572 0.747863 0.085273
C82   C     C_3   0.449528 0.999384 0.252189 0.085828
C83   C     C_3   0.449526 0.999559 0.747879 0.084198
C84   C     C_3   0.550479 0.999408 0.252167 0.086392
C85   C     C_3   0.050476 0.999575 0.247864 0.085244
C86   C     C_3   0.949527 0.999450 0.752159 0.084947
C87   C     C_3   0.949526 0.999562 0.247881 0.084161
C88   C     C_3   0.050480 0.999469 0.752136 0.085224
C89   C     C_1   0.249969 0.500023 0.600503 -0.152965
C90   C     C_1   0.750030 0.500023 0.399497 -0.152745
C91   C     C_1   0.750030 0.500022 0.600503 -0.152840
C92   C     C_1   0.249971 0.500021 0.399497 -0.152902
C93   C     C_1   0.749969 0.500023 0.100502 -0.152942
C94   C     C_1   0.250031 0.500022 0.899497 -0.152686
C95   C     C_1   0.250030 0.500022 0.100503 -0.152813
C96   C     C_1   0.749970 0.500021 0.899497 -0.152824
C97   C     C_1   0.749969 0.000023 0.600502 -0.152966
C98   C     C_1   0.250033 0.000021 0.399497 -0.152763
C99   C     C_1   0.250030 0.000022 0.600503 -0.152837
C100  C     C_1   0.749970 0.000021 0.399497 -0.152777
C101  C     C_1   0.249969 0.000023 0.100502 -0.152999
C102  C     C_1   0.750031 0.000022 0.899497 -0.152894
C103  C     C_1   0.750030 0.000022 0.100503 -0.152873
C104  C     C_1   0.249971 0.000021 0.899497 -0.152836
C105  C     C_1   0.249948 0.500023 0.563038 0.002529
C106  C     C_1   0.750050 0.500023 0.436961 0.002638
C107  C     C_1   0.750051 0.500023 0.563038 0.002555
C108  C     C_1   0.249950 0.500022 0.436962 0.002571
C109  C     C_1   0.749948 0.500023 0.063038 0.002580
C110  C     C_1   0.250053 0.500022 0.936961 0.002654
C111  C     C_1   0.250051 0.500023 0.063038 0.002610
C112  C     C_1   0.749948 0.500021 0.936962 0.002599
C113  C     C_1   0.749948 0.000023 0.563038 0.002565
C114  C     C_1   0.250054 0.000022 0.436961 0.002610
C115  C     C_1   0.250052 0.000022 0.563038 0.002595
C116  C     C_1   0.749948 0.000021 0.436961 0.002631
C117  C     C_1   0.249949 0.000023 0.063038 0.002520
C118  C     C_1   0.750052 0.000022 0.936961 0.002581
C119  C     C_1   0.750051 0.000023 0.063038 0.002552
C120  C     C_1   0.249950 0.000022 0.936962 0.002614
C121  C     C_1   0.249935 0.500024 0.518732 0.014658
C122  C     C_1   0.750064 0.500024 0.481268 0.014686
C123  C     C_1   0.750064 0.500024 0.518732 0.014663
C124  C     C_1   0.249936 0.500023 0.481268 0.014677
C125  C     C_1   0.749934 0.500024 0.018732 0.014705
C126  C     C_1   0.250066 0.500024 0.981268 0.014733
C127  C     C_1   0.250066 0.500024 0.018732 0.014711
C128  C     C_1   0.749934 0.500023 0.981268 0.014724
C129  C     C_1   0.749934 0.000024 0.518732 0.014698
C130  C     C_1   0.250068 0.000023 0.481268 0.014732
C131  C     C_1   0.250067 0.000023 0.518732 0.014703
C132  C     C_1   0.749934 0.000023 0.481268 0.014727
C133  C     C_1   0.249935 0.000024 0.018732 0.014659
C134  C     C_1   0.750066 0.000023 0.981268 0.014692
C135  C     C_1   0.750065 0.000024 0.018732 0.014661
C136  C     C_1   0.249936 0.000023 0.981268 0.014692
C137  C     C_R   0.250009 0.500028 0.854433 0.806126
C138  C     C_R   0.749991 0.500029 0.145567 0.805113
C139  C     C_R   0.749992 0.500028 0.854433 0.805757
C140  C     C_R   0.250008 0.500029 0.145567 0.805514
C141  C     C_R   0.750008 0.500029 0.354433 0.805661
C142  C     C_R   0.249991 0.500029 0.645567 0.805139
C143  C     C_R   0.249992 0.500028 0.354433 0.805335
C144  C     C_R   0.750008 0.500029 0.645567 0.805561
C145  C     C_R   0.750009 0.000028 0.854433 0.805757
C146  C     C_R   0.249991 0.000029 0.145567 0.804931
C147  C     C_R   0.249992 0.000028 0.854433 0.805595
C148  C     C_R   0.750008 0.000029 0.145567 0.805297
C149  C     C_R   0.250009 0.000028 0.354433 0.806295
C150  C     C_R   0.749991 0.000029 0.645567 0.805014
C151  C     C_R   0.749992 0.000028 0.354433 0.805929
C152  C     C_R   0.250008 0.000029 0.645567 0.805366
C153  C     C_R   0.250001 0.604440 0.749998 0.799000
C154  C     C_R   0.750001 0.604440 0.249998 0.799270
C155  C     C_R   0.750002 0.604440 0.750002 0.798950
C156  C     C_R   0.250002 0.604440 0.250002 0.799226
C157  C     C_R   0.750001 0.104440 0.749998 0.799221
C158  C     C_R   0.250001 0.104440 0.249998 0.799028
C159  C     C_R   0.250002 0.104440 0.750002 0.799136
C160  C     C_R   0.750002 0.104440 0.250002 0.798990
C161  C     C_R   0.249998 0.395604 0.749998 0.804642
C162  C     C_R   0.749998 0.395604 0.249998 0.804494
C163  C     C_R   0.749999 0.395604 0.750002 0.804666
C164  C     C_R   0.249999 0.395604 0.250002 0.804517
C165  C     C_R   0.749998 0.895604 0.749998 0.804525
C166  C     C_R   0.249998 0.895604 0.249999 0.804648
C167  C     C_R   0.249999 0.895604 0.750002 0.804579
C168  C     C_R   0.749999 0.895604 0.250002 0.804666
C169  C     C_1   0.249999 0.350530 0.749999 -0.163824
C170  C     C_1   0.749999 0.350530 0.249999 -0.163878
C171  C     C_1   0.750000 0.350530 0.750002 -0.163805
C172  C     C_1   0.250000 0.350530 0.250002 -0.163857
C173  C     C_1   0.749999 0.850530 0.749999 -0.163821
C174  C     C_1   0.249999 0.850530 0.249999 -0.163771
C175  C     C_1   0.250000 0.850530 0.750002 -0.163854
C176  C     C_1   0.750000 0.850530 0.250002 -0.163806
C177  C     C_1   0.250000 0.313065 0.749999 -0.001945
C178  C     C_1   0.750000 0.313065 0.249999 -0.002017
C179  C     C_1   0.750000 0.313065 0.750002 -0.001927
C180  C     C_1   0.250000 0.313065 0.250002 -0.002000
C181  C     C_1   0.750000 0.813065 0.749999 -0.001981
C182  C     C_1   0.250000 0.813065 0.249999 -0.001898
C183  C     C_1   0.250000 0.813065 0.750002 -0.001980
C184  C     C_1   0.750000 0.813065 0.250002 -0.001909
C185  C     C_1   0.250000 0.268753 0.750000 0.012842
C186  C     C_1   0.750000 0.268753 0.250000 0.012776
C187  C     C_1   0.749999 0.268753 0.750000 0.012872
C188  C     C_1   0.249999 0.268753 0.250000 0.012800
C189  C     C_1   0.750000 0.768753 0.750000 0.012809
C190  C     C_1   0.250000 0.768753 0.250000 0.012906
C191  C     C_1   0.249999 0.768753 0.750000 0.012802
C192  C     C_1   0.750000 0.768753 0.250000 0.012890
C193  C     C_1   0.250001 0.231289 0.750000 0.014586
C194  C     C_1   0.750002 0.231289 0.250000 0.014513
C195  C     C_1   0.749999 0.231289 0.749999 0.014626
C196  C     C_1   0.249999 0.231289 0.249999 0.014543
C197  C     C_1   0.750001 0.731289 0.750000 0.014542
C198  C     C_1   0.250001 0.731289 0.250000 0.014670
C199  C     C_1   0.249999 0.731289 0.750000 0.014531
C200  C     C_1   0.750000 0.731289 0.249999 0.014651
C201  C     C_1   0.250001 0.186977 0.750001 0.004756
C202  C     C_1   0.750002 0.186977 0.250001 0.004655
C203  C     C_1   0.749999 0.186977 0.749998 0.004847
C204  C     C_1   0.249998 0.186977 0.249998 0.004719
C205  C     C_1   0.750001 0.686977 0.750001 0.004693
C206  C     C_1   0.250001 0.686977 0.250001 0.004890
C207  C     C_1   0.249999 0.686977 0.749998 0.004675
C208  C     C_1   0.749999 0.686977 0.249998 0.004857
H1    H     H_    0.043193 0.452862 0.795572 0.196723
H2    H     H_    0.956595 0.452692 0.204411 0.196458
H3    H     H_    0.956735 0.452724 0.795454 0.196746
H4    H     H_    0.043049 0.453240 0.203983 0.196507
H5    H     H_    0.543177 0.452611 0.295265 0.196858
H6    H     H_    0.456647 0.453961 0.702955 0.195774
H7    H     H_    0.456718 0.452429 0.295105 0.196887
H8    H     H_    0.543099 0.454378 0.702664 0.195841
H9    H     H_    0.543163 0.952408 0.795016 0.196973
H10   H     H_    0.456835 0.954700 0.202401 0.195885
H11   H     H_    0.456704 0.952188 0.794821 0.197000
H12   H     H_    0.543291 0.954538 0.202523 0.195880
H13   H     H_    0.043161 0.952369 0.294968 0.197000
H14   H     H_    0.956835 0.953910 0.703335 0.196466
H15   H     H_    0.956701 0.952142 0.294767 0.197027
H16   H     H_    0.043294 0.953743 0.703467 0.196452
H17   H     H_    0.043690 0.432900 0.744937 0.169333
H18   H     H_    0.956570 0.432830 0.255152 0.169458
H19   H     H_    0.956435 0.432924 0.744767 0.169418
H20   H     H_    0.043821 0.432746 0.254472 0.169356
H21   H     H_    0.543708 0.432967 0.244530 0.169198
H22   H     H_    0.456530 0.432536 0.753182 0.169935
H23   H     H_    0.456449 0.433004 0.244302 0.169300
H24   H     H_    0.543761 0.432501 0.752683 0.169906
H25   H     H_    0.543724 0.933021 0.744201 0.169104
H26   H     H_    0.456349 0.932556 0.252250 0.170288
H27   H     H_    0.456460 0.933068 0.743923 0.169219
H28   H     H_    0.543572 0.932587 0.252458 0.170278
H29   H     H_    0.043727 0.933032 0.244138 0.169104
H30   H     H_    0.956336 0.932759 0.753501 0.169967
H31   H     H_    0.956463 0.933080 0.243850 0.169222
H32   H     H_    0.043575 0.932793 0.753716 0.169982
H33   H     H_    0.043292 0.528486 0.807538 0.154885
H34   H     H_    0.957066 0.528304 0.192348 0.155560
H35   H     H_    0.956828 0.528281 0.807599 0.155455
H36   H     H_    0.043522 0.529115 0.192719 0.154243
H37   H     H_    0.543322 0.528136 0.307698 0.155062
H38   H     H_    0.456986 0.530077 0.693154 0.154426
H39   H     H_    0.456855 0.527853 0.307788 0.155732
H40   H     H_    0.543432 0.530647 0.693453 0.153446
H41   H     H_    0.543347 0.027853 0.807827 0.155207
H42   H     H_    0.456667 0.030934 0.193679 0.153743
H43   H     H_    0.456878 0.027504 0.807941 0.155956
H44   H     H_    0.543111 0.030682 0.193536 0.153911
H45   H     H_    0.043352 0.027798 0.307852 0.155230
H46   H     H_    0.956667 0.029806 0.693165 0.154425
H47   H     H_    0.956883 0.027437 0.307971 0.155998
H48   H     H_    0.043118 0.029550 0.693027 0.154698
H49   H     H_    0.041827 0.477416 0.686072 0.124859
H50   H     H_    0.957763 0.477484 0.314093 0.125405
H51   H     H_    0.958035 0.477586 0.686005 0.125632
H52   H     H_    0.041564 0.476742 0.313796 0.125340
H53   H     H_    0.541795 0.477830 0.185975 0.124904
H54   H     H_    0.457840 0.475482 0.813563 0.125540
H55   H     H_    0.458007 0.478066 0.185888 0.125598
H56   H     H_    0.541667 0.474948 0.813316 0.125316
H57   H     H_    0.541767 0.978165 0.685896 0.124943
H58   H     H_    0.458215 0.974584 0.313102 0.125691
H59   H     H_    0.457984 0.978458 0.685792 0.125575
H60   H     H_    0.542039 0.974839 0.313193 0.124771
H61   H     H_    0.041762 0.978230 0.185881 0.124945
H62   H     H_    0.958224 0.975860 0.813408 0.125200
H63   H     H_    0.957980 0.978533 0.185774 0.125565
H64   H     H_    0.042043 0.976133 0.813504 0.124672
H65   H     H_    0.043771 0.563850 0.766799 0.216921
H66   H     H_    0.955872 0.563861 0.232961 0.215234
H67   H     H_    0.956060 0.563764 0.766993 0.215933
H68   H     H_    0.043579 0.564062 0.233910 0.217651
H69   H     H_    0.543747 0.563725 0.267182 0.216910
H70   H     H_    0.455944 0.564464 0.734925 0.215854
H71   H     H_    0.456037 0.563614 0.267466 0.215769
H72   H     H_    0.543654 0.564575 0.735610 0.217779
H73   H     H_    0.543727 0.063623 0.767492 0.216904
H74   H     H_    0.456211 0.064594 0.235981 0.217212
H75   H     H_    0.456017 0.063492 0.767851 0.215632
H76   H     H_    0.543918 0.064567 0.235639 0.216959
H77   H     H_    0.043723 0.063603 0.267551 0.216901
H78   H     H_    0.956220 0.064204 0.734726 0.217189
H79   H     H_    0.956013 0.063469 0.267925 0.215603
H80   H     H_    0.043924 0.064165 0.734392 0.216747
O1    O     O_3   0.250000 0.500030 0.750000 -0.445152
O2    O     O_3   0.750000 0.500030 0.250000 -0.445154
O3    O     O_3   0.750000 0.500030 0.750000 -0.445211
O4    O     O_3   0.250000 0.500030 0.250000 -0.445224
O5    O     O_3   0.750000 0.000030 0.750000 -0.445230
O6    O     O_3   0.250000 0.000030 0.250000 -0.445229
O7    O     O_3   0.250000 0.000030 0.750000 -0.445159
O8    O     O_3   0.750000 0.000030 0.250000 -0.445156
O9    O     O_R   0.366840 0.478000 0.728010 -0.643925
O10   O     O_R   0.633160 0.478000 0.271990 -0.643907
O11   O     O_R   0.633160 0.478000 0.728010 -0.644107
O12   O     O_R   0.366840 0.478000 0.271990 -0.643795
O13   O     O_R   0.866840 0.478000 0.228010 -0.643777
O14   O     O_R   0.133160 0.478000 0.771990 -0.643954
O15   O     O_R   0.133160 0.478000 0.228010 -0.643988
O16   O     O_R   0.866840 0.478000 0.771990 -0.643848
O17   O     O_R   0.866840 0.978000 0.728010 -0.643974
O18   O     O_R   0.133160 0.978000 0.271990 -0.643910
O19   O     O_R   0.133160 0.978000 0.728010 -0.643967
O20   O     O_R   0.866840 0.978000 0.271990 -0.643782
O21   O     O_R   0.366840 0.978000 0.228010 -0.644052
O22   O     O_R   0.633160 0.978000 0.771990 -0.643891
O23   O     O_R   0.633160 0.978000 0.228010 -0.644057
O24   O     O_R   0.366840 0.978000 0.771990 -0.643775
O25   O     O_R   0.280630 0.522060 0.834040 -0.612325
O26   O     O_R   0.719370 0.522060 0.165960 -0.612848
O27   O     O_R   0.719370 0.522060 0.834040 -0.613028
O28   O     O_R   0.280630 0.522060 0.165960 -0.612192
O29   O     O_R   0.780630 0.522060 0.334040 -0.612167
O30   O     O_R   0.219370 0.522060 0.665960 -0.612858
O31   O     O_R   0.219370 0.522060 0.334040 -0.613007
O32   O     O_R   0.780630 0.522060 0.665960 -0.612227
O33   O     O_R   0.780630 0.022060 0.834040 -0.612843
O34   O     O_R   0.219370 0.022060 0.165960 -0.612866
O35   O     O_R   0.219370 0.022060 0.834040 -0.612775
O36   O     O_R   0.780630 0.022060 0.165960 -0.612180
O37   O     O_R   0.280630 0.022060 0.334040 -0.612608
O38   O     O_R   0.719370 0.022060 0.665960 -0.612860
O39   O     O_R   0.719370 0.022060 0.334040 -0.612807
O40   O     O_R   0.280630 0.022060 0.665960 -0.612180
O41   O     O_R   0.280630 0.584040 0.772060 -0.618715
O42   O     O_R   0.719370 0.584040 0.227940 -0.617733
O43   O     O_R   0.719370 0.584040 0.772060 -0.617931
O44   O     O_R   0.280630 0.584040 0.227940 -0.618456
O45   O     O_R   0.780630 0.584040 0.272060 -0.618596
O46   O     O_R   0.219370 0.584040 0.727940 -0.617745
O47   O     O_R   0.219370 0.584040 0.272060 -0.617689
O48   O     O_R   0.780630 0.584040 0.727940 -0.618419
O49   O     O_R   0.780630 0.084040 0.772060 -0.618234
O50   O     O_R   0.219370 0.084040 0.227940 -0.617667
O51   O     O_R   0.219370 0.084040 0.772060 -0.618128
O52   O     O_R   0.780630 0.084040 0.227940 -0.618298
O53   O     O_R   0.280630 0.084040 0.272060 -0.618566
O54   O     O_R   0.719370 0.084040 0.727940 -0.617739
O55   O     O_R   0.719370 0.084040 0.272060 -0.618272
O56   O     O_R   0.280630 0.084040 0.727940 -0.618340
O57   O     O_R   0.280630 0.416020 0.728000 -0.625074
O58   O     O_R   0.719370 0.416020 0.272000 -0.625106
O59   O     O_R   0.719370 0.416020 0.728000 -0.625089
O60   O     O_R   0.280630 0.416020 0.272000 -0.625097
O61   O     O_R   0.780630 0.416020 0.228000 -0.625078
O62   O     O_R   0.219370 0.416020 0.772000 -0.625066
O63   O     O_R   0.219370 0.416020 0.228000 -0.625100
O64   O     O_R   0.780630 0.416020 0.772000 -0.625061
O65   O     O_R   0.780630 0.916020 0.728000 -0.625093
O66   O     O_R   0.219370 0.916020 0.272000 -0.625048
O67   O     O_R   0.219370 0.916020 0.728000 -0.625062
O68   O     O_R   0.780630 0.916020 0.272000 -0.625052
O69   O     O_R   0.280630 0.916020 0.228000 -0.625088
O70   O     O_R   0.719370 0.916020 0.772000 -0.625088
O71   O     O_R   0.719370 0.916020 0.228000 -0.625064
O72   O     O_R   0.280630 0.916020 0.772000 -0.625085
O73   O     O_R   0.219370 0.478010 0.834030 -0.629719
O74   O     O_R   0.780630 0.478010 0.165970 -0.629659
O75   O     O_R   0.780630 0.478010 0.834030 -0.629632
O76   O     O_R   0.219370 0.478010 0.165970 -0.629725
O77   O     O_R   0.719370 0.478010 0.334030 -0.629731
O78   O     O_R   0.280630 0.478010 0.665970 -0.629702
O79   O     O_R   0.280630 0.478010 0.334030 -0.629631
O80   O     O_R   0.719370 0.478010 0.665970 -0.629773
O81   O     O_R   0.719370 0.978010 0.834030 -0.629594
O82   O     O_R   0.280630 0.978010 0.165970 -0.629692
O83   O     O_R   0.280630 0.978010 0.834030 -0.629655
O84   O     O_R   0.719370 0.978010 0.165970 -0.629799
O85   O     O_R   0.219370 0.978010 0.334030 -0.629643
O86   O     O_R   0.780630 0.978010 0.665970 -0.629644
O87   O     O_R   0.780630 0.978010 0.334030 -0.629647
O88   O     O_R   0.219370 0.978010 0.665970 -0.629766
O89   O     O_R   0.366840 0.522050 0.772060 -0.622918
O90   O     O_R   0.633160 0.522050 0.227940 -0.622676
O91   O     O_R   0.633160 0.522050 0.772060 -0.622253
O92   O     O_R   0.366840 0.522050 0.227940 -0.622896
O93   O     O_R   0.866840 0.522050 0.272060 -0.623179
O94   O     O_R   0.133160 0.522050 0.727940 -0.622645
O95   O     O_R   0.133160 0.522050 0.272060 -0.622380
O96   O     O_R   0.866840 0.522050 0.727940 -0.622815
O97   O     O_R   0.866840 0.022050 0.772060 -0.622389
O98   O     O_R   0.133160 0.022050 0.227940 -0.622697
O99   O     O_R   0.133160 0.022050 0.772060 -0.622672
O100  O     O_R   0.866840 0.022050 0.227940 -0.622962
O101  O     O_R   0.366840 0.022050 0.272060 -0.622290
O102  O     O_R   0.633160 0.022050 0.727940 -0.622695
O103  O     O_R   0.633160 0.022050 0.272060 -0.622545
O104  O     O_R   0.366840 0.022050 0.727940 -0.622952
Zn1   Zn    Zn3+2 0.206230 0.468570 0.781490 0.981050
Zn2   Zn    Zn3+2 0.793770 0.468570 0.218510 0.980849
Zn3   Zn    Zn3+2 0.793770 0.468570 0.781490 0.981091
Zn4   Zn    Zn3+2 0.206230 0.468570 0.218510 0.980850
Zn5   Zn    Zn3+2 0.706230 0.468570 0.281490 0.980888
Zn6   Zn    Zn3+2 0.293770 0.468570 0.718510 0.980867
Zn7   Zn    Zn3+2 0.293770 0.468570 0.281490 0.980924
Zn8   Zn    Zn3+2 0.706230 0.468570 0.718510 0.980858
Zn9   Zn    Zn3+2 0.706230 0.968570 0.781490 0.980961
Zn10  Zn    Zn3+2 0.293770 0.968570 0.218510 0.980832
Zn11  Zn    Zn3+2 0.293770 0.968570 0.781490 0.981035
Zn12  Zn    Zn3+2 0.706230 0.968570 0.218510 0.980823
Zn13  Zn    Zn3+2 0.206230 0.968570 0.281490 0.981143
Zn14  Zn    Zn3+2 0.793770 0.968570 0.718510 0.980782
Zn15  Zn    Zn3+2 0.793770 0.968570 0.281490 0.981167
Zn16  Zn    Zn3+2 0.206230 0.968570 0.718510 0.980836
Zn17  Zn    Zn3+2 0.293770 0.531500 0.781500 1.014401
Zn18  Zn    Zn3+2 0.706230 0.531500 0.218500 1.014784
Zn19  Zn    Zn3+2 0.706230 0.531500 0.781500 1.014887
Zn20  Zn    Zn3+2 0.293770 0.531500 0.218500 1.014530
Zn21  Zn    Zn3+2 0.793770 0.531500 0.281500 1.014368
Zn22  Zn    Zn3+2 0.206230 0.531500 0.718500 1.014687
Zn23  Zn    Zn3+2 0.206230 0.531500 0.281500 1.014961
Zn24  Zn    Zn3+2 0.793770 0.531500 0.718500 1.014474
Zn25  Zn    Zn3+2 0.793770 0.031500 0.781500 1.014733
Zn26  Zn    Zn3+2 0.206230 0.031500 0.218500 1.014689
Zn27  Zn    Zn3+2 0.206230 0.031500 0.781500 1.014640
Zn28  Zn    Zn3+2 0.793770 0.031500 0.218500 1.014407
Zn29  Zn    Zn3+2 0.293770 0.031500 0.281500 1.014758
Zn30  Zn    Zn3+2 0.706230 0.031500 0.718500 1.014765
Zn31  Zn    Zn3+2 0.706230 0.031500 0.281500 1.014649
Zn32  Zn    Zn3+2 0.293770 0.031500 0.718500 1.014466
C209  C     C_2   0.053060 0.540425 0.679499 0.980722
O105  O     O_2   0.053351 0.574783 0.693722 -0.589643
O106  O     O_R   0.073054 0.533249 0.640631 -0.794281
H81   H     H_    0.085716 0.559039 0.627057 0.350335
C210  C     C_2   0.947165 0.540707 0.320267 0.979935
O107  O     O_2   0.948435 0.575199 0.306228 -0.591065
O108  O     O_R   0.925417 0.533632 0.358607 -0.792405
H82   H     H_    0.912778 0.559564 0.371988 0.349983
C211  C     C_2   0.946973 0.540653 0.679796 0.979634
O109  O     O_2   0.947989 0.575120 0.693778 -0.591064
O110  O     O_R   0.925271 0.533424 0.641485 -0.792968
H83   H     H_    0.912478 0.559246 0.628070 0.350235
C212  C     C_2   0.053230 0.539675 0.321080 0.978219
O111  O     O_2   0.053855 0.574238 0.307176 -0.588530
O112  O     O_R   0.073001 0.531933 0.360030 -0.793990
H84   H     H_    0.085818 0.557531 0.373925 0.350276
C213  C     C_2   0.553071 0.540845 0.179775 0.981197
O113  O     O_2   0.553423 0.575096 0.194200 -0.590044
O114  O     O_R   0.573006 0.533906 0.140871 -0.794246
H85   H     H_    0.585677 0.559761 0.127449 0.350359
C214  C     C_2   0.447069 0.538596 0.821659 0.977282
O115  O     O_2   0.448312 0.573593 0.808654 -0.589039
O116  O     O_R   0.425223 0.530275 0.859834 -0.792500
H86   H     H_    0.412487 0.555821 0.874002 0.349836
C215  C     C_2   0.447001 0.541156 0.180140 0.980367
O117  O     O_2   0.448014 0.575493 0.194374 -0.591588
O118  O     O_R   0.425345 0.534238 0.141790 -0.792931
H87   H     H_    0.412578 0.560153 0.128568 0.350263
C216  C     C_2   0.553211 0.537803 0.822242 0.976003
O119  O     O_2   0.553604 0.572815 0.809249 -0.586926
O120  O     O_R   0.573230 0.529012 0.860998 -0.793925
H88   H     H_    0.586029 0.554299 0.875561 0.350133
C217  C     C_2   0.553081 0.041185 0.679998 0.981561
O121  O     O_2   0.553483 0.075349 0.694587 -0.590359
O122  O     O_R   0.572966 0.034437 0.641064 -0.794229
H89   H     H_    0.585644 0.060345 0.627765 0.350373
C218  C     C_2   0.446807 0.037382 0.322251 0.976110
O123  O     O_2   0.447445 0.072544 0.309754 -0.588197
O124  O     O_R   0.425376 0.028288 0.360404 -0.793546
H90   H     H_    0.412416 0.053483 0.375010 0.350127
C219  C     C_2   0.447025 0.041565 0.680421 0.980939
O125  O     O_2   0.448037 0.075797 0.694859 -0.592002
O126  O     O_R   0.425404 0.034902 0.642039 -0.792904
H91   H     H_    0.412658 0.060892 0.628974 0.350272
C220  C     C_2   0.552986 0.037727 0.322102 0.978270
O127  O     O_2   0.552775 0.072714 0.309244 -0.588107
O128  O     O_R   0.573439 0.029085 0.360626 -0.794294
H92   H     H_    0.586012 0.054439 0.375148 0.350249
C221  C     C_2   0.053083 0.041250 0.180040 0.981632
O129  O     O_2   0.053495 0.075398 0.194661 -0.590418
O130  O     O_R   0.072959 0.034539 0.141101 -0.794235
H93   H     H_    0.085638 0.060457 0.127826 0.350380
C222  C     C_2   0.946868 0.038702 0.821403 0.979683
O131  O     O_2   0.946951 0.073443 0.808128 -0.590126
O132  O     O_R   0.926352 0.030535 0.859871 -0.794139
H94   H     H_    0.913463 0.055971 0.873991 0.350356
C223  C     C_2   0.947029 0.041644 0.180475 0.981046
O133  O     O_2   0.948041 0.075855 0.194952 -0.592081
O134  O     O_R   0.925415 0.035030 0.142086 -0.792908
H95   H     H_    0.912674 0.061034 0.129052 0.350278
C224  C     C_2   0.052942 0.039072 0.821194 0.980605
O135  O     O_2   0.052817 0.073703 0.807672 -0.590411
O136  O     O_R   0.073167 0.031266 0.859839 -0.794154
H96   H     H_    0.085643 0.056868 0.873862 0.350443

loop_
_geom_bond_atom_site_label_1
_geom_bond_atom_site_label_2
_ccdc_geom_bond_type
O106  H81   S    
C10   O98   A    
C10   C85   S    
C126  C127  T    
C198  C206  S    
C209  O105  D    
C145  O33   A    
O54   Zn30  S    
C39   C87   S    
O122  H89   S    
C117  C133  S    
C28   H20   S    
C96   C139  S    
C8    O16   A    
C212  O111  D    
C50   C82   S    
C170  C178  T    
C154  O42   A    
O59   Zn8   S    
C137  O25   A    
O70   Zn9   S    
O93   Zn21  S    
C57   C59   S    
C58   C210  S    
C195  C203  S    
C58   C60   S    
C10   O18   A    
C193  C201  S    
C217  O121  D    
C5    C74   S    
C61   C63   S    
O60   Zn7   S    
C143  O31   A    
O3    Zn24  S    
C62   C64   S    
O61   Zn2   S    
C144  O32   A    
O4    Zn23  S    
C215  O118  S    
C31   H23   S    
C50   C52   S    
C97   C150  S    
C107  C123  S    
C196  C204  S    
C166  O66   A    
C53   C55   S    
C65   H57   S    
C200  C208  S    
C20   C158  S    
C163  O64   A    
O87   Zn15  S    
C41   C43   S    
C104  C147  S    
C42   C44   S    
C108  C124  S    
C27   C75   S    
C47   H39   S    
C138  O26   A    
C57   C73   S    
C47   H71   S    
C1    O89   A    
C45   C47   S    
C43   C75   S    
C46   C48   S    
C166  C174  S    
O124  H90   S    
C91   C107  T    
O82   Zn10  S    
O2    Zn18  S    
C5    O93   A    
O76   Zn4   S    
C141  O77   A    
O104  Zn32  S    
C7    O95   A    
C220  O127  D    
C13   C82   S    
O44   Zn20  S    
O8    Zn15  S    
C57   C209  S    
O28   Zn20  S    
O101  Zn29  S    
C66   C82   S    
C29   H5    S    
O99   Zn27  S    
C64   H56   S    
C17   C201  T    
C3    O11   A    
O5    Zn30  S    
C44   H68   S    
C220  O128  S    
C45   H69   S    
C23   C153  S    
C152  O88   A    
C28   H4    S    
C51   C83   S    
C41   H65   S    
O4    Zn20  S    
C6    C73   S    
C175  C183  T    
C155  O48   A    
C189  C197  T    
C176  C184  T    
C14   O102  A    
O16   Zn3   S    
C23   C207  T    
C149  O37   A    
C35   H11   S    
C15   C84   S    
C63   C79   S    
C33   H9    S    
C40   C88   S    
C130  C131  T    
C61   H53   S    
C222  O132  S    
C64   C216  S    
C158  O53   A    
C27   H19   S    
C25   H17   S    
C12   O20   A    
C55   H47   S    
C62   C214  S    
C13   O21   A    
C192  C200  T    
C214  O115  D    
C138  O74   A    
C90   C141  S    
C70   H62   S    
C37   H13   S    
C42   H66   S    
O6    Zn26  S    
C43   H67   S    
C6    O94   A    
C48   H40   S    
O7    Zn11  S    
C150  O86   A    
C94   C137  S    
C53   C85   S    
C182  C190  S    
C14   C81   S    
O5    Zn9   S    
C217  O122  S    
C5    O13   A    
C7    O15   A    
C168  O68   A    
C32   H24   S    
C67   C83   S    
C21   C205  T    
C174  C182  T    
O64   Zn3   S    
C39   H31   S    
O23   Zn12  S    
C218  O123  D    
C164  O63   A    
O63   Zn4   S    
C58   H50   S    
O4    Zn7   S    
O38   Zn30  S    
C24   C208  T    
C56   C88   S    
C31   H7    S    
C52   H76   S    
C22   C206  T    
O86   Zn14  S    
C57   H49   S    
O78   Zn6   S    
C92   C108  T    
O55   Zn31  S    
O108  H82   S    
C61   C77   S    
O56   Zn32  S    
C11   O99   A    
O65   Zn14  S    
C9    O97   A    
C6    O14   A    
C118  C134  S    
C161  C169  S    
C161  O62   A    
C145  O81   A    
C167  O72   A    
C139  O75   A    
C54   H46   S    
O72   Zn11  S    
C171  C179  T    
C66   H58   S    
C169  C177  T    
O71   Zn12  S    
C166  O69   A    
O94   Zn22  S    
O68   Zn15  S    
C151  O87   A    
O69   Zn10  S    
O88   Zn16  S    
C11   O19   A    
C137  O73   A    
C142  O30   A    
C46   H38   S    
C56   H80   S    
C54   C86   S    
C156  O47   A    
O27   Zn19  S    
C24   C154  S    
C49   C51   S    
C69   H61   S    
C41   H33   S    
C178  C186  S    
C147  O35   A    
C224  O135  D    
C38   H30   S    
O4    Zn4   S    
O134  H95   S    
C116  C132  S    
C59   C211  S    
C164  O60   A    
C55   H79   S    
C223  O133  D    
C21   C155  S    
C26   H2    S    
C52   H44   S    
C209  O106  S    
C110  C126  S    
O22   Zn9   S    
C139  O27   A    
C56   H48   S    
C69   C221  S    
C164  C172  S    
C35   H27   S    
O41   Zn17  S    
C153  O46   A    
O95   Zn23  S    
C33   H25   S    
C58   C74   S    
C167  C175  S    
C168  C176  S    
C62   C78   S    
C63   C215  S    
C157  O49   A    
C134  C135  T    
C161  O57   A    
O1    Zn6   S    
C221  O130  S    
C98   C114  T    
C4    O12   A    
C99   C152  S    
C167  O67   A    
C101  C117  T    
C52   C84   S    
C48   H72   S    
C29   H21   S    
C40   H32   S    
C49   H73   S    
C219  O126  S    
C3    O91   A    
C25   C73   S    
C55   C87   S    
C17   C159  S    
O58   Zn5   S    
C18   C160  S    
C72   C224  S    
C41   C73   S    
O118  H87   S    
C32   H8    S    
C29   C77   S    
C152  O40   A    
C215  O117  D    
C89   C105  T    
O136  H96   S    
C142  O78   A    
C45   C77   S    
C34   C82   S    
O7    Zn27  S    
C60   H52   S    
C93   C109  T    
C34   H26   S    
O6    Zn29  S    
C59   C75   S    
C146  O34   A    
C114  C130  S    
C197  C205  S    
O132  H94   S    
C100  C116  T    
O31   Zn23  S    
O5    Zn14  S    
C59   H51   S    
C69   C85   S    
C168  O71   A    
C68   C220  S    
C44   H36   S    
C50   H74   S    
C1    O9    A    
C14   O22   A    
O8    Zn28  S    
C153  O41   A    
C102  C145  S    
C99   C115  T    
C213  O114  S    
C179  C187  S    
C89   C142  S    
C194  C202  S    
C177  C185  S    
O42   Zn18  S    
C49   C81   S    
O100  Zn28  S    
C216  O120  S    
C92   C143  S    
O6    Zn10  S    
C93   C138  S    
C180  C188  S    
O3    Zn3   S    
C181  C189  S    
C150  O38   A    
O1    Zn1   S    
C65   C67   S    
O15   Zn4   S    
C184  C192  S    
C163  C171  S    
C129  C132  T    
C49   H41   S    
C172  C180  T    
C165  O65   A    
C173  C181  T    
O120  H88   S    
O39   Zn31  S    
C1    C78   S    
C64   C80   S    
C39   H15   S    
O11   Zn8   S    
C53   H45   S    
C3    C80   S    
C186  C194  T    
C67   C219  S    
C212  O112  S    
C42   C74   S    
O116  H86   S    
C68   C84   S    
C65   C217  S    
C20   C204  T    
C199  C207  S    
C45   H37   S    
C46   C78   S    
C35   C83   S    
C115  C131  S    
O50   Zn26  S    
C43   H35   S    
C210  O107  D    
C94   C110  T    
C16   C83   S    
C119  C135  S    
C183  C191  S    
C120  C136  S    
O128  H92   S    
C222  O131  D    
C30   H6    S    
O90   Zn18  S    
C65   C81   S    
C162  C170  S    
O97   Zn25  S    
C18   C202  T    
C71   H63   S    
C90   C106  T    
C7    C76   S    
O89   Zn17  S    
O14   Zn1   S    
C71   C87   S    
C38   C86   S    
O19   Zn16  S    
C60   C76   S    
C160  O52   A    
C36   H28   S    
C28   C76   S    
C151  O39   A    
C70   C222  S    
O1    Zn22  S    
C190  C198  T    
C15   O103  A    
C148  O84   A    
C8    O96   A    
C191  C199  T    
C63   H55   S    
C34   H10   S    
C54   H78   S    
O26   Zn18  S    
O67   Zn16  S    
C106  C122  S    
C147  O83   A    
O53   Zn29  S    
C38   H14   S    
O24   Zn11  S    
O9    Zn6   S    
C37   C39   S    
C2    C77   S    
C38   C40   S    
C71   C223  S    
C48   C80   S    
C157  O54   A    
C26   H18   S    
O20   Zn15  S    
O7    Zn16  S    
O21   Zn10  S    
C46   H70   S    
C42   H34   S    
O75   Zn3   S    
C68   H60   S    
O73   Zn1   S    
O43   Zn19  S    
C9    O17   A    
C144  O80   A    
C29   C31   S    
O62   Zn1   S    
O103  Zn31  S    
O85   Zn13  S    
C159  O56   A    
C104  C120  T    
C98   C149  S    
C140  O28   A    
C66   C68   S    
C16   O24   A    
O2    Zn5   S    
C47   C79   S    
O112  H84   S    
C62   H54   S    
C61   C213  S    
O91   Zn19  S    
C96   C112  T    
C95   C140  S    
C113  C129  S    
O17   Zn14  S    
C40   H16   S    
C37   C85   S    
O3    Zn19  S    
O29   Zn21  S    
O47   Zn23  S    
O1    Zn17  S    
O48   Zn24  S    
C32   C80   S    
C165  C173  S    
O57   Zn6   S    
C16   O104  A    
O83   Zn11  S    
C60   C212  S    
C141  O29   A    
C36   H12   S    
O34   Zn26  S    
C69   C71   S    
O81   Zn9   S    
O7    Zn32  S    
C214  O116  S    
O8    Zn31  S    
C12   O100  A    
C33   C35   S    
C53   H77   S    
O46   Zn22  S    
C112  C128  S    
C121  C124  T    
C163  O59   A    
C125  C128  T    
O30   Zn22  S    
O96   Zn24  S    
C51   H43   S    
O102  Zn30  S    
O6    Zn13  S    
C34   C36   S    
C102  C118  T    
C162  O61   A    
O79   Zn7   S    
O3    Zn8   S    
O98   Zn26  S    
C51   H75   S    
C13   O101  A    
C2    O10   A    
C19   C203  T    
C72   C88   S    
C103  C148  S    
C218  O124  S    
C100  C151  S    
C165  O70   A    
C54   C56   S    
C101  C146  S    
O8    Zn12  S    
C210  O108  S    
C19   C157  S    
C159  O51   A    
C4    C79   S    
O130  H93   S    
O84   Zn12  S    
C149  O85   A    
C221  O129  D    
O25   Zn17  S    
O2    Zn2   S    
C8    C75   S    
O80   Zn8   S    
C156  O44   A    
C9    C86   S    
C133  C136  T    
O74   Zn2   S    
C67   H59   S    
C37   H29   S    
O126  H91   S    
C11   C88   S    
O32   Zn24  S    
O10   Zn5   S    
C27   H3    S    
C219  O125  D    
C105  C121  S    
C25   H1    S    
C155  O43   A    
C109  C125  S    
O36   Zn28  S    
C111  C127  S    
C22   C156  S    
C154  O45   A    
O52   Zn28  S    
C97   C113  T    
C70   C86   S    
C143  O79   A    
C4    O92   A    
O5    Zn25  S    
C91   C144  S    
C140  O76   A    
O51   Zn27  S    
C12   C87   S    
C187  C195  T    
C160  O55   A    
O49   Zn25  S    
C103  C119  T    
C185  C193  T    
C50   H42   S    
C158  O50   A    
O77   Zn5   S    
C162  O58   A    
C31   C79   S    
C25   C27   S    
C211  O110  S    
C26   C28   S    
C30   H22   S    
O92   Zn20  S    
O114  H85   S    
C224  O136  S    
C95   C111  T    
C30   C32   S    
O18   Zn13  S    
C146  O82   A    
C213  O113  D    
C36   C84   S    
O12   Zn7   S    
O13   Zn2   S    
C223  O134  S    
O33   Zn25  S    
C2    O90   A    
C216  O119  D    
O37   Zn29  S    
O110  H83   S    
C30   C78   S    
O2    Zn21  S    
O35   Zn27  S    
C188  C196  T    
C26   C74   S    
C211  O109  D    
O45   Zn21  S    
C72   H64   S    
C66   C218  S    
C70   C72   S    
C44   C76   S    
C122  C123  T    
O40   Zn32  S    
C33   C81   S    
C148  O36   A    
O66   Zn13  S    
C15   O23   A    
