data_mof_unit_16248.cif
_audit_creation_date              2012-12-10T20:43:17-0500
_audit_creation_method            fapswitch 2.2
_symmetry_space_group_name_H-M    P1
_symmetry_Int_Tables_number       1
_space_group_crystal_system       triclinic
_cell_length_a                    15.829089
_cell_length_b                    10.679951
_cell_length_c                    9.88414
_cell_angle_alpha                 90.004487
_cell_angle_beta                  90.068844
_cell_angle_gamma                 90.118119
_cell_volume                      1670.94760221

loop_
_atom_site_label
_atom_site_type_symbol
_atom_type_description
_atom_site_fract_x
_atom_site_fract_y
_atom_site_fract_z
_atom_type_partial_charge
C1    C     C_R   0.503956 0.260548 0.500085 0.984917
C2    C     C_R   0.043593 0.593294 0.557063 -0.034839
C3    C     C_1   0.823722 0.495156 0.499073 0.063874
C4    C     C_1   0.176493 0.493659 0.499530 0.052552
C5    C     C_1   0.251302 0.496867 0.499466 -0.067177
C6    C     C_1   0.748888 0.497937 0.499874 -0.111200
C7    C     C_R   0.484618 0.063271 0.611888 -0.135006
C8    C     C_R   0.515984 0.129347 0.502317 -0.146361
C9    C     C_R   0.564305 0.066675 0.402969 0.394347
C10   C     C_R   0.564768 0.934536 0.402400 -0.135353
C11   C     C_R   0.516464 0.871024 0.502196 -0.141988
C12   C     C_R   0.339514 0.499773 0.499852 0.978717
C13   C     C_R   0.483165 0.937396 0.610271 -0.027597
C14   C     C_3   0.407332 0.928121 0.702208 -0.153340
C15   C     C_3   0.409373 0.074079 0.703693 0.267031
C16   C     C_R   0.430814 0.538850 0.070782 0.218764
C17   C     C_R   0.570623 0.468216 0.071969 -0.072762
C18   C     C_R   0.570592 0.468091 0.928299 -0.100448
C19   C     C_R   0.430883 0.539465 0.928388 0.058169
C20   C     C_3   0.343255 0.486220 0.921155 -0.283959
C21   C     C_3   0.342179 0.487579 0.076890 -0.255717
C22   C     C_R   0.504135 0.739499 0.500071 0.932709
C23   C     C_R   0.660552 0.500116 0.500055 0.883215
C24   C     C_R   0.955851 0.591935 0.554993 -0.193505
C25   C     C_R   0.912713 0.491531 0.498040 0.032929
C26   C     C_R   0.955075 0.389202 0.441612 0.318343
C27   C     C_R   0.043693 0.387225 0.442968 -0.123753
C28   C     C_R   0.087174 0.490512 0.500837 -0.000031
H1    H     H_    0.627121 0.440807 0.125809 0.194127
H2    H     H_    0.627056 0.440521 0.874684 0.169575
H3    H     H_    0.342966 0.391214 0.874833 0.227776
H4    H     H_    0.920511 0.669444 0.597526 0.203455
N1    N     N_R   0.499440 0.499140 0.142800 -0.147760
N2    N     N_R   0.499440 0.499180 0.857150 -0.123549
O1    O     O_R   0.500010 0.316790 0.614690 -0.634889
O2    O     O_R   0.500000 0.316760 0.385350 -0.593579
O3    O     O_R   0.378030 0.499990 0.614640 -0.629786
O4    O     O_R   0.378020 0.499950 0.385300 -0.619699
O5    O     O_R   0.500000 0.683240 0.614650 -0.646010
O6    O     O_R   0.499990 0.683210 0.385310 -0.591376
O7    O     O_R   0.621980 0.500050 0.614700 -0.628821
O8    O     O_R   0.621970 0.500010 0.385360 -0.615944
Zn1   Zn    Zn3+2 0.500010 0.500020 0.653130 0.958444
Zn2   Zn    Zn3+2 0.499990 0.499980 0.346870 1.020175
C29   C     C_2   0.088645 0.702733 0.617240 0.540894
H5    H     H_    0.157070 0.706748 0.619031 0.062259
O9    O     O_2   0.049670 0.790411 0.665903 -0.522596
C30   C     C_2   0.432088 0.134588 0.836814 0.473006
H6    H     H_    0.495037 0.171975 0.854053 0.055573
O10   O     O_2   0.379669 0.141500 0.926881 -0.485046
C31   C     C_2   0.281425 0.572941 0.853385 0.503959
H7    H     H_    0.301347 0.663753 0.816545 0.070655
O11   O     O_2   0.207795 0.541161 0.840111 -0.560200
C32   C     C_2   0.279867 0.577450 0.141208 0.524650
H8    H     H_    0.213040 0.554495 0.141082 0.104691
O12   O     O_2   0.303208 0.675570 0.192856 -0.485972
C33   C     C_2   0.336094 0.357434 0.135786 0.511485
H9    H     H_    0.391856 0.309887 0.173396 0.125091
O13   O     O_2   0.268290 0.302794 0.138658 -0.483451
Cl1   Cl    Cl    0.895941 0.262851 0.373282 -0.547553
C34   C     C_2   0.088721 0.277881 0.382541 0.561194
H10   H     H_    0.057458 0.219202 0.308226 0.133514
O14   O     O_2   0.160384 0.249851 0.416503 -0.475168
Cl2   Cl    Cl    0.627717 0.152579 0.287585 -0.508005
C35   C     C_2   0.615716 0.863388 0.302034 0.567064
H11   H     H_    0.644245 0.774923 0.330607 0.021818
O15   O     O_2   0.624370 0.900363 0.186005 -0.489611
C36   C     C_2   0.328324 0.872647 0.639023 0.529353
H12   H     H_    0.270051 0.872412 0.696726 0.111525
O16   O     O_2   0.327973 0.830123 0.524364 -0.547508
C37   C     C_2   0.429614 0.864882 0.834442 0.327578
H13   H     H_    0.490856 0.821014 0.848076 0.118218
O17   O     O_2   0.379175 0.863139 0.927801 -0.489279
Cl3   Cl    Cl    0.322108 0.151936 0.623130 -0.492806

loop_
_geom_bond_atom_site_label_1
_geom_bond_atom_site_label_2
_ccdc_geom_bond_type
O3    Zn1   S    
O5    Zn1   S    
C24   H4    S    
C21   C33   S    
C16   C21   S    
C18   H2    S    
C16   N1    A    
C9    Cl2   S    
C17   H1    S    
C14   C37   S    
C32   H8    S    
C11   C22   S    
C19   C20   S    
C23   O7    A    
O2    Zn2   S    
O6    Zn2   S    
C3    C6    T    
C22   O6    A    
C7    C15   S    
C17   C18   A    
C26   C27   A    
C37   H13   S    
C17   N1    A    
C12   O3    A    
C13   C14   S    
C20   C21   S    
O4    Zn2   S    
C4    C5    T    
O7    Zn1   S    
C33   H9    S    
C34   H10   S    
C23   O8    A    
O8    Zn2   S    
C15   C30   S    
C18   N2    A    
C16   C19   A    
C22   O5    A    
C3    C25   S    
C30   O10   D    
C30   H6    S    
C4    C28   S    
C20   C31   S    
C29   O9    D    
C2    C29   S    
C2    C24   A    
C21   C32   S    
C32   O12   D    
C33   O13   D    
C11   C13   A    
C7    C8    A    
C10   C11   A    
C6    C23   S    
C31   H7    S    
C1    C8    S    
C12   O4    A    
C7    C13   A    
C15   Cl3   S    
O1    Zn1   S    
C24   C25   A    
C1    O1    A    
C5    C12   S    
C36   O16   D    
C35   H11   S    
C9    C10   A    
C10   C35   S    
C27   C28   A    
C37   O17   D    
C14   C36   S    
C14   C15   S    
C8    C9    A    
C2    C28   A    
C27   C34   S    
C31   O11   D    
C25   C26   A    
C29   H5    S    
N1    Zn2   S    
C26   Cl1   S    
C19   N2    A    
C34   O14   D    
N2    Zn1   S    
C1    O2    A    
C36   H12   S    
C35   O15   D    
C20   H3    S    
