data_mof_unit_17553.cif
_audit_creation_date              2013-03-05T15:46:34-0500
_audit_creation_method            fapswitch 2.2
_symmetry_space_group_name_H-M    P1
_symmetry_Int_Tables_number       1
_space_group_crystal_system       triclinic
_cell_length_a                    10.174241
_cell_length_b                    10.605712
_cell_length_c                    10.869738
_cell_angle_alpha                 89.997174
_cell_angle_beta                  94.849371
_cell_angle_gamma                 81.872786
_cell_volume                      1156.87797888

loop_
_atom_site_label
_atom_site_type_symbol
_atom_site_description
_atom_site_fract_x
_atom_site_fract_y
_atom_site_fract_z
_atom_type_partial_charge
O1    O     O_R   0.568940 0.489660 0.307530 -0.644719
O2    O     O_R   0.431060 0.510340 0.692470 -0.599810
O3    O     O_R   0.348880 0.522640 0.340350 -0.643310
O4    O     O_R   0.651120 0.477360 0.659650 -0.599798
C1    C     C_R   0.444120 0.508926 0.267990 0.844585
C2    C     C_R   0.555543 0.492006 0.732027 0.992093
O5    O     O_R   0.610030 0.300280 0.483580 -0.602589
O6    O     O_R   0.389970 0.699720 0.516420 -0.613407
O7    O     O_R   0.389970 0.333270 0.516400 -0.602113
O8    O     O_R   0.610030 0.666730 0.483600 -0.614252
C3    C     C_R   0.493741 0.262273 0.477055 0.867207
C4    C     C_R   0.495665 0.740296 0.480322 0.861622
Zn1   Zn    Zn3+2 0.646940 0.477980 0.478080 0.911844
Zn2   Zn    Zn3+2 0.353060 0.522020 0.521920 0.921335
H1    H     H_    0.024297 0.181681 0.403183 0.128236
H2    H     H_    0.899363 0.833789 0.281470 0.161822
C5    C     C_R   0.689768 0.104165 0.317476 0.214679
C6    C     C_R   0.233831 0.908087 0.405078 0.204867
C7    C     C_R   0.809187 0.025472 0.302864 -0.220579
C8    C     C_R   0.120656 0.990466 0.431983 -0.210710
C9    C     C_R   0.814425 0.894472 0.312650 -0.228486
C10   C     C_R   0.119079 0.120571 0.414500 -0.207420
C11   C     C_R   0.697072 0.844423 0.327296 0.206899
C12   C     C_R   0.235877 0.164636 0.385076 0.207878
C13   C     C_R   0.592582 0.921176 0.383047 0.020966
C14   C     C_R   0.358548 0.086254 0.417054 0.058004
C15   C     C_R   0.590775 0.055127 0.380311 0.031979
C16   C     C_R   0.358837 0.953182 0.421075 0.033052
C17   C     C_R   0.482846 0.872027 0.428369 -0.258756
C18   C     C_R   0.481031 0.133997 0.424824 -0.253298
H3    H     H_    0.888754 0.063137 0.261560 0.149719
H4    H     H_    0.028770 0.953564 0.440878 0.160189
H5    H     H_    0.381807 0.524265 0.896647 0.195851
H6    H     H_    0.614998 0.479834 0.102663 0.197249
C19   C     C_2   0.411541 0.515117 0.136895 -0.351234
C20   C     C_2   0.586323 0.487578 0.863387 -0.411748
C21   C     C_2   0.511447 0.498796 0.065125 -0.173176
C22   C     C_2   0.485283 0.505388 0.934452 -0.154980
H7    H     H_    0.889012 0.581918 0.576147 0.170702
H8    H     H_    0.111340 0.400678 0.449651 0.166001
N1    N     N_2   0.157300 0.551390 0.551120 -0.203828
N2    N     N_2   0.842700 0.448610 0.448880 -0.211505
C23   C     C_2   0.073501 0.482003 0.500776 -0.153982
C24   C     C_2   0.926518 0.509671 0.512243 -0.133346
H9    H     H_    0.881722 0.381339 0.388583 0.141034
H10   H     H_    0.117649 0.629533 0.599096 0.163720
C25   C     C_3   0.655040 0.217312 0.230501 -0.360732
C26   C     C_3   0.652999 0.174279 0.095715 -0.896078
H11   H     H_    0.754025 0.132293 0.072541 0.257727
H12   H     H_    0.583648 0.102824 0.078980 0.263442
H13   H     H_    0.618711 0.256121 0.032429 0.267921
H14   H     H_    0.553848 0.266232 0.242396 0.213794
H15   H     H_    0.728268 0.284843 0.247745 0.206659
C27   C     C_3   0.212369 0.800350 0.317564 -0.335442
C28   C     C_3   0.157410 0.849620 0.188507 -0.946026
H16   H     H_    0.066116 0.919530 0.191241 0.261723
H17   H     H_    0.233497 0.895846 0.144865 0.271108
H18   H     H_    0.133454 0.768545 0.130234 0.252924
H19   H     H_    0.307965 0.743047 0.302182 0.222860
H20   H     H_    0.145083 0.738972 0.355299 0.210194
C29   C     C_3   0.670713 0.734480 0.244488 -0.338824
C30   C     C_3   0.683880 0.766351 0.108664 -0.904899
H21   H     H_    0.617456 0.855773 0.080389 0.268563
H22   H     H_    0.788158 0.777112 0.093105 0.256734
H23   H     H_    0.655405 0.689193 0.048243 0.263103
H24   H     H_    0.741435 0.647971 0.273269 0.225354
H25   H     H_    0.567126 0.715815 0.248692 0.210317
C31   C     C_3   0.225062 0.256880 0.277006 -0.418615
C32   C     C_3   0.236615 0.186113 0.155184 -0.878826
H26   H     H_    0.332236 0.120634 0.157153 0.266121
H27   H     H_    0.152123 0.131004 0.137296 0.265539
H28   H     H_    0.233493 0.255873 0.078420 0.254436
H29   H     H_    0.128233 0.320488 0.268915 0.188826
H30   H     H_    0.305708 0.315294 0.287118 0.225668
H31   H     H_    0.689488 0.469195 0.901954 0.152260
H32   H     H_    0.308026 0.533224 0.099351 0.155685

loop_
_geom_bond_atom_site_label_1
_geom_bond_atom_site_label_2
_geom_bond_distance
_ccdc_geom_bond_type
N1    H10   1.030835 S    
C32   H28   1.110602 S    
C30   H22   1.109870 S    
O7    Zn2   1.985752 S    
C25   H14   1.103338 S    
C20   H31   1.087759 S    
C4    C17   1.491228 S    
C13   C15   1.418439 A    
H6    C21   1.088261 S    
O7    C3    1.310024 A    
C29   H25   1.104148 S    
C14   C16   1.411581 A    
H5    C22   1.088379 S    
O6    C4    1.302965 A    
C23   C24   1.498473 S    
C7    H3    1.081366 S    
H8    C23   1.069242 S    
C29   C30   1.535595 S    
C30   H21   1.110963 S    
C26   H12   1.111195 S    
O3    C1    1.291423 A    
C28   H17   1.110869 S    
C27   H20   1.110898 S    
C15   C18   1.416969 A    
O5    C3    1.299240 A    
N1    C23   1.290922 D    
C12   C14   1.415220 A    
C16   C17   1.419517 A    
H2    C9    1.080805 S    
O3    Zn2   1.970468 S    
N2    C24   1.295331 D    
Zn2   N1    2.023896 S    
O1    C1    1.293667 A    
C25   H15   1.109264 S    
O8    C4    1.303927 A    
C20   C22   1.329867 D    
Zn1   N2    2.023894 S    
C5    C7    1.394250 A    
C21   C22   1.422685 S    
C2    C20   1.435017 S    
C14   C18   1.406089 A    
C6    C8    1.395451 A    
C27   H19   1.097121 S    
C9    C11   1.394283 A    
C13   C17   1.420722 A    
C32   H26   1.111146 S    
O2    Zn2   1.950713 S    
C10   C12   1.397890 A    
C19   H32   1.087544 S    
C26   H13   1.105475 S    
O1    Zn1   1.950711 S    
C12   C31   1.515492 S    
H7    C24   1.085083 S    
C31   H30   1.094353 S    
C5    C15   1.419777 A    
C25   C26   1.533891 S    
C1    C19   1.434814 S    
C11   C29   1.513078 S    
C11   C13   1.422794 A    
C6    C16   1.418151 A    
C3    C18   1.492406 S    
O4    C2    1.294340 A    
C8    H4    1.074820 S    
C28   H18   1.110493 S    
O4    Zn1   1.970469 S    
C32   H27   1.110054 S    
C6    C27   1.514487 S    
C27   C28   1.529150 S    
C26   H11   1.110226 S    
O6    Zn2   1.974929 S    
O5    Zn1   1.974928 S    
C28   H16   1.106044 S    
C30   H23   1.104458 S    
C19   C21   1.325171 D    
C31   H29   1.109418 S    
C29   H24   1.110248 S    
N2    H9    1.029639 S    
H1    C10   1.080910 S    
O2    C2    1.290362 A    
C5    C25   1.510678 S    
C8    C10   1.390526 A    
C31   C32   1.527091 S    
C7    C9    1.386554 A    
O8    Zn1   1.985753 S    
