data_mof_unit_12803.cif
_audit_creation_date              2012-12-11T14:38:07-0500
_audit_creation_method            fapswitch 2.2
_symmetry_space_group_name_H-M    P1
_symmetry_Int_Tables_number       1
_space_group_crystal_system       triclinic
_cell_length_a                    19.495947
_cell_length_b                    11.35864
_cell_length_c                    19.617729
_cell_angle_alpha                 90.026622
_cell_angle_beta                  96.156573
_cell_angle_gamma                 90.129714
_cell_volume                      4319.22819975

loop_
_atom_site_label
_atom_site_type_symbol
_atom_type_description
_atom_site_fract_x
_atom_site_fract_y
_atom_site_fract_z
_atom_type_partial_charge
C1    C     C_R   0.726659 0.952917 0.359289 0.534676
C2    C     C_R   0.273335 0.952910 0.640727 0.534347
C3    C     C_R   0.226659 0.452917 0.359289 0.534677
C4    C     C_R   0.773335 0.452910 0.640727 0.534347
C5    C     C_3   0.668817 0.437993 0.460502 0.056342
C6    C     C_3   0.331146 0.438502 0.539555 0.056489
C7    C     C_3   0.168817 0.937993 0.460502 0.056342
C8    C     C_3   0.831146 0.938502 0.539555 0.056489
C9    C     C_3   0.813967 0.451243 0.530392 -0.214539
C10   C     C_3   0.186001 0.450724 0.469634 -0.214370
C11   C     C_3   0.313967 0.951243 0.530392 -0.214539
C12   C     C_3   0.686001 0.950724 0.469634 -0.214370
C13   C     C_3   0.741881 0.285942 0.564814 -0.239970
C14   C     C_3   0.258112 0.286126 0.435006 -0.239818
C15   C     C_3   0.241881 0.785942 0.564814 -0.239970
C16   C     C_3   0.758112 0.786126 0.435006 -0.239818
C17   C     C_3   0.752218 0.417378 0.569758 -0.008121
C18   C     C_3   0.247765 0.417470 0.430237 -0.008187
C19   C     C_3   0.252218 0.917378 0.569758 -0.008121
C20   C     C_3   0.747765 0.917470 0.430237 -0.008187
C21   C     C_3   0.729658 0.357626 0.440285 0.050399
C22   C     C_3   0.270290 0.357648 0.559659 0.050325
C23   C     C_3   0.229658 0.857626 0.440285 0.050399
C24   C     C_3   0.770289 0.857649 0.559659 0.050325
C25   C     C_3   0.803156 0.410459 0.457444 0.008024
C26   C     C_3   0.196808 0.409979 0.542550 0.008056
C27   C     C_3   0.303156 0.910459 0.457444 0.008024
C28   C     C_3   0.696808 0.909979 0.542550 0.008056
C29   C     C_3   0.724080 0.251281 0.488837 -0.313253
C30   C     C_3   0.275815 0.251432 0.510955 -0.313158
C31   C     C_3   0.224080 0.751281 0.488837 -0.313253
C32   C     C_3   0.775814 0.751432 0.510955 -0.313158
C33   C     C_3   0.480007 0.304519 0.964396 0.042896
C34   C     C_3   0.496382 0.306235 0.040123 0.047551
C35   C     C_3   0.980007 0.804519 0.964396 0.042896
C36   C     C_3   0.996382 0.806235 0.040123 0.047551
C37   C     C_3   0.412138 0.111330 0.980108 -0.070809
C38   C     C_3   0.561484 0.110702 0.024881 -0.058525
C39   C     C_3   0.912138 0.611330 0.980108 -0.070809
C40   C     C_3   0.061484 0.610702 0.024881 -0.058525
C41   C     C_3   0.533265 0.104239 0.948647 0.006779
C42   C     C_3   0.440130 0.108579 0.057082 -0.006627
C43   C     C_3   0.033266 0.604239 0.948647 0.006779
C44   C     C_3   0.940130 0.608579 0.057082 -0.006627
C45   C     C_R   0.536786 0.180651 0.338562 0.529964
C46   C     C_R   0.463225 0.180729 0.661447 0.535839
C47   C     C_R   0.036786 0.680651 0.338562 0.529964
C48   C     C_R   0.963225 0.680729 0.661447 0.535839
C49   C     C_3   0.464044 0.175476 0.937217 -0.016573
C50   C     C_3   0.510059 0.176269 0.067258 -0.011180
C51   C     C_3   0.964044 0.675476 0.937217 -0.016573
C52   C     C_3   0.010059 0.676269 0.067258 -0.011180
C53   C     C_1   0.761232 0.424642 0.904402 0.051358
C54   C     C_1   0.235426 0.435181 0.092371 0.053611
C55   C     C_1   0.261232 0.924642 0.904402 0.051358
C56   C     C_1   0.735426 0.935181 0.092371 0.053611
C57   C     C_1   0.753506 0.414929 0.037334 0.088012
C58   C     C_1   0.241837 0.430771 0.958664 0.086475
C59   C     C_1   0.253506 0.914929 0.037334 0.088012
C60   C     C_1   0.741837 0.930771 0.958664 0.086475
C61   C     C_1   0.755666 0.415952 0.965086 0.055837
C62   C     C_1   0.239772 0.431789 0.031140 0.060663
C63   C     C_1   0.255667 0.915952 0.965086 0.055837
C64   C     C_1   0.739772 0.931789 0.031140 0.060663
C65   C     C_1   0.748930 0.402338 0.097983 0.104329
C66   C     C_1   0.247750 0.412974 0.898565 0.099418
C67   C     C_1   0.248930 0.902338 0.097983 0.104329
C68   C     C_1   0.747750 0.912974 0.898565 0.099418
C69   C     C_R   0.724142 0.315734 0.367833 0.550342
C70   C     C_R   0.275821 0.315693 0.632087 0.551289
C71   C     C_R   0.224142 0.815734 0.367833 0.550342
C72   C     C_R   0.775821 0.815693 0.632087 0.551289
C73   C     C_R   0.722172 0.955480 0.162498 0.556575
C74   C     C_R   0.276937 0.952991 0.836185 0.551409
C75   C     C_R   0.222173 0.455480 0.162498 0.556576
C76   C     C_R   0.776937 0.452991 0.836185 0.551409
C77   C     C_R   0.536130 0.180282 0.139938 0.576594
C78   C     C_R   0.440522 0.182023 0.863091 0.574760
C79   C     C_R   0.036130 0.680282 0.139938 0.576594
C80   C     C_R   0.940522 0.682023 0.863091 0.574760
C81   C     C_R   0.738030 0.362438 0.165744 0.596814
C82   C     C_R   0.261135 0.365206 0.832899 0.595705
C83   C     C_R   0.238030 0.862438 0.165744 0.596814
C84   C     C_R   0.761135 0.865206 0.832899 0.595705
C85   C     C_1   0.484703 0.173911 0.594248 0.014971
C86   C     C_1   0.515389 0.173802 0.405794 0.016702
C87   C     C_1   0.984703 0.673911 0.594248 0.014971
C88   C     C_1   0.015389 0.673802 0.405794 0.016702
C89   C     C_1   0.504781 0.171131 0.465004 -0.026426
C90   C     C_1   0.495359 0.171181 0.535053 -0.026833
C91   C     C_1   0.004781 0.671130 0.465004 -0.026426
C92   C     C_1   0.995359 0.671181 0.535053 -0.026833
C93   C     C_3   0.681557 0.470786 0.537508 -0.200094
C94   C     C_3   0.318432 0.471364 0.462584 -0.200064
C95   C     C_3   0.181557 0.970786 0.537508 -0.200094
C96   C     C_3   0.818432 0.971364 0.462584 -0.200064
Cr1   Cr    Cr6+3 0.765780 0.160710 0.267420 1.076536
Cr2   Cr    Cr6+3 0.234220 0.160710 0.732580 1.072688
Cr3   Cr    Cr6+3 0.265780 0.660710 0.267420 1.076536
Cr4   Cr    Cr6+3 0.734220 0.660710 0.732580 1.072688
Cr5   Cr    Cr6+3 0.612200 0.009560 0.248850 1.112295
Cr6   Cr    Cr6+3 0.387800 0.009560 0.751150 1.110543
Cr7   Cr    Cr6+3 0.112200 0.509560 0.248850 1.112295
Cr8   Cr    Cr6+3 0.887800 0.509560 0.751150 1.110543
Cr9   Cr    Cr6+3 0.616030 0.323720 0.248510 1.133880
Cr10  Cr    Cr6+3 0.383970 0.323720 0.751490 1.129488
Cr11  Cr    Cr6+3 0.116030 0.823720 0.248510 1.133880
Cr12  Cr    Cr6+3 0.883970 0.823720 0.751490 1.129488
H1    H     H_    0.673337 0.564302 0.547189 0.158170
H2    H     H_    0.326729 0.564945 0.453030 0.157957
H3    H     H_    0.173337 0.064302 0.547189 0.158170
H4    H     H_    0.826729 0.064945 0.453030 0.157957
H5    H     H_    0.757879 0.181652 0.476423 0.145798
H6    H     H_    0.241914 0.181589 0.523199 0.146283
H7    H     H_    0.257879 0.681652 0.476423 0.145798
H8    H     H_    0.741914 0.681589 0.523199 0.146283
H9    H     H_    0.862704 0.410037 0.554079 0.158962
H10   H     H_    0.137285 0.409096 0.445898 0.159118
H11   H     H_    0.362703 0.910037 0.554079 0.158962
H12   H     H_    0.637285 0.909096 0.445898 0.159118
H13   H     H_    0.840847 0.337355 0.454079 0.162888
H14   H     H_    0.159098 0.336605 0.545877 0.162957
H15   H     H_    0.340847 0.837355 0.454079 0.162888
H16   H     H_    0.659098 0.836605 0.545877 0.162957
H17   H     H_    0.526805 0.333345 0.940837 0.200380
H18   H     H_    0.450814 0.338662 0.064307 0.183580
H19   H     H_    0.026805 0.833345 0.940837 0.200380
H20   H     H_    0.950814 0.838662 0.064307 0.183580
H21   H     H_    0.403938 0.152930 0.088909 0.156145
H22   H     H_    0.570190 0.144070 0.915763 0.166653
H23   H     H_    0.903938 0.652931 0.088909 0.156145
H24   H     H_    0.070190 0.644070 0.915763 0.166653
H25   H     H_    0.570651 0.020862 0.046205 0.227791
H26   H     H_    0.403553 0.020492 0.960122 0.218767
H27   H     H_    0.070651 0.520862 0.046205 0.227791
H28   H     H_    0.903553 0.520492 0.960122 0.218767
H29   H     H_    0.639327 0.431043 0.564016 0.121306
H30   H     H_    0.360664 0.431981 0.436045 0.121084
H31   H     H_    0.139327 0.931043 0.564016 0.121306
H32   H     H_    0.860664 0.931981 0.436045 0.121084
H33   H     H_    0.620943 0.383525 0.454476 0.141202
H34   H     H_    0.379006 0.384375 0.545528 0.141038
H35   H     H_    0.120943 0.883525 0.454476 0.141202
H36   H     H_    0.879006 0.884375 0.545528 0.141038
H37   H     H_    0.324483 0.044391 0.534009 0.121054
H38   H     H_    0.675455 0.043785 0.466122 0.121405
H39   H     H_    0.824483 0.544391 0.534009 0.121054
H40   H     H_    0.175455 0.543785 0.466122 0.121405
H41   H     H_    0.788845 0.243755 0.587413 0.225176
H42   H     H_    0.211192 0.243586 0.412234 0.225138
H43   H     H_    0.288845 0.743754 0.587413 0.225176
H44   H     H_    0.711192 0.743586 0.412234 0.225138
H45   H     H_    0.699683 0.261851 0.595587 0.168496
H46   H     H_    0.300367 0.262463 0.404261 0.168111
H47   H     H_    0.199683 0.761851 0.595587 0.168495
H48   H     H_    0.800367 0.762463 0.404261 0.168111
H49   H     H_    0.670172 0.218851 0.482846 0.109001
H50   H     H_    0.329698 0.219347 0.516934 0.109085
H51   H     H_    0.170173 0.718851 0.482846 0.109001
H52   H     H_    0.829698 0.719347 0.516934 0.109085
O1    O     O_R   0.783100 0.287550 0.345460 -0.498433
O2    O     O_R   0.216900 0.287550 0.654540 -0.498655
O3    O     O_R   0.283100 0.787550 0.345460 -0.498433
O4    O     O_R   0.716900 0.787550 0.654540 -0.498655
O5    O     O_R   0.554710 0.081900 0.170950 -0.458449
O6    O     O_R   0.445290 0.081900 0.829050 -0.453349
O7    O     O_R   0.054710 0.581900 0.170950 -0.458449
O8    O     O_R   0.945290 0.581900 0.829050 -0.453349
O9    O     O_R   0.545650 0.284910 0.163740 -0.468371
O10   O     O_R   0.454350 0.284910 0.836260 -0.476709
O11   O     O_R   0.045650 0.784910 0.163740 -0.468371
O12   O     O_R   0.954350 0.784910 0.836260 -0.476709
O13   O     O_R   0.677950 0.374280 0.185410 -0.443647
O14   O     O_R   0.322050 0.374280 0.814590 -0.449599
O15   O     O_R   0.177950 0.874280 0.185410 -0.443647
O16   O     O_R   0.822050 0.874280 0.814590 -0.449599
O17   O     O_3   0.664670 0.164660 0.254930 -0.322105
O18   O     O_3   0.335330 0.164660 0.745070 -0.334970
O19   O     O_3   0.164670 0.664660 0.254930 -0.322105
O20   O     O_3   0.835330 0.664660 0.745070 -0.334970
O21   O     O_R   0.760020 0.037400 0.337700 -0.533180
O22   O     O_R   0.239980 0.037400 0.662300 -0.532562
O23   O     O_R   0.260020 0.537400 0.337700 -0.533180
O24   O     O_R   0.739980 0.537400 0.662300 -0.532562
O25   O     O_R   0.666600 0.921990 0.332020 -0.496848
O26   O     O_R   0.333400 0.921990 0.667980 -0.496565
O27   O     O_R   0.166600 0.421990 0.332020 -0.496848
O28   O     O_R   0.833400 0.421990 0.667980 -0.496565
O29   O     O_R   0.557260 0.082670 0.312540 -0.487353
O30   O     O_R   0.442740 0.082670 0.687460 -0.484860
O31   O     O_R   0.057260 0.582670 0.312540 -0.487353
O32   O     O_R   0.942740 0.582670 0.687460 -0.484860
O33   O     O_R   0.548410 0.285740 0.316480 -0.500294
O34   O     O_R   0.451590 0.285740 0.683520 -0.496528
O35   O     O_R   0.048410 0.785740 0.316480 -0.500294
O36   O     O_R   0.951590 0.785740 0.683520 -0.496528
O37   O     O_R   0.680500 0.375040 0.327000 -0.429743
O38   O     O_R   0.319500 0.375040 0.673000 -0.430117
O39   O     O_R   0.180500 0.875040 0.327000 -0.429743
O40   O     O_R   0.819500 0.875040 0.673000 -0.430117
O41   O     O_R   0.780350 0.286720 0.192720 -0.473647
O42   O     O_R   0.219650 0.286720 0.807280 -0.474979
O43   O     O_R   0.280350 0.786720 0.192720 -0.473647
O44   O     O_R   0.719650 0.786720 0.807280 -0.474979
O45   O     O_R   0.757470 0.036630 0.196110 -0.486456
O46   O     O_R   0.242530 0.036630 0.803890 -0.483251
O47   O     O_R   0.257470 0.536630 0.196110 -0.486455
O48   O     O_R   0.742530 0.536630 0.803890 -0.483251
O49   O     O_R   0.663840 0.921160 0.179280 -0.470741
O50   O     O_R   0.336160 0.921160 0.820720 -0.472911
O51   O     O_R   0.163840 0.421160 0.179280 -0.470741
O52   O     O_R   0.836160 0.421160 0.820720 -0.472911
Br1   Br    Br    0.414575 0.433392 0.941860 -0.407374
Br2   Br    Br    0.565734 0.434262 0.058594 -0.379472
Br3   Br    Br    0.914575 0.933392 0.941860 -0.407374
Br4   Br    Br    0.065734 0.934262 0.058594 -0.379472
I1    I     I_    0.312120 0.180982 0.972866 -0.401838
I2    I     I_    0.661295 0.182022 0.031236 -0.388068
I3    I     I_    0.812120 0.680982 0.972866 -0.401838
I4    I     I_    0.161295 0.682021 0.031236 -0.388068
Br5   Br    Br    0.529125 0.936711 0.921910 -0.402161
Br6   Br    Br    0.443272 0.945166 0.089793 -0.428435
Br7   Br    Br    0.029125 0.436711 0.921910 -0.402161
Br8   Br    Br    0.943272 0.445166 0.089793 -0.428435
Br9   Br    Br    0.633530 0.566863 0.402680 -0.508582
Br10  Br    Br    0.366382 0.567515 0.597595 -0.507651
Br11  Br    Br    0.133530 0.066863 0.402680 -0.508582
Br12  Br    Br    0.866382 0.067515 0.597595 -0.507651
I5    I     I_    0.339173 0.033790 0.385940 -0.355926
I6    I     I_    0.660802 0.033076 0.614108 -0.357149
I7    I     I_    0.839173 0.533790 0.385940 -0.355927
I8    I     I_    0.160802 0.533076 0.614108 -0.357148

loop_
_geom_bond_atom_site_label_1
_geom_bond_atom_site_label_2
_ccdc_geom_bond_type
C58   C62   S    
C39   C51   S    
C73   O45   A    
C67   C83   S    
C8    C24   S    
C83   O15   A    
Cr10  O14   S    
C9    H9    S    
C38   I2    S    
C35   C36   S    
C8    C96   S    
C37   I1    S    
C13   C29   S    
C11   H11   S    
C15   H43   S    
Cr4   O48   S    
Cr7   O31   S    
C9    C25   S    
Cr10  O34   S    
Cr11  O11   S    
C31   H7    S    
C44   H23   S    
C15   C19   S    
C96   H4    S    
C11   C19   S    
Cr6   O26   S    
Cr9   O9    S    
C12   C28   S    
C94   H30   S    
C73   O49   A    
C43   H24   S    
C69   O1    A    
C76   O52   A    
Cr5   O29   S    
C65   C81   S    
C74   O46   A    
C41   H22   S    
C72   O40   A    
C77   O5    A    
C2    O26   A    
Cr8   O32   S    
C6    Br10  S    
C78   O10   A    
C49   C78   S    
Cr12  O20   S    
C3    C18   S    
C94   H2    S    
C2    O22   A    
C38   H25   S    
C79   O11   A    
C37   C42   S    
C14   C18   S    
C51   C80   S    
C21   C25   S    
Cr11  O15   S    
C59   C67   T    
C12   H12   S    
C55   C74   S    
C75   O47   A    
C27   I5    S    
C40   C43   S    
C82   O14   A    
C6    C94   S    
C55   C63   T    
C16   H48   S    
C56   C64   T    
C44   Br8   S    
C47   C88   S    
C23   C27   S    
C6    H34   S    
C52   C79   S    
C93   H1    S    
Cr3   O23   S    
C36   C52   S    
C16   C20   S    
Cr10  O38   S    
C46   C85   S    
Cr3   O43   S    
C5    C93   S    
C44   C52   S    
Cr9   O37   S    
C20   C96   S    
Cr6   O6    S    
Cr9   O13   S    
C87   C92   T    
C48   O36   A    
C69   O37   A    
Cr10  O10   S    
C79   O7    A    
C12   C20   S    
Cr12  O36   S    
C36   H20   S    
C10   H40   S    
C53   C61   T    
C46   O30   A    
Cr5   O25   S    
C70   O2    A    
Cr11  O35   S    
C22   C70   S    
Cr2   O2    S    
C58   C66   T    
C46   O34   A    
C39   H28   S    
C8    Br12  S    
Cr8   O28   S    
C40   H27   S    
C80   O8    A    
C78   O6    A    
C34   C50   S    
Cr1   O21   S    
C68   C84   S    
C23   C71   S    
Cr7   O27   S    
Cr12  O40   S    
C38   C41   S    
Cr4   O4    S    
C34   Br2   S    
Cr7   O51   S    
C91   C92   S    
C82   O42   A    
C33   Br1   S    
C11   H37   S    
C29   H49   S    
C54   C62   T    
C26   I8    S    
C40   C52   S    
C21   C29   S    
C15   C31   S    
C9    H39   S    
C10   C26   S    
C32   H8    S    
C21   C69   S    
C45   O33   A    
C81   O13   A    
Cr2   O22   S    
C43   Br7   S    
C24   C32   S    
Cr3   O19   S    
C10   H10   S    
C66   C82   S    
Cr9   O17   S    
C37   C49   S    
Cr1   O17   S    
C88   C91   T    
C11   C27   S    
C34   H18   S    
C75   O51   A    
C14   H42   S    
C33   H17   S    
C33   C34   S    
C72   O4    A    
C48   C87   S    
C16   H44   S    
Cr7   O7    S    
C4    O24   A    
C57   C61   S    
C14   H46   S    
C13   H45   S    
C27   H15   S    
Cr4   O44   S    
C71   O3    A    
C42   C50   S    
Cr3   O3    S    
C4    C17   S    
C9    C17   S    
C74   O50   A    
Cr1   O1    S    
C25   H13   S    
Cr12  O12   S    
C35   C51   S    
Cr5   O5    S    
Cr6   O18   S    
C95   H31   S    
C53   C76   S    
C17   C93   S    
C80   O12   A    
Cr4   O20   S    
C50   C77   S    
C28   I6    S    
C35   H19   S    
C83   O43   A    
C19   C95   S    
C24   C72   S    
Cr2   O18   S    
C30   H6    S    
C39   I3    S    
C30   H50   S    
C77   O9    A    
C29   H5    S    
C25   I7    S    
C1    C20   S    
C1    O21   A    
C56   C73   S    
C22   C30   S    
Cr11  O19   S    
C2    C19   S    
C31   H51   S    
C15   H47   S    
Cr2   O42   S    
Cr6   O50   S    
C5    H33   S    
C24   C28   S    
Cr1   O41   S    
C86   C89   T    
C3    O27   A    
C96   H32   S    
C81   O41   A    
C85   C90   T    
C28   H16   S    
C71   O39   A    
C39   C44   S    
C38   C50   S    
C12   H38   S    
C16   C32   S    
C41   C49   S    
C7    C95   S    
C59   C63   S    
C13   C17   S    
C3    O23   A    
C60   C64   S    
Cr5   O49   S    
C1    O25   A    
C4    O28   A    
C18   C94   S    
C45   C86   S    
C89   C90   S    
C14   C30   S    
Cr8   O8    S    
C95   H3    S    
C36   Br4   S    
Cr11  O39   S    
Cr9   O33   S    
C43   C51   S    
C47   O35   A    
C7    Br11  S    
C10   C18   S    
C7    C23   S    
Cr12  O16   S    
Cr6   O30   S    
C5    Br9   S    
C42   H21   S    
Cr7   O19   S    
C57   C65   T    
C47   O31   A    
Cr4   O24   S    
C41   Br5   S    
C48   O32   A    
C32   H52   S    
C93   H29   S    
C13   H41   S    
C54   C75   S    
C8    H36   S    
C76   O48   A    
C5    C21   S    
C60   C68   T    
C70   O38   A    
C22   C26   S    
C33   C49   S    
Cr3   O47   S    
C45   O29   A    
Cr8   O52   S    
C37   H26   S    
Cr2   O46   S    
C26   H14   S    
C42   Br6   S    
Cr1   O45   S    
C84   O44   A    
C84   O16   A    
C35   Br3   S    
Cr10  O18   S    
Cr5   O17   S    
C40   I4    S    
Cr8   O20   S    
C23   C31   S    
C7    H35   S    
C6    C22   S    
