data_mof_unit_12612.cif
_audit_creation_date              2012-12-11T17:08:26-0500
_audit_creation_method            fapswitch 2.2
_symmetry_space_group_name_H-M    P1
_symmetry_Int_Tables_number       1
_space_group_crystal_system       triclinic
_cell_length_a                    6.969967
_cell_length_b                    14.513655
_cell_length_c                    16.088597
_cell_angle_alpha                 89.996472
_cell_angle_beta                  90.003705
_cell_angle_gamma                 90.021959
_cell_volume                      1627.517462

loop_
_atom_site_label
_atom_site_type_symbol
_atom_type_description
_atom_site_fract_x
_atom_site_fract_y
_atom_site_fract_z
_atom_type_partial_charge
O1    O     O_R   0.505700 0.583890 0.413310 -0.536631
O2    O     O_R   0.175960 0.594920 0.586080 -0.544312
O3    O     O_R   0.005660 0.416110 0.586690 -0.535934
C1    C     C_R   0.344756 0.616915 0.614806 0.693286
O4    O     O_R   0.175980 0.594920 0.413930 -0.543464
O5    O     O_R   0.005680 0.416110 0.413310 -0.539264
C2    C     C_R   0.344765 0.616892 0.385185 0.696957
O6    O     O_R   0.505680 0.583890 0.586690 -0.537631
O7    O     O_3   0.339200 0.441330 0.500000 -0.368650
V1    V     V_3+5 0.064350 0.510880 0.500000 1.388792
O8    O     O_R   0.675960 0.405080 0.413920 -0.538479
C3    C     C_R   0.844965 0.382908 0.385340 0.699021
O9    O     O_R   0.675940 0.405080 0.586070 -0.541450
C4    C     C_R   0.844652 0.383084 0.614812 0.708001
V2    V     V_3+5 0.564340 0.489120 0.500000 1.398865
O10   O     O_3   0.839360 0.558670 0.500000 -0.373087
C5    C     C_R   0.007639 0.251750 0.689006 0.018274
C6    C     C_R   0.852579 0.312581 0.681430 -0.103620
C7    C     C_R   0.701095 0.302738 0.738732 -0.163675
H1    H     H_    0.578467 0.348091 0.735419 0.113135
C8    C     C_R   0.712958 0.238973 0.804677 -0.091165
H2    H     H_    0.598321 0.236467 0.849883 0.127032
C9    C     C_R   0.876825 0.183351 0.815380 -0.180236
C10   C     C_R   0.019209 0.188590 0.754180 0.091933
C11   C     C_3   0.229409 0.203520 0.763524 0.499431
C12   C     C_3   0.217049 0.271940 0.692223 -0.445136
H3    H     H_    0.269001 0.234368 0.824339 0.014490
H4    H     H_    0.292807 0.249009 0.635048 0.207986
H5    H     H_    0.246210 0.344184 0.711385 0.116542
C13   C     C_R   0.725650 0.247493 0.189556 0.098610
C14   C     C_R   0.882036 0.187580 0.181329 -0.107241
C15   C     C_R   0.034473 0.198288 0.237998 -0.178057
H6    H     H_    0.157743 0.153423 0.234325 0.131282
C16   C     C_R   0.022832 0.262193 0.303819 -0.174974
H7    H     H_    0.138589 0.265473 0.348445 0.132987
C17   C     C_R   0.857770 0.316797 0.315275 -0.109103
C18   C     C_R   0.713739 0.310435 0.254864 0.096934
C19   C     C_3   0.504304 0.293967 0.265539 -0.412493
C20   C     C_3   0.517194 0.225759 0.194129 -0.397662
H8    H     H_    0.417636 0.356045 0.250479 0.170739
H9    H     H_    0.471214 0.260904 0.326180 0.174165
H10   H     H_    0.438559 0.248548 0.137646 0.170278
H11   H     H_    0.490831 0.153225 0.213217 0.167895
C21   C     C_R   0.507192 0.682822 0.741279 0.097192
C22   C     C_R   0.352750 0.682392 0.685490 -0.110991
C23   C     C_R   0.201132 0.744086 0.701331 -0.177346
H12   H     H_    0.078561 0.746178 0.660279 0.135578
C24   C     C_R   0.212338 0.808292 0.766861 -0.147169
H13   H     H_    0.097457 0.857623 0.774461 0.138332
C25   C     C_R   0.375809 0.812974 0.818361 -0.109762
C26   C     C_R   0.518717 0.746607 0.805890 0.087180
C27   C     C_3   0.729039 0.759172 0.793897 -0.405386
C28   C     C_3   0.716608 0.689282 0.723809 -0.395214
H14   H     H_    0.813308 0.734280 0.848084 0.169090
H15   H     H_    0.764821 0.829812 0.772181 0.178904
H16   H     H_    0.792940 0.623805 0.737625 0.162932
H17   H     H_    0.745976 0.719157 0.661468 0.174897
C29   C     C_R   0.507150 0.682719 0.258673 0.099185
C30   C     C_R   0.352739 0.682326 0.314472 -0.111901
C31   C     C_R   0.201117 0.744012 0.298614 -0.176765
H18   H     H_    0.078532 0.746112 0.339658 0.134683
C32   C     C_R   0.212348 0.808219 0.233087 -0.177261
H19   H     H_    0.097457 0.857539 0.225467 0.127495
C33   C     C_R   0.375862 0.812920 0.181619 -0.107248
C34   C     C_R   0.518709 0.746512 0.194066 0.100308
C35   C     C_3   0.729060 0.759001 0.206035 -0.409921
C36   C     C_3   0.716595 0.689093 0.276116 -0.397111
H20   H     H_    0.764947 0.829622 0.227758 0.167426
H21   H     H_    0.813250 0.734100 0.151837 0.173665
H22   H     H_    0.746059 0.718937 0.338457 0.172079
H23   H     H_    0.792811 0.623591 0.262281 0.167109
O11   O     O_R   0.229000 0.916070 0.913330 -0.537584
O12   O     O_R   0.558770 0.905070 0.086080 -0.542629
O13   O     O_R   0.729000 0.083900 0.086690 -0.540621
C37   C     C_R   0.389734 0.883169 0.114925 0.679595
O14   O     O_R   0.558720 0.905070 0.913930 -0.538214
O15   O     O_R   0.728960 0.083900 0.913310 -0.524515
C38   C     C_R   0.389671 0.883194 0.885080 0.741555
O16   O     O_R   0.229050 0.916070 0.086710 -0.543615
O17   O     O_3   0.395460 0.058650 0.000020 -0.368420
V3    V     V_3+5 0.670340 0.989120 0.000000 1.425036
O18   O     O_R   0.058670 0.094960 0.913900 -0.535121
C39   C     C_R   0.889643 0.117156 0.885367 0.717978
O19   O     O_R   0.058720 0.094960 0.086050 -0.547461
C40   C     C_R   0.890008 0.116978 0.114780 0.676745
V4    V     V_3+5 0.170330 0.010930 0.999970 1.425977
O20   O     O_3   0.895340 0.941350 0.999980 -0.375088
F1    F     F_    0.332269 0.125261 0.742788 -0.667971

loop_
_geom_bond_atom_site_label_1
_geom_bond_atom_site_label_2
_ccdc_geom_bond_type
C35   H20   S    
C14   C40   S    
C4    C6    S    
C7    H1    S    
C1    O6    A    
C22   C23   A    
C21   C22   A    
C32   H19   S    
C9    C39   S    
C5    C12   S    
C17   C18   A    
C7    C8    A    
O19   V4    S    
C16   H7    S    
O5    C3    A    
C19   C20   S    
C35   H21   S    
O15   C39   A    
V2    O10   S    
C31   C32   A    
C6    C7    A    
O12   V3    S    
C32   C33   A    
O8    V2    S    
C21   C28   S    
O17   V4    S    
C9    C10   A    
O1    V2    S    
C3    C17   S    
O7    V1    S    
C36   H23   S    
C27   H15   S    
C24   C25   A    
C35   C36   S    
C30   C31   A    
O9    C4    A    
O12   C37   A    
C25   C38   S    
C2    C30   S    
C27   H14   S    
C25   C26   A    
C20   H10   S    
C1    C22   S    
C23   C24   A    
C5    C10   A    
C26   C27   S    
C10   C11   S    
C19   H9    S    
O4    C2    A    
C28   H17   S    
V4    O20   S    
C20   H11   S    
C29   C30   A    
O18   V4    S    
C11   F1    S    
C13   C18   A    
C31   H18   S    
C15   C16   A    
O2    C1    A    
C18   C19   S    
C29   C34   A    
C14   C15   A    
O15   V3    S    
C5    C6    A    
O19   C40   A    
V3    O20   S    
O3    C4    A    
C21   C26   A    
C24   H13   S    
C34   C35   S    
O6    V2    S    
O9    V2    S    
O13   V3    S    
O2    V1    S    
C27   C28   S    
C28   H16   S    
C23   H12   S    
O1    C2    A    
O14   C38   A    
O17   V3    S    
O14   V3    S    
O5    V1    S    
O11   V4    S    
O8    C3    A    
C11   H3    S    
C12   H4    S    
C36   H22   S    
C15   H6    S    
C8    C9    A    
C11   C12   S    
O4    V1    S    
O3    V1    S    
V1    O10   S    
C33   C34   A    
C19   H8    S    
C13   C14   A    
C33   C37   S    
C13   C20   S    
C16   C17   A    
O13   C40   A    
O7    V2    S    
C29   C36   S    
C12   H5    S    
O18   C39   A    
O11   C38   A    
C8    H2    S    
C37   O16   A    
O16   V4    S    
