data_mof_unit_8751.cif
_audit_creation_date              2012-10-26T18:50:45-0400
_audit_creation_method            fapswitch 2.2
_symmetry_space_group_name_H-M    P1
_symmetry_Int_Tables_number       1
_space_group_crystal_system       triclinic
_cell_length_a                    12.394094
_cell_length_b                    13.159943
_cell_length_c                    17.167648
_cell_angle_alpha                 106.515043
_cell_angle_beta                  74.62663
_cell_angle_gamma                 117.076697
_cell_volume                      2359.97917627

loop_
_atom_site_label
_atom_site_type_symbol
_atom_type_description
_atom_site_fract_x
_atom_site_fract_y
_atom_site_fract_z
_atom_type_partial_charge
C1    C     C_R   0.144120 0.713135 0.503693 0.538833
C2    C     C_R   0.999927 0.466696 0.260290 0.001831
C3    C     C_R   0.728951 0.953309 0.426676 0.022902
C4    C     C_R   0.987083 0.503200 0.652629 0.520088
C5    C     C_R   0.771953 0.159280 0.478542 -0.057654
C6    C     C_R   0.178311 0.920458 0.536928 -0.111323
C7    C     C_R   0.255725 0.037749 0.544631 -0.122063
C8    C     C_R   0.381609 0.072722 0.519354 -0.115439
C9    C     C_R   0.432499 0.989858 0.481170 0.047430
C10   C     C_R   0.350569 0.871672 0.462569 0.062801
C11   C     C_R   0.561288 0.018671 0.464443 0.022354
C12   C     C_R   0.893194 0.530780 0.801043 -0.129967
C13   C     C_R   0.604927 0.930265 0.427730 0.017534
C14   C     C_R   0.521862 0.819578 0.395371 -0.103596
C15   C     C_R   0.397339 0.792333 0.409924 -0.069106
C16   C     C_R   0.855413 0.284975 0.490206 0.546338
C17   C     C_R   0.647046 0.131947 0.486410 -0.151020
C18   C     C_R   0.812390 0.068234 0.455190 0.016733
C19   C     C_R   0.224892 0.836025 0.498596 0.012931
C20   C     C_R   0.612789 0.618839 0.657398 -0.137775
C21   C     C_R   0.264807 0.366466 0.378299 0.155940
C22   C     C_R   0.368801 0.343085 0.351565 -0.151278
C23   C     C_R   0.869641 0.394830 0.155199 0.030469
C24   C     C_R   0.459081 0.388654 0.399546 -0.138933
C25   C     C_R   0.449022 0.460860 0.476024 -0.024923
C26   C     C_R   0.341701 0.486155 0.503329 0.164336
C27   C     C_R   0.544245 0.510676 0.525526 -0.002497
C28   C     C_R   0.009355 0.491323 0.347285 0.547569
C29   C     C_R   0.521117 0.565096 0.607696 0.035002
C30   C     C_R   0.410224 0.574346 0.638152 -0.163632
C31   C     C_R   0.334813 0.557334 0.583943 0.032032
C32   C     C_R   0.662331 0.509328 0.497278 0.067110
C33   C     C_R   0.727645 0.618551 0.625317 0.062477
C34   C     C_R   0.883543 0.422616 0.237881 -0.080347
C35   C     C_R   0.981689 0.504206 0.739226 0.007206
C36   C     C_R   0.066750 0.477818 0.760493 -0.143388
C37   C     C_R   0.062241 0.475891 0.841552 -0.095472
C38   C     C_R   0.971078 0.497887 0.902595 0.034821
C39   C     C_R   0.888532 0.528312 0.882668 -0.122967
C40   C     C_2   0.939023 0.092627 0.463232 0.336294
C41   C     C_2   0.767673 0.855454 0.401920 0.287464
C42   C     C_2   0.178602 0.314403 0.318837 0.303365
C43   C     C_2   0.306343 0.659321 0.604033 0.297711
C44   C     C_R   0.958490 0.290101 0.949989 0.043083
C45   C     C_R   0.103636 0.481850 0.199604 -0.134677
C46   C     C_R   0.040052 0.240486 0.944943 -0.092218
C47   C     C_R   0.030469 0.136286 0.890206 -0.112255
C48   C     C_R   0.938893 0.080057 0.840588 -0.103554
C49   C     C_R   0.856193 0.127558 0.845961 -0.109815
C50   C     C_R   0.865329 0.231648 0.900623 -0.084895
C51   C     C_2   0.745274 0.348028 0.133109 0.215917
C52   C     C_R   0.091554 0.457017 0.117185 -0.126337
C53   C     C_R   0.975440 0.413416 0.094558 -0.002397
C54   C     C_2   0.963016 0.490343 0.987622 -0.154181
C55   C     C_2   0.968495 0.401316 0.008218 -0.046914
Cu1   Cu    Cu3+1 0.900140 0.524980 0.518800 0.952894
Cu2   Cu    Cu3+1 0.099860 0.475020 0.481200 0.980053
H1    H     H_    0.136605 0.457612 0.714536 0.121182
H2    H     H_    0.803108 0.408505 0.285141 0.158131
H3    H     H_    0.397325 0.621285 0.700788 0.098141
H4    H     H_    0.596367 0.662427 0.720332 0.089059
H5    H     H_    0.686674 0.465691 0.436574 0.113203
H6    H     H_    0.534735 0.363291 0.375774 0.135030
H7    H     H_    0.379779 0.287449 0.292538 0.140846
H8    H     H_    0.193918 0.515450 0.216059 0.110658
H9    H     H_    0.818964 0.547319 0.929880 0.108291
H10   H     H_    0.827362 0.552440 0.786324 0.119130
H11   H     H_    0.956208 0.562919 0.035416 0.127789
H12   H     H_    0.173212 0.474115 0.070935 0.110008
H13   H     H_    0.129221 0.455980 0.856537 0.118692
H14   H     H_    0.980117 0.154688 0.515446 0.101610
H15   H     H_    0.754235 0.798274 0.342430 0.093355
H16   H     H_    0.211246 0.334163 0.257373 0.063524
H17   H     H_    0.230573 0.665048 0.651337 0.099030
H18   H     H_    0.112171 0.282763 0.982331 0.105699
H19   H     H_    0.094257 0.099180 0.886181 0.111608
H20   H     H_    0.931742 0.999475 0.798208 0.108281
H21   H     H_    0.784723 0.083545 0.807909 0.114924
H22   H     H_    0.799434 0.266361 0.904629 0.112068
H23   H     H_    0.551165 0.751606 0.360288 0.094201
H24   H     H_    0.732670 0.323443 0.069211 0.112965
H25   H     H_    0.618163 0.201865 0.509515 0.135061
H26   H     H_    0.082164 0.896022 0.562906 0.150702
H27   H     H_    0.435432 0.165122 0.531123 0.102367
H28   H     H_    0.218630 0.102156 0.574010 0.125500
H29   H     H_    0.338285 0.706960 0.381312 0.134896
H30   H     H_    0.797747 0.658153 0.664165 0.117334
N1    N     N_R   0.749710 0.562810 0.547300 -0.223916
N2    N     N_R   0.249640 0.437820 0.453210 -0.247974
O1    O     O_R   0.025490 0.682370 0.523640 -0.493926
O2    O     O_2   0.811810 0.836338 0.449007 -0.468481
O3    O     O_2   0.074390 0.242900 0.334632 -0.457385
O4    O     O_2   0.379420 0.746181 0.576404 -0.506335
O5    O     O_2   0.654802 0.336020 0.186212 -0.538992
O6    O     O_R   0.194150 0.640180 0.491890 -0.491865
O7    O     O_R   0.905900 0.523560 0.631310 -0.515325
O8    O     O_R   0.074570 0.481370 0.599560 -0.538395
O9    O     O_R   0.805850 0.359820 0.508110 -0.512996
O10   O     O_R   0.974510 0.317630 0.476360 -0.456507
O11   O     O_R   0.925430 0.518630 0.400440 -0.503610
O12   O     O_R   0.094100 0.476440 0.368690 -0.507116
O13   O     O_2   0.999249 0.045330 0.411465 -0.445357

loop_
_geom_bond_atom_site_label_1
_geom_bond_atom_site_label_2
_ccdc_geom_bond_type
C1    O1    A    
C40   H14   S    
C27   C29   A    
C35   C36   A    
Cu1   O9    S    
C16   O9    A    
C50   H22   S    
C7    C8    A    
C21   N2    A    
C49   H21   S    
C26   N2    A    
C6    C19   A    
C29   C30   A    
Cu2   N2    S    
C36   C37   A    
C33   N1    A    
C47   H19   S    
C36   H1    S    
C10   C15   A    
C30   C31   A    
Cu1   N1    S    
C5    C17   A    
C32   N1    A    
Cu1   Cu2   S    
C3    C18   A    
C17   H25   S    
C46   C47   A    
C20   H4    S    
C18   C40   S    
C5    C16   S    
C52   H12   S    
C13   C14   A    
C4    O7    A    
C28   O12   A    
C3    C41   S    
C8    C9    A    
C30   H3    S    
C14   H23   S    
C9    C10   A    
C51   H24   S    
C3    C13   A    
C28   O11   A    
C43   H17   S    
Cu1   O1    S    
C4    C35   S    
C26   C31   A    
C21   C22   A    
C46   H18   S    
C44   C46   A    
C23   C53   A    
C20   C29   A    
C53   C55   S    
C2    C45   A    
C38   C39   A    
C12   H10   S    
C1    C19   S    
C24   C25   A    
C5    C18   A    
C45   C52   A    
C25   C26   A    
C22   H7    S    
C48   H20   S    
C37   C38   A    
C23   C51   S    
C47   C48   A    
C38   C54   S    
C10   C19   A    
C1    O6    A    
C23   C34   A    
Cu2   O8    S    
C12   C35   A    
C9    C11   A    
C31   C43   S    
C15   H29   S    
C20   C33   A    
C48   C49   A    
C41   O2    D    
C24   H6    S    
C41   H15   S    
C45   H8    S    
C34   H2    S    
C39   H9    S    
C22   C24   A    
Cu1   O11   S    
C52   C53   A    
C44   C50   A    
Cu1   O7    S    
C54   C55   D    
C11   C17   A    
C42   H16   S    
C6    H26   S    
C27   C32   A    
C8    H27   S    
C16   O10   A    
C6    C7    A    
C25   C27   A    
Cu2   O12   S    
C37   H13   S    
C12   C39   A    
C33   H30   S    
C32   H5    S    
C11   C13   A    
C44   C55   S    
C2    C34   A    
C7    H28   S    
C43   O4    D    
C42   O3    D    
C51   O5    D    
C40   O13   D    
C21   C42   S    
C54   H11   S    
C49   C50   A    
Cu2   O6    S    
C14   C15   A    
C2    C28   S    
C4    O8    A    
Cu2   O10   S    
