data_mof_unit_10692.cif
_audit_creation_date              2012-12-11T20:55:36-0500
_audit_creation_method            fapswitch 2.2
_symmetry_space_group_name_H-M    P1
_symmetry_Int_Tables_number       1
_space_group_crystal_system       triclinic
_cell_length_a                    8.299712
_cell_length_b                    19.115891
_cell_length_c                    22.889584
_cell_angle_alpha                 100.609567
_cell_angle_beta                  90.362054
_cell_angle_gamma                 92.35126
_cell_volume                      3566.13452051

loop_
_atom_site_label
_atom_site_type_symbol
_atom_type_description
_atom_site_fract_x
_atom_site_fract_y
_atom_site_fract_z
_atom_type_partial_charge
Ba1   Ba    Ba6+2 0.157290 0.533910 0.474710 1.653053
Ba2   Ba    Ba6+2 0.652900 0.466090 0.525240 1.653254
C1    C     C_3   0.353387 0.689274 0.261955 -0.280471
C2    C     C_R   0.985448 0.272721 0.479485 0.062811
C3    C     C_R   0.141125 0.183615 0.542872 -0.157697
C4    C     C_3   0.966346 0.723989 0.341960 0.294877
C5    C     C_R   0.205068 0.252482 0.542256 -0.012741
C6    C     C_R   0.625930 0.827069 0.482540 -0.121445
C7    C     C_R   0.560616 0.758647 0.485465 0.060127
C8    C     C_R   0.863693 0.803133 0.534275 -0.121630
C9    C     C_R   0.810098 0.731400 0.529772 0.093550
C10   C     C_R   0.015905 0.152517 0.502235 0.004322
C11   C     C_R   0.116743 0.298650 0.515965 -0.252018
C12   C     C_3   0.363684 0.674967 0.325221 0.375032
C13   C     C_R   0.787536 0.850053 0.501736 0.002058
C14   C     C_R   0.653972 0.711500 0.509362 -0.204173
C15   C     C_R   0.249094 0.038866 0.505962 -0.078781
C16   C     C_3   0.018071 0.793545 0.321554 -0.394274
C17   C     C_R   0.358430 0.996139 0.526950 -0.063296
C18   C     C_R   0.307301 0.929900 0.536781 -0.070484
C19   C     C_R   0.150506 0.904946 0.521677 -0.088133
C20   C     C_R   0.030139 0.948995 0.507156 0.027747
C21   C     C_R   0.081391 0.021111 0.503432 0.037210
C22   C     C_R   0.868050 0.922187 0.489994 -0.022908
C23   C     C_3   0.478658 0.685709 0.630065 0.303317
C24   C     C_R   0.781937 0.967896 0.459301 0.022510
C25   C     C_R   0.811342 0.043176 0.473275 0.029727
C26   C     C_R   0.966854 0.072258 0.494471 -0.012845
C27   C     C_R   0.676179 0.941585 0.411020 -0.090423
C28   C     C_3   0.816834 0.371530 0.341897 0.300789
C29   C     C_R   0.568628 0.986272 0.390742 -0.051420
C30   C     C_R   0.566992 0.057507 0.418188 -0.074605
C31   C     C_R   0.685310 0.085391 0.460639 -0.105873
C32   C     C_R   0.648306 0.518740 0.333949 -0.308984
C33   C     C_R   0.383854 0.554866 0.946269 -0.024814
C34   C     C_3   0.474678 0.765510 0.652949 -0.386855
C35   C     C_R   0.336440 0.550863 0.886399 0.585594
C36   C     C_R   0.250946 0.427881 0.879209 0.582830
C37   C     C_R   0.299211 0.429842 0.938810 -0.022255
C38   C     C_R   0.365813 0.493829 0.972464 -0.052141
C39   C     C_R   0.448896 0.618556 0.980557 -0.076261
C40   C     C_3   0.810628 0.350481 0.274472 -0.357277
C41   C     C_R   0.495300 0.621660 0.039723 -0.074857
C42   C     C_R   0.479021 0.561059 0.066386 -0.019513
C43   C     C_R   0.414434 0.496857 0.032597 -0.052762
C44   C     C_R   0.283287 0.369241 0.965475 -0.076727
C45   C     C_3   0.893444 0.282038 0.647652 0.382546
C46   C     C_R   0.333104 0.371998 0.024327 -0.074063
C47   C     C_R   0.398891 0.435639 0.058599 -0.024775
C48   C     C_R   0.450110 0.439318 0.118145 0.590760
C49   C     C_R   0.525392 0.563496 0.126151 0.576699
C50   C     C_2   0.072794 0.469694 0.772112 -0.074168
C51   C     C_3   0.026791 0.477247 0.709355 -0.060748
C52   C     C_3   0.005292 0.627208 0.657236 0.292738
C53   C     C_1   0.307650 0.504487 0.692807 0.027290
C54   C     C_2   0.351868 0.502130 0.748131 -0.084754
C55   C     C_2   0.227688 0.484734 0.791451 0.214230
C56   C     C_3   0.885021 0.209483 0.666097 -0.361501
C57   C     C_R   0.710400 0.537417 0.234702 -0.083657
C58   C     C_R   0.753815 0.543701 0.294684 0.011907
C59   C     C_R   0.501688 0.484840 0.313812 0.016888
C60   C     C_R   0.454842 0.479899 0.254000 -0.102028
C61   C     C_R   0.558354 0.506892 0.213708 0.196399
C62   C     C_2   0.172861 0.471759 0.669974 -0.285422
C63   C     C_3   0.045904 0.654868 0.722668 -0.357176
C64   C     C_3   0.320647 0.317837 0.394768 0.319717
C65   C     C_3   0.312989 0.237001 0.377394 -0.385267
C66   C     C_2   0.792972 0.723694 0.355952 0.794934
C67   C     C_3   0.375909 0.285300 0.676176 0.310897
C68   C     C_3   0.446240 0.278041 0.736110 -0.343172
C69   C     C_R   0.947897 0.198849 0.467371 -0.137290
H1    H     H_    0.256532 0.643841 0.334738 0.093182
H2    H     H_    0.199898 0.336223 0.408323 -0.001891
H3    H     H_    0.406920 0.333113 0.432609 0.083153
H4    H     H_    0.335943 0.637740 0.230668 0.101320
H5    H     H_    0.220782 0.219648 0.341740 0.125972
H6    H     H_    0.280800 0.212597 0.416330 0.062466
H7    H     H_    0.432352 0.218078 0.361226 0.127622
H8    H     H_    0.466078 0.640508 0.325647 -0.021124
H9    H     H_    0.465891 0.716735 0.250567 0.188624
H10   H     H_    0.605693 0.671854 0.620706 0.022008
H11   H     H_    0.404235 0.672923 0.588648 0.044089
H12   H     H_    0.730152 0.302242 0.261014 0.137569
H13   H     H_    0.548412 0.780413 0.694367 0.136612
H14   H     H_    0.524230 0.795003 0.619124 0.047010
H15   H     H_    0.348465 0.780870 0.662278 0.121310
H16   H     H_    0.250924 0.722051 0.255435 0.116520
H17   H     H_    0.964863 0.839867 0.350460 0.081547
H18   H     H_    0.809651 0.279854 0.609176 0.089383
H19   H     H_    0.018621 0.294007 0.634921 -0.077149
H20   H     H_    0.762217 0.198220 0.681978 0.142309
H21   H     H_    0.911587 0.167152 0.627766 0.069091
H22   H     H_    0.974036 0.208516 0.702341 0.119404
H23   H     H_    0.763639 0.394093 0.254351 0.070103
H24   H     H_    0.263082 0.251417 0.668322 -0.017556
H25   H     H_    0.348670 0.342178 0.677912 0.017317
H26   H     H_    0.355531 0.292256 0.771130 0.132432
H27   H     H_    0.554735 0.314191 0.746871 0.158530
H28   H     H_    0.035569 0.721889 0.382928 0.076111
H29   H     H_    0.479942 0.222246 0.735302 0.110588
H30   H     H_    0.868136 0.178986 0.430118 0.071316
H31   H     H_    0.196880 0.153776 0.572690 0.070738
H32   H     H_    0.545207 0.860563 0.465072 0.070887
H33   H     H_    0.956895 0.821421 0.566938 0.048412
H34   H     H_    0.933560 0.339110 0.257344 0.130997
H35   H     H_    0.158192 0.353723 0.519823 0.061508
H36   H     H_    0.609794 0.657065 0.507515 0.058345
H37   H     H_    0.298348 0.085895 0.491708 0.074797
H38   H     H_    0.484140 0.013204 0.533402 0.081490
H39   H     H_    0.392433 0.895281 0.551505 0.058108
H40   H     H_    0.133087 0.849668 0.516736 0.125801
H41   H     H_    0.676159 0.886455 0.388923 0.118761
H42   H     H_    0.482970 0.965073 0.355433 0.084301
H43   H     H_    0.476797 0.091519 0.405644 0.073630
H44   H     H_    0.679281 0.139935 0.482314 0.126028
H45   H     H_    0.116486 0.610064 0.633517 0.028390
H46   H     H_    0.319279 0.324020 0.043001 0.124244
H47   H     H_    0.232923 0.319233 0.940774 0.121660
H48   H     H_    0.544522 0.671834 0.064525 0.125182
H49   H     H_    0.794792 0.556097 0.204521 0.117575
H50   H     H_    0.464050 0.666390 0.961748 0.124804
H51   H     H_    0.150382 0.803115 0.325506 0.136217
H52   H     H_    0.475402 0.515712 0.763043 0.111698
H53   H     H_    0.979315 0.459728 0.802890 0.096837
H54   H     H_    0.339002 0.454802 0.238896 0.127752
H55   H     H_    0.684122 0.522579 0.380006 0.091651
H56   H     H_    0.916406 0.581536 0.653025 0.040036
H57   H     H_    0.166825 0.443526 0.624224 0.062984
H58   H     H_    0.978720 0.792029 0.274840 0.157109
H59   H     H_    0.693562 0.382559 0.358071 0.012517
H60   H     H_    0.897575 0.419889 0.354281 0.059036
H61   H     H_    0.641443 0.657722 0.389911 0.269977
H62   H     H_    0.123347 0.704438 0.727440 0.149290
H63   H     H_    0.112006 0.615502 0.742161 0.081715
H64   H     H_    0.933318 0.666628 0.747899 0.115636
N1    N     N_R   0.271928 0.487727 0.853434 -0.428249
N2    N     N_R   0.510229 0.503119 0.151781 -0.425728
O1    O     O_2   0.108070 0.674980 0.540650 -0.467526
O2    O     O_2   0.692875 0.447063 0.697477 -0.478413
O3    O     O_3   0.849085 0.333525 0.695903 -0.589698
O4    O     O_3   0.861930 0.586170 0.535430 -0.479066
O5    O     O_3   0.451480 0.461630 0.428900 -0.494968
O6    O     O_2   0.599240 0.538720 0.642170 -0.456739
O7    O     O_3   0.416635 0.649523 0.673517 -0.633206
O8    O     O_2   0.530785 0.245012 0.517032 -0.500784
O9    O     O_3   0.487776 0.262207 0.631773 -0.585681
O10   O     O_2   0.350976 0.603853 0.863715 -0.593223
O11   O     O_2   0.191256 0.372797 0.850124 -0.606385
O12   O     O_3   0.370006 0.346906 0.345639 -0.623663
O13   O     O_2   0.443302 0.385391 0.139744 -0.595591
O14   O     O_2   0.578338 0.619745 0.155530 -0.606315
O15   O     O_3   0.366390 0.628250 0.433820 -0.500975
O16   O     O_2   0.220170 0.747075 0.466449 -0.517275
O17   O     O_3   0.938459 0.682643 0.634737 -0.643224
O18   O     O_3   0.382116 0.739113 0.367248 -0.590711
O19   O     O_2   0.211060 0.461230 0.357810 -0.456570
O20   O     O_3   0.958150 0.591500 0.402390 -0.445934
O21   O     O_2   0.080894 0.532926 0.295555 -0.510464
O22   O     O_2   0.694390 0.749358 0.327176 -0.616365
O23   O     O_3   0.996522 0.663808 0.298187 -0.635954
O24   O     O_R   0.747025 0.684531 0.398324 -0.801466
O25   O     O_2   0.702240 0.324970 0.459330 -0.464301
O26   O     O_3   0.948380 0.413820 0.464520 -0.493207
O27   O     O_3   0.443920 0.371740 0.566130 -0.462172
O28   O     O_3   0.875517 0.314809 0.365208 -0.632275
O29   O     O_3   0.358830 0.538360 0.571050 -0.482785
O30   O     O_3   0.852160 0.408490 0.597560 -0.487220
P1    P     P_3+3 0.933470 0.664380 0.557030 0.999964
P2    P     P_3+3 0.383600 0.440030 0.365120 0.989448
P3    P     P_3+3 0.949709 0.582948 0.323621 0.957422
P4    P     P_3+3 0.876840 0.335610 0.442930 0.979905
P5    P     P_3+3 0.855962 0.417238 0.675108 0.978621
P6    P     P_3+3 0.380798 0.720353 0.439968 0.942562
P7    P     P_3+3 0.416929 0.557731 0.646257 0.960038
P8    P     P_3+3 0.414753 0.280821 0.564817 0.938064

loop_
_geom_bond_atom_site_label_1
_geom_bond_atom_site_label_2
_ccdc_geom_bond_type
O28   P4    S    
C23   H10   S    
C53   C54   D    
C57   H49   S    
C67   O9    S    
C2    P4    S    
C12   O18   S    
C45   H18   S    
C27   H41   S    
C17   C18   A    
C65   H6    S    
C61   N2    S    
C67   H25   S    
Ba2   O25   S    
C48   N2    Am   
C52   C63   S    
C66   O24   S    
C25   C31   A    
C24   C25   A    
C15   C21   A    
O27   P8    S    
O12   P2    S    
C33   C35   A    
C7    C14   A    
C22   C24   A    
C8    C13   A    
C36   C37   A    
C51   C62   S    
C28   H60   S    
C64   H3    S    
O16   P6    D    
O19   P2    D    
C54   C55   S    
C44   H47   S    
Ba1   O15   S    
O1    P1    D    
Ba1   Ba2   S    
C39   H50   S    
C2    C11   A    
H61   O24   S    
Ba1   O5    S    
C14   H36   S    
O25   P4    D    
O8    P8    D    
C6    C7    A    
C62   H57   S    
C5    P8    S    
C45   O3    S    
C55   N1    S    
C7    P6    S    
C36   N1    Am   
C66   O22   D    
C1    H4    S    
C56   H20   S    
Ba2   O29   S    
C63   H63   S    
C51   P5    S    
C68   H26   S    
Ba2   P4    S    
O18   P6    S    
C4    C66   S    
C64   C65   S    
C69   H30   S    
C49   O14   D    
C57   C58   A    
O3    P5    S    
C19   C20   A    
O9    P8    S    
C32   C58   A    
Ba2   O6    S    
C39   C41   A    
O17   P1    S    
C59   C60   A    
C65   H7    S    
C1    H9    S    
C19   H40   S    
C68   H29   S    
C17   H38   S    
C38   C43   A    
C4    C16   S    
C44   C46   A    
O29   P7    S    
C31   H44   S    
C40   H12   S    
C46   H46   S    
C1    H16   S    
C54   H52   S    
C64   O12   S    
C8    C9    A    
C15   H37   S    
Ba2   O27   S    
C37   C38   A    
C3    C5    A    
O21   P3    D    
Ba1   P2    S    
Ba1   P1    S    
C34   H15   S    
C28   H59   S    
C64   H2    S    
C32   C59   A    
C16   H17   S    
C52   H45   S    
Ba1   O19   S    
C41   C42   A    
C53   P7    S    
C60   C61   A    
O20   P3    S    
C9    C14   A    
C48   O13   D    
C29   C30   A    
C43   C47   A    
C32   H55   S    
C53   C62   D    
C35   N1    Am   
O2    P5    D    
C12   H8    S    
C35   O10   D    
C36   O11   D    
C63   H64   S    
C1    C12   S    
C16   H51   S    
O5    P2    S    
C18   H39   S    
O15   P6    S    
C49   N2    Am   
C42   C49   A    
C13   C22   S    
C10   C69   A    
C10   C26   S    
C47   C48   A    
C6    C13   A    
C37   C44   A    
C9    P1    S    
Ba2   O5    S    
C45   H19   S    
C20   C22   A    
C23   O7    S    
C59   P2    S    
C21   C26   A    
O26   P4    S    
C50   C51   S    
C3    H31   S    
C46   C47   A    
O4    P1    S    
C40   H23   S    
C12   H1    S    
C56   H22   S    
C42   C43   A    
C28   O28   S    
C11   H35   S    
C67   H24   S    
Ba2   O26   S    
C52   O17   S    
C60   H54   S    
C4    O23   S    
O30   P5    S    
C34   H14   S    
C52   H56   S    
C57   C61   A    
C58   P3    S    
C30   C31   A    
C8    H33   S    
C33   C38   A    
C27   C29   A    
C4    H28   S    
C45   C56   S    
C50   H53   S    
C23   H11   S    
Ba1   O29   S    
C34   H13   S    
Ba1   O20   S    
C15   C17   A    
C67   C68   S    
C33   C39   A    
C6    H32   S    
Ba1   O4    S    
C50   C55   D    
C23   C34   S    
C5    C11   A    
C18   C19   A    
Ba1   O26   S    
C24   C27   A    
C40   H34   S    
O7    P7    S    
C25   C26   A    
Ba2   O4    S    
O23   P3    S    
C20   C21   A    
C28   C40   S    
C16   H58   S    
C65   H5    S    
O6    P7    D    
C30   H43   S    
C56   H21   S    
Ba2   O30   S    
C29   H42   S    
C2    C69   A    
C63   H62   S    
Ba1   O1    S    
C68   H27   S    
C41   H48   S    
C3    C10   A    
