data_mof_unit_55295.cif
_audit_creation_date              2012-12-10T17:22:39-0500
_audit_creation_method            fapswitch 2.2
_symmetry_space_group_name_H-M    P1
_symmetry_Int_Tables_number       1
_space_group_crystal_system       triclinic
_cell_length_a                    10.600351
_cell_length_b                    10.773211
_cell_length_c                    9.688258
_cell_angle_alpha                 90.48983
_cell_angle_beta                  89.974875
_cell_angle_gamma                 92.613715
_cell_volume                      1105.20590475

loop_
_atom_site_label
_atom_site_type_symbol
_atom_type_description
_atom_site_fract_x
_atom_site_fract_y
_atom_site_fract_z
_atom_type_partial_charge
C1    C     C_R   0.499730 0.262997 0.499516 0.881940
C2    C     C_3   0.963862 0.614544 0.531764 -0.186990
C3    C     C_3   0.046329 0.581447 0.406344 -0.143549
C4    C     C_3   0.122960 0.500145 0.500719 0.003237
C5    C     C_R   0.277636 0.123182 0.591701 -0.172747
C6    C     C_R   0.170619 0.055565 0.637658 -0.128905
C7    C     C_R   0.169186 0.926382 0.640235 -0.112819
C8    C     C_R   0.274590 0.864051 0.596334 -0.175440
C9    C     C_R   0.384043 0.930806 0.549579 0.084938
C10   C     C_R   0.386273 0.062072 0.547565 0.065001
C11   C     C_R   0.495953 0.128521 0.498763 -0.123349
C12   C     C_R   0.259848 0.499784 0.500135 0.765598
C13   C     C_R   0.601266 0.064874 0.449799 -0.025696
C14   C     C_R   0.596099 0.936341 0.452353 -0.242575
C15   C     C_R   0.490580 0.869959 0.501739 -0.072405
C16   C     C_R   0.621127 0.699946 0.142570 0.088230
C17   C     C_R   0.609633 0.816930 0.083559 -0.222295
C18   C     C_R   0.600443 0.822609 0.940635 -0.233093
C19   C     C_R   0.605782 0.711169 0.865256 0.080464
C20   C     C_R   0.555590 0.600281 0.927436 0.071145
C21   C     C_R   0.558469 0.597924 0.075426 0.053538
C22   C     C_R   0.443789 0.405396 0.070526 0.093241
C23   C     C_R   0.495626 0.736504 0.500547 0.816821
C24   C     C_R   0.447089 0.405028 0.923789 -0.110636
C25   C     C_R   0.740386 0.500972 0.499908 0.882484
C26   C     C_3   0.037123 0.385546 0.468277 -0.114488
C27   C     C_3   0.958126 0.466783 0.373809 -0.075719
C28   C     C_3   0.877693 0.500056 0.499359 0.030631
C29   C     C_3   0.954486 0.418566 0.593727 -0.148111
C30   C     C_3   0.042772 0.533236 0.626339 -0.203415
Cu1   Cu    Cu3+1 0.499990 0.499990 0.640660 0.952264
Cu2   Cu    Cu3+1 0.500010 0.500010 0.359340 1.002243
H1    H     H_    0.677140 0.886708 0.419165 0.204197
H2    H     H_    0.623909 0.910907 0.891956 0.191778
H3    H     H_    0.402128 0.328210 0.866846 0.134045
H4    H     H_    0.070149 0.291866 0.442231 0.154839
H5    H     H_    0.913905 0.351789 0.670230 0.148673
H6    H     H_    0.080082 0.560785 0.729740 0.155402
H7    H     H_    0.932400 0.708973 0.555972 0.191649
H8    H     H_    0.086849 0.648251 0.329832 0.160540
H9    H     H_    0.273564 0.223272 0.589936 0.127727
N1    N     N_R   0.501210 0.501210 0.147910 -0.202968
N2    N     N_R   0.501250 0.501290 0.852040 -0.190371
O1    O     O_R   0.499990 0.319640 0.618810 -0.598220
O2    O     O_R   0.500000 0.319660 0.381240 -0.543445
O3    O     O_R   0.316850 0.499960 0.618770 -0.601029
O4    O     O_R   0.316860 0.499980 0.381190 -0.527506
O5    O     O_R   0.500000 0.680340 0.618760 -0.573112
O6    O     O_R   0.500010 0.680360 0.381190 -0.588679
O7    O     O_R   0.683140 0.500020 0.618810 -0.610358
O8    O     O_R   0.683150 0.500040 0.381230 -0.588709
H10   H     H_    0.922029 0.437604 0.270505 0.143834
H11   H     H_    0.085839 0.874235 0.675665 0.145271
H12   H     H_    0.269097 0.763603 0.598272 0.128953
C31   C     C_2   0.375747 0.297959 0.133489 0.408481
H13   H     H_    0.396351 0.204741 0.099590 0.028174
O9    O     O_2   0.289677 0.311637 0.214776 -0.536166
C32   C     C_2   0.746088 0.680223 0.203790 0.367880
H14   H     H_    0.790046 0.592673 0.186083 0.064740
O10   O     O_2   0.805033 0.762765 0.266400 -0.601255
H15   H     H_    0.641146 0.900428 0.139039 0.175641
C33   C     C_2   0.717343 0.707766 0.774767 0.403245
H16   H     H_    0.781539 0.632852 0.784728 0.057787
O11   O     O_2   0.743760 0.792952 0.695976 -0.594868
C34   C     C_2   0.720558 0.125730 0.397505 0.326541
H17   H     H_    0.790169 0.069923 0.347052 0.101699
O12   O     O_2   0.744914 0.236593 0.411886 -0.582645
H18   H     H_    0.088242 0.103674 0.670785 0.138691

loop_
_geom_bond_atom_site_label_1
_geom_bond_atom_site_label_2
_ccdc_geom_bond_type
C22   N1    A    
C4    C26   S    
C31   H13   S    
C25   O8    A    
Cu2   O8    S    
C22   C31   S    
C32   O10   D    
C4    C12   S    
C18   H2    S    
C9    C10   A    
C19   C20   A    
C1    O1    A    
C33   O11   D    
Cu1   Cu2   S    
C1    C11   S    
C2    C30   S    
C10   C11   A    
C15   C23   S    
C33   H16   S    
C6    H18   S    
C17   C18   A    
C9    C15   A    
C5    C10   A    
C16   C32   S    
C13   C14   A    
C27   H10   S    
C25   C28   S    
C11   C13   A    
C1    O2    A    
C26   C27   S    
C29   C30   S    
Cu1   N2    S    
C14   H1    S    
C12   O4    A    
C3    C27   S    
C28   C29   S    
C3    H8    S    
C2    C3    S    
C6    C7    A    
Cu1   O5    S    
C31   O9    D    
Cu2   N1    S    
C5    C6    A    
C13   C34   S    
Cu2   O4    S    
C22   C24   A    
Cu2   O6    S    
C23   O6    A    
C24   H3    S    
C16   C17   A    
Cu1   O1    S    
C7    H11   S    
C19   C33   S    
C29   H5    S    
C21   N1    A    
C7    C8    A    
C20   N2    A    
C20   C21   A    
C30   H6    S    
C26   C29   S    
C12   O3    A    
C34   H17   S    
Cu2   O2    S    
C8    H12   S    
C27   C28   S    
C24   N2    A    
C5    H9    S    
C14   C15   A    
C18   C19   A    
C2    C28   S    
C23   O5    A    
Cu1   O7    S    
C17   H15   S    
C32   H14   S    
C25   O7    A    
C16   C21   A    
C2    H7    S    
C4    C30   S    
C3    C4    S    
C26   H4    S    
C8    C9    A    
C34   O12   D    
Cu1   O3    S    
