data_mof_unit_57445.cif
_audit_creation_date              2012-12-10T17:46:13-0500
_audit_creation_method            fapswitch 2.2
_symmetry_space_group_name_H-M    P1
_symmetry_Int_Tables_number       1
_space_group_crystal_system       triclinic
_cell_length_a                    14.144632
_cell_length_b                    10.711489
_cell_length_c                    9.961963
_cell_angle_alpha                 91.411917
_cell_angle_beta                  90.560454
_cell_angle_gamma                 93.91752
_cell_volume                      1505.25439627

loop_
_atom_site_label
_atom_site_type_symbol
_atom_type_description
_atom_site_fract_x
_atom_site_fract_y
_atom_site_fract_z
_atom_type_partial_charge
C1    C     C_R   0.508445 0.261294 0.498376 0.901618
C2    C     C_R   0.495610 0.058005 0.380477 0.509569
C3    C     C_R   0.485466 0.931129 0.390940 -0.322325
C4    C     C_R   0.329509 0.502050 0.499698 0.910299
C5    C     C_R   0.521034 0.873706 0.502440 -0.164604
C6    C     C_R   0.372887 0.316661 0.123001 0.534524
C7    C     C_R   0.327542 0.222368 0.037701 -0.344232
C8    C     C_R   0.332428 0.226579 0.901066 0.451805
C9    C     C_R   0.382630 0.327063 0.845481 -0.267475
C10   C     C_R   0.441136 0.413493 0.922266 0.040107
C11   C     C_R   0.439279 0.411270 0.066923 0.027903
C12   C     C_1   0.772241 0.501889 0.501752 -0.205650
C13   C     C_R   0.556746 0.582150 0.074488 -0.100764
C14   C     C_R   0.556704 0.581993 0.932026 -0.086898
C15   C     C_R   0.506739 0.740028 0.501622 0.886482
C16   C     C_R   0.670678 0.500963 0.500587 0.848794
C17   C     C_1   0.228073 0.504347 0.499236 -0.213984
C18   C     C_1   0.142823 0.504974 0.499575 -0.010416
C19   C     C_1   0.042888 0.504712 0.500463 0.010315
C20   C     C_1   0.957566 0.504006 0.501272 0.005667
C21   C     C_1   0.857580 0.502874 0.501880 -0.016283
C22   C     C_3   0.540775 0.101473 0.168359 -0.248605
C23   C     C_R   0.631142 0.147178 0.697477 -0.243480
C24   C     C_3   0.333756 0.081739 0.726576 -0.267762
C25   C     C_3   0.802313 0.835371 0.846379 -0.334958
C26   C     C_3   0.271374 0.246986 0.298825 -0.273344
C27   C     C_R   0.679860 0.089661 0.798308 -0.236126
C28   C     C_R   0.681482 0.960008 0.799189 0.582141
C29   C     C_R   0.629319 0.887463 0.701216 -0.282112
C30   C     C_R   0.574860 0.943880 0.602417 0.038154
C31   C     C_R   0.576710 0.075499 0.599268 0.028992
C32   C     C_R   0.527685 0.130747 0.493296 -0.253202
H1    H     H_    0.640769 0.247864 0.695116 0.195604
H2    H     H_    0.404737 0.060890 0.766437 0.170744
H3    H     H_    0.340868 0.140769 0.636731 0.152463
H4    H     H_    0.297050 0.991216 0.693540 0.189467
H5    H     H_    0.373043 0.333837 0.741081 0.235186
H6    H     H_    0.603444 0.649138 0.881637 0.144725
H7    H     H_    0.843358 0.886582 0.767462 0.168133
H8    H     H_    0.772198 0.743258 0.806390 0.159113
H9    H     H_    0.852950 0.816511 0.927937 0.204395
H10   H     H_    0.277894 0.144274 0.293263 0.179124
H11   H     H_    0.209117 0.275474 0.240785 0.149134
H12   H     H_    0.719968 0.146618 0.873213 0.161030
H13   H     H_    0.259055 0.268601 0.406144 0.158366
H14   H     H_    0.634743 0.787879 0.701731 0.160008
H15   H     H_    0.449714 0.877629 0.309168 0.191265
H16   H     H_    0.603256 0.649618 0.130122 0.152075
H17   H     H_    0.285375 0.143490 0.075803 0.189792
H18   H     H_    0.553428 0.002342 0.142594 0.166155
H19   H     H_    0.607470 0.152601 0.205645 0.160776
H20   H     H_    0.519877 0.145773 0.074159 0.173126
N1    N     N_R   0.499190 0.498800 0.142780 -0.093833
N2    N     N_R   0.499160 0.498720 0.857170 -0.089525
O1    O     O_R   0.500000 0.316780 0.614690 -0.660023
O2    O     O_3   0.277839 0.138172 0.824528 -0.593054
O3    O     O_3   0.730801 0.906287 0.901143 -0.624920
O4    O     O_3   0.356612 0.312728 0.259360 -0.518954
O5    O     O_R   0.499990 0.316750 0.385360 -0.497933
O6    O     O_R   0.373720 0.500010 0.614690 -0.619646
O7    O     O_R   0.373710 0.499990 0.385360 -0.530713
O8    O     O_R   0.500010 0.683250 0.614640 -0.617146
O9    O     O_R   0.500000 0.683220 0.385310 -0.622439
O10   O     O_R   0.626290 0.500010 0.614640 -0.618121
O11   O     O_R   0.626280 0.499990 0.385310 -0.602532
O12   O     O_3   0.467187 0.109764 0.262389 -0.587566
Zn1   Zn    Zn3+2 0.500010 0.500020 0.653130 0.919529
Zn2   Zn    Zn3+2 0.499990 0.499980 0.346870 0.992045

loop_
_geom_bond_atom_site_label_1
_geom_bond_atom_site_label_2
_ccdc_geom_bond_type
C8    C9    A    
C13   H16   S    
O1    Zn1   S    
C6    C7    A    
N2    Zn1   S    
C23   C27   A    
O5    Zn2   S    
C24   O2    S    
C29   C30   A    
C9    C10   A    
C6    O4    S    
C31   C32   A    
C11   N1    A    
C29   H14   S    
C22   H18   S    
O11   Zn2   S    
C4    O6    A    
C19   C20   T    
C9    H5    S    
C2    C3    A    
C1    O1    A    
C7    C8    A    
C13   C14   A    
C25   H7    S    
C26   O4    S    
O7    Zn2   S    
C8    O2    S    
C24   H4    S    
C25   O3    S    
O8    Zn1   S    
C4    C17   S    
C27   H12   S    
C2    C32   A    
C3    H15   S    
C28   C29   A    
C14   N2    A    
C15   O8    A    
C26   H11   S    
C17   C18   T    
C13   N1    A    
C1    O5    A    
C25   H8    S    
C30   C31   A    
C10   N2    A    
C5    C15   S    
C24   H3    S    
C14   H6    S    
C10   C11   A    
C12   C21   T    
O10   Zn1   S    
C3    C5    A    
C27   C28   A    
C20   C21   S    
C7    H17   S    
C22   H20   S    
C18   C19   S    
C5    C30   A    
C25   H9    S    
C6    C11   A    
C26   H10   S    
N1    Zn2   S    
C15   O9    A    
O9    Zn2   S    
C22   O12   S    
C16   O11   A    
C16   O10   A    
C26   H13   S    
C23   H1    S    
C28   O3    S    
C4    O7    A    
C1    C32   S    
C24   H2    S    
C12   C16   S    
O6    Zn1   S    
C22   H19   S    
C2    O12   S    
C23   C31   A    
