data_mof_unit_42903.cif
_audit_creation_date              2013-03-05T15:44:03-0500
_audit_creation_method            fapswitch 2.2
_symmetry_space_group_name_H-M    P1
_symmetry_Int_Tables_number       1
_space_group_crystal_system       triclinic
_cell_length_a                    9.755073
_cell_length_b                    10.943285
_cell_length_c                    17.253771
_cell_angle_alpha                 89.851434
_cell_angle_beta                  86.471803
_cell_angle_gamma                 90.908118
_cell_volume                      1838.15024596

loop_
_atom_site_label
_atom_site_type_symbol
_atom_site_description
_atom_site_fract_x
_atom_site_fract_y
_atom_site_fract_z
_atom_type_partial_charge
O1    O     O_R   0.382960 0.678040 0.499990 -0.576767
O2    O     O_R   0.617100 0.678080 0.500010 -0.565294
C1    C     C_R   0.500910 0.734158 0.500326 0.866056
O3    O     O_R   0.369350 0.500000 0.613580 -0.622188
O4    O     O_R   0.603500 0.500040 0.613610 -0.542505
C2    C     C_R   0.482458 0.496836 0.650707 0.786689
Cu1   Cu    Cu3+1 0.361370 0.499980 0.499980 0.988173
Cu2   Cu    Cu3+1 0.638630 0.500020 0.500020 1.022709
O5    O     O_R   0.382900 0.321920 0.499990 -0.571174
O6    O     O_R   0.617040 0.321960 0.500010 -0.526533
O7    O     O_R   0.396500 0.499960 0.386390 -0.528235
O8    O     O_R   0.630650 0.500000 0.386420 -0.568399
C3    C     C_R   0.498884 0.265690 0.499944 0.927382
C4    C     C_R   0.517939 0.503954 0.350524 0.943330
C5    C     C_R   0.476233 0.484683 0.737118 -0.259742
C6    C     C_R   0.600595 0.466778 0.774516 0.425513
C7    C     C_R   0.598076 0.442584 0.854775 -0.038174
C8    C     C_R   0.476870 0.466165 0.900704 -0.134758
C9    C     C_R   0.355187 0.488418 0.864663 -0.186161
C10   C     C_R   0.351120 0.491221 0.783864 -0.052207
C11   C     C_R   0.593715 0.424689 0.140355 0.371437
C12   C     C_R   0.556886 0.408899 0.220017 -0.131336
C13   C     C_R   0.541701 0.631542 0.233001 0.362926
C14   C     C_R   0.577244 0.645718 0.153301 -0.108828
C15   C     C_R   0.587696 0.541582 0.105681 -0.090828
C16   C     C_2   0.475072 0.479538 0.986363 -0.075607
C17   C     C_2   0.570428 0.551995 0.020480 0.408342
C18   C     C_R   0.531116 0.513601 0.266164 -0.217104
H1    H     H_    0.261513 0.503310 0.900327 0.192466
C19   C     C_2   0.602649 0.065235 0.505102 0.510774
C20   C     C_2   0.496190 0.134799 0.489922 -0.380474
H2    H     H_    0.406310 0.094434 0.464965 0.137061
C21   C     C_2   0.599688 0.938790 0.478526 -0.125821
C22   C     C_2   0.502512 0.864611 0.511814 -0.520405
H3    H     H_    0.426327 0.900495 0.554148 0.155297
C23   C     C_2   0.081827 0.546264 0.447288 0.511799
N1    N     N_2   0.152990 0.501340 0.500850 -0.317746
H4    H     H_    0.105130 0.493766 0.555551 0.108743
C24   C     C_2   0.933140 0.577410 0.465361 0.409852
N2    N     N_2   0.846850 0.501370 0.500880 -0.313307
O9    O     O_3   0.726220 0.478148 0.732954 -0.544930
C25   C     C_3   0.781687 0.596235 0.746212 0.162784
H5    H     H_    0.839337 0.594841 0.799760 0.211647
H6    H     H_    0.701714 0.668184 0.752314 0.088310
C26   C     C_3   0.880021 0.633309 0.678221 -0.772933
H7    H     H_    0.821408 0.651658 0.626493 0.238288
H8    H     H_    0.937196 0.717962 0.692643 0.204100
H9    H     H_    0.954199 0.559440 0.664780 0.241848
C27   C     C_2   0.615695 0.768142 0.121706 0.427180
H10   H     H_    0.708280 0.778745 0.084360 0.100132
O10   O     O_2   0.546574 0.857680 0.137366 -0.552879
O11   O     O_3   0.715172 0.111976 0.541440 -0.525798
C28   C     C_3   0.724706 0.050250 0.612990 0.040750
H11   H     H_    0.753423 0.953322 0.603454 0.138438
H12   H     H_    0.625627 0.053173 0.648815 0.127881
C29   C     C_3   0.834646 0.111365 0.658983 -0.747401
H13   H     H_    0.802176 0.204559 0.676583 0.264549
H14   H     H_    0.849846 0.057236 0.712226 0.203802
H15   H     H_    0.933383 0.117111 0.623386 0.250871
C30   C     C_2   0.690400 0.904188 0.410111 0.475361
H16   H     H_    0.685969 0.813232 0.385789 0.152405
O12   O     O_2   0.769279 0.979380 0.378602 -0.518034
O13   O     O_3   0.145852 0.577313 0.376087 -0.588059
C31   C     C_3   0.078285 0.521507 0.314601 0.089732
H17   H     H_    0.998066 0.451711 0.333132 0.156336
H18   H     H_    0.156825 0.472776 0.277563 0.199437
C32   C     C_3   0.015186 0.618253 0.264682 -0.791354
H19   H     H_    0.093981 0.687959 0.245432 0.240388
H20   H     H_    0.974231 0.574587 0.212669 0.210207
H21   H     H_    0.929430 0.663772 0.297700 0.279191
O14   O     O_3   0.888140 0.691289 0.444574 -0.580593
C33   C     C_3   0.959528 0.783433 0.484619 0.049239
H22   H     H_    0.014657 0.750220 0.535308 0.099696
H23   H     H_    0.883049 0.848500 0.509121 0.178695
C34   C     C_3   0.060192 0.853645 0.429246 -0.712933
H24   H     H_    0.013540 0.872306 0.373454 0.279621
H25   H     H_    0.089333 0.941815 0.455926 0.217164
H26   H     H_    0.154860 0.800553 0.417811 0.244961
C35   C     C_2   0.890205 0.381363 0.519208 0.510572
H27   H     H_    0.869790 0.346644 0.577601 0.092752
O15   O     O_2   0.941557 0.314660 0.469060 -0.542164
C36   C     C_2   0.542007 0.281738 0.251725 0.405036
H28   H     H_    0.568812 0.204120 0.215224 0.133577
O16   O     O_2   0.496261 0.260718 0.317883 -0.566303
O17   O     O_3   0.527346 0.734060 0.279592 -0.598867
C37   C     C_3   0.388820 0.770811 0.281715 0.083193
H29   H     H_    0.327789 0.715149 0.325165 0.197283
H30   H     H_    0.342294 0.761382 0.224464 0.178680
C38   C     C_3   0.378850 0.904304 0.305659 -0.716837
H31   H     H_    0.451081 0.962048 0.268654 0.296342
H32   H     H_    0.272698 0.936523 0.299523 0.205543
H33   H     H_    0.403284 0.914630 0.367059 0.223281
O18   O     O_3   0.664406 0.625379 0.976477 -0.615947
C39   C     C_3   0.596643 0.721530 0.939642 0.039323
H34   H     H_    0.515085 0.763299 0.978607 0.165642
H35   H     H_    0.549285 0.688921 0.886653 0.162395
C40   C     C_3   0.700758 0.820957 0.913631 -0.794681
H36   H     H_    0.785442 0.781371 0.876361 0.244723
H37   H     H_    0.649738 0.891732 0.879818 0.205733
H38   H     H_    0.744804 0.865522 0.964293 0.247687
O19   O     O_3   0.624754 0.324043 0.094514 -0.610637
C41   C     C_3   0.765287 0.297546 0.100112 0.004713
H39   H     H_    0.793725 0.291208 0.161596 0.147821
H40   H     H_    0.831030 0.369471 0.070145 0.165837
C42   C     C_3   0.795620 0.174879 0.061916 -0.735374
H41   H     H_    0.769761 0.176688 0.000174 0.247296
H42   H     H_    0.906341 0.154363 0.064621 0.210672
H43   H     H_    0.733980 0.101380 0.092722 0.261715
C43   C     C_2   0.213939 0.503328 0.752321 0.406974
H44   H     H_    0.186265 0.452417 0.701755 0.090464
O20   O     O_2   0.127143 0.567397 0.785161 -0.559300
C44   C     C_2   0.358851 0.417050 0.031782 0.377633
H45   H     H_    0.310170 0.337030 0.007696 0.090338
O21   O     O_2   0.312001 0.457480 0.093622 -0.569466
C45   C     C_2   0.721083 0.392298 0.889932 0.410519
H46   H     H_    0.722296 0.381148 0.951857 0.114358
O22   O     O_2   0.820809 0.358076 0.850019 -0.523582

loop_
_geom_bond_atom_site_label_1
_geom_bond_atom_site_label_2
_geom_bond_distance
_ccdc_geom_bond_type
O18   C39   1.420675 S    
O9    C25   1.417608 S    
C9    C10   1.397358 A    
C8    C16   1.484603 S    
C44   O21   1.221434 D    
C40   H36   1.109512 S    
Cu1   Cu2   2.704727 S    
O17   C37   1.414357 S    
Cu1   O7    1.968709 S    
C42   H42   1.110407 S    
C16   C17   1.373655 D    
O19   C41   1.414762 S    
C12   C36   1.495549 S    
C23   N1    1.290384 D    
C8    C9    1.397959 A    
C43   O20   1.221205 D    
C19   C20   1.335716 D    
O7    C4    1.302397 A    
C37   H30   1.116505 S    
C26   H9    1.108920 S    
C5    C6    1.424685 A    
C29   H13   1.110246 S    
C41   C42   1.522181 S    
C30   O12   1.221005 D    
C22   H3    1.088103 S    
O5    C3    1.296432 A    
C11   C15   1.414369 A    
C2    C5    1.493904 S    
C6    C7    1.407837 A    
C27   O10   1.219691 D    
C13   C14   1.404893 A    
C38   H32   1.110267 S    
C23   O13   1.382525 S    
C11   O19   1.384177 S    
C26   H8    1.110449 S    
C12   C18   1.413921 A    
C11   C12   1.408597 A    
C41   H39   1.115151 S    
C25   H6    1.117782 S    
O3    Cu1   1.966355 S    
C44   H45   1.085375 S    
C40   H37   1.110641 S    
C21   C22   1.339276 D    
C28   H12   1.115703 S    
C5    C10   1.423769 A    
C42   H43   1.110920 S    
C32   H19   1.109815 S    
C31   C32   1.524066 S    
C14   C15   1.407957 A    
C33   H23   1.105403 S    
C24   N2    1.299317 D    
C35   O15   1.222269 D    
C37   H29   1.103956 S    
C1    C22   1.441759 S    
C45   O22   1.221203 D    
C26   H7    1.108739 S    
O6    C3    1.298226 A    
C10   C43   1.483049 S    
C30   H16   1.082465 S    
O1    C1    1.295967 A    
C25   C26   1.519090 S    
C31   H18   1.110951 S    
C41   H40   1.113204 S    
C34   H24   1.109637 S    
N1    H4    1.029434 S    
C20   H2    1.088338 S    
Cu2   O8    1.966355 S    
C7    C8    1.409955 A    
Cu1   N1    2.032185 S    
N2    C35   1.426690 S    
C13   C18   1.410158 A    
C38   H33   1.105774 S    
C39   H35   1.106841 S    
C34   H25   1.110588 S    
O3    C2    1.310379 A    
O8    C4    1.295971 A    
C36   H28   1.084435 S    
C21   C30   1.484655 S    
C36   O16   1.219729 D    
C35   H27   1.081665 S    
C17   O18   1.396275 S    
C25   H5    1.110983 S    
C9    H1    1.084552 S    
C16   C44   1.493447 S    
C40   H38   1.108304 S    
O11   C28   1.414478 S    
C7    C45   1.489770 S    
C28   C29   1.520525 S    
C14   C27   1.479141 S    
Cu1   O5    1.963154 S    
C19   O11   1.388579 S    
C19   C21   1.459255 S    
O1    Cu1   1.956590 S    
C3    C20   1.443239 S    
C23   C24   1.509228 S    
O2    Cu2   1.963155 S    
C33   H22   1.117424 S    
C37   C38   1.522139 S    
O4    Cu2   1.968708 S    
C28   H11   1.111442 S    
C15   C17   1.494190 S    
C42   H41   1.109941 S    
C39   C40   1.524190 S    
C29   H15   1.110838 S    
C32   H21   1.108382 S    
C4    C18   1.456706 S    
C31   H17   1.116683 S    
O2    C1    1.297157 A    
O14   C33   1.421182 S    
C43   H44   1.082217 S    
C33   C34   1.524543 S    
O4    C2    1.307933 A    
C29   H14   1.110623 S    
C39   H34   1.114078 S    
C34   H26   1.106571 S    
O13   C31   1.417565 S    
Cu2   O6    1.956590 S    
C27   H10   1.081213 S    
C13   O17   1.385726 S    
C24   O14   1.381588 S    
Cu2   N2    2.031987 S    
C32   H20   1.110697 S    
C38   H31   1.109899 S    
C6    O9    1.384941 S    
C45   H46   1.075882 S    
