data_mof_unit_15279.cif
_audit_creation_date              2012-12-11T14:59:35-0500
_audit_creation_method            fapswitch 2.2
_symmetry_space_group_name_H-M    P1
_symmetry_Int_Tables_number       1
_space_group_crystal_system       triclinic
_cell_length_a                    8.317954
_cell_length_b                    15.126244
_cell_length_c                    18.80149
_cell_angle_alpha                 100.412374
_cell_angle_beta                  91.443194
_cell_angle_gamma                 99.822103
_cell_volume                      2288.70033236

loop_
_atom_site_label
_atom_site_type_symbol
_atom_type_description
_atom_site_fract_x
_atom_site_fract_y
_atom_site_fract_z
_atom_type_partial_charge
Ba1   Ba    Ba6+2 0.854120 0.540280 0.465540 1.668795
Ba2   Ba    Ba6+2 0.335710 0.459790 0.534460 1.680155
C1    C     C_3   0.683921 0.860499 0.291146 -0.329670
C2    C     C_R   0.899657 0.405129 0.094333 -0.096614
C3    C     C_R   0.803053 0.370408 0.936104 -0.068567
C4    C     C_3   0.135522 0.735854 0.271383 0.272939
C5    C     C_R   0.951794 0.426702 0.968002 -0.026908
C6    C     C_R   0.738722 0.382868 0.869911 -0.083549
C7    C     C_R   0.830024 0.436579 0.826631 -0.041719
C8    C     C_R   0.990160 0.481777 0.851871 0.018477
C9    C     C_R   0.050679 0.477641 0.923176 0.057069
C10   C     C_R   0.769837 0.440262 0.756348 0.039007
C11   C     C_R   0.874458 0.482633 0.710196 -0.234676
C12   C     C_3   0.661381 0.767328 0.312634 0.327257
C13   C     C_R   0.032246 0.530022 0.733491 0.000431
C14   C     C_R   0.089783 0.530886 0.805997 -0.052203
C15   C     C_R   0.167887 0.476545 0.066780 0.078905
C16   C     C_3   0.107337 0.767505 0.200173 -0.220826
C17   C     C_R   0.222603 0.482966 0.140903 0.000586
C18   C     C_R   0.113912 0.448915 0.191029 -0.038348
C19   C     C_R   0.954826 0.406890 0.165103 -0.025146
C20   C     C_R   0.243854 0.578355 0.834132 -0.012707
C21   C     C_R   0.303746 0.573985 0.903018 -0.048499
C22   C     C_R   0.211632 0.522200 0.948315 0.020086
C23   C     C_3   0.456089 0.311332 0.313164 0.297888
C24   C     C_R   0.273988 0.515984 0.018467 0.031124
C25   C     C_R   0.438829 0.549741 0.042773 -0.094612
C26   C     C_R   0.385526 0.524463 0.164874 -0.053352
C27   C     C_R   0.492956 0.553879 0.114145 -0.083689
C28   C     C_3   0.176389 0.778351 0.688015 0.151468
C29   C     C_R   0.435956 0.536016 0.238937 -0.004599
C30   C     C_R   0.325032 0.506141 0.288077 -0.302062
C31   C     C_R   0.166033 0.460968 0.265704 0.039811
C32   C     C_R   0.758590 0.236742 0.526748 -0.301390
C33   C     C_R   0.848997 0.179509 0.553906 0.019633
C34   C     C_3   0.440304 0.281196 0.231232 -0.355793
C35   C     C_R   0.786755 0.086038 0.545960 -0.077389
C36   C     C_R   0.633771 0.047458 0.508250 0.003080
C37   C     C_R   0.549907 0.107181 0.477583 -0.087820
C38   C     C_R   0.611638 0.200437 0.486949 0.025468
C39   C     C_R   0.408778 0.910180 0.463034 -0.126500
C40   C     C_3   0.037288 0.779604 0.739074 -0.351548
C41   C     C_R   0.346842 0.816954 0.450628 0.038701
C42   C     C_R   0.586345 0.790609 0.513405 0.047693
C43   C     C_R   0.650919 0.884276 0.524919 -0.082778
C44   C     C_R   0.565114 0.946348 0.498210 0.025496
C45   C     C_3   0.046876 0.265699 0.729882 0.269946
C46   C     C_R   0.438083 0.757149 0.473609 -0.203524
C47   C     C_3   0.942553 0.257636 0.375585 0.243811
C48   C     C_3   0.907071 0.153382 0.355163 -0.270834
C49   C     C_3   0.627083 0.725849 0.700011 0.082054
C50   C     C_3   0.661341 0.796864 0.773017 -0.225622
C51   C     C_2   0.089876 0.788868 0.817656 0.523180
C52   C     C_2   0.773751 0.121491 0.296235 0.533582
C53   C     C_2   0.637155 0.631705 0.712846 0.493056
C54   C     C_2   0.528934 0.784367 0.825164 0.621968
C55   C     C_2   0.694382 0.894189 0.762251 0.511064
C56   C     C_3   0.097356 0.249936 0.804759 -0.268976
C57   C     C_2   0.030249 0.154939 0.815089 0.634353
C58   C     C_2   0.587279 0.104464 0.738954 0.541335
C59   C     C_2   0.727543 0.286853 0.962643 0.525209
C60   C     C_2   0.141996 0.699803 0.136697 0.464605
C61   C     C_2   0.302048 0.865397 0.710942 0.317202
C62   C     C_2   0.126873 0.781202 0.612550 0.648447
C63   C     C_3   0.510017 0.220648 0.673609 0.298708
C64   C     C_3   0.463766 0.123466 0.687361 -0.235388
C65   C     C_R   0.005665 0.434099 0.042322 0.035027
H1    H     H_    0.744827 0.772366 0.360885 0.086118
H2    H     H_    0.772133 0.786463 0.801329 0.151598
H3    H     H_    0.532497 0.749491 0.326772 -0.072035
H4    H     H_    0.655420 0.911488 0.337187 0.112125
H5    H     H_    0.337682 0.328269 0.331957 0.014900
H6    H     H_    0.553308 0.372984 0.326597 0.050501
H7    H     H_    0.342246 0.220280 0.215814 0.142904
H8    H     H_    0.409260 0.336888 0.205334 0.055095
H9    H     H_    0.557711 0.263968 0.211130 0.118880
H10   H     H_    0.189040 0.833861 0.200430 0.081809
H11   H     H_    0.100482 0.337362 0.726848 0.059687
H12   H     H_    0.977956 0.838246 0.732628 0.090395
H13   H     H_    0.911402 0.256421 0.723848 -0.009409
H14   H     H_    0.053345 0.300007 0.846824 0.055481
H15   H     H_    0.457836 0.074095 0.635495 0.098458
H16   H     H_    0.054727 0.668936 0.270389 0.083417
H17   H     H_    0.341276 0.113557 0.709923 0.087020
H18   H     H_    0.829732 0.481443 0.655464 0.042692
H19   H     H_    0.621309 0.343123 0.849785 0.144093
H20   H     H_    0.320978 0.619836 0.803259 0.111465
H21   H     H_    0.620198 0.581968 0.129022 0.139087
H22   H     H_    0.769875 0.383777 0.082474 0.061097
H23   H     H_    0.951403 0.714231 0.724256 0.060418
H24   H     H_    0.422784 0.614029 0.920049 0.133726
H25   H     H_    0.530156 0.573171 0.007452 0.105771
H26   H     H_    0.329204 0.952341 0.445973 0.075163
H27   H     H_    0.765641 0.906456 0.556109 0.068487
H28   H     H_    0.439227 0.083616 0.443795 0.092275
H29   H     H_    0.387981 0.684896 0.464809 0.088920
H30   H     H_    0.807993 0.308788 0.532302 0.064296
H31   H     H_    0.978774 0.777946 0.194884 0.158219
H32   H     H_    0.132185 0.733189 0.836695 0.003737
H33   H     H_    0.791348 0.139849 0.243420 0.032785
H34   H     H_    0.830510 0.283182 0.393160 0.004250
H35   H     H_    0.626748 0.576119 0.666897 0.043943
H36   H     H_    0.404700 0.785229 0.809520 -0.069338
H37   H     H_    0.704796 0.909841 0.708322 0.094145
H38   H     H_    0.600377 0.858485 0.243629 0.136731
H39   H     H_    0.232454 0.261502 0.812120 0.125551
H40   H     H_    0.062786 0.096551 0.779494 0.037523
H41   H     H_    0.641339 0.233850 0.661936 -0.051445
H42   H     H_    0.435071 0.226378 0.625628 0.105027
H43   H     H_    0.562704 0.107684 0.795680 0.091870
H44   H     H_    0.867312 0.377592 0.199419 0.103223
H45   H     H_    0.037627 0.277630 0.420817 0.077902
H46   H     H_    0.365011 0.515601 0.344585 0.070858
H47   H     H_    0.800259 0.254741 0.995657 0.038102
H48   H     H_    0.265570 0.728529 0.277651 -0.078824
H49   H     H_    0.862326 0.045378 0.568120 0.085377
H50   H     H_    0.264681 0.685408 0.130806 0.002836
H51   H     H_    0.303702 0.907801 0.764175 0.057354
H52   H     H_    0.069249 0.837150 0.601856 -0.036961
H53   H     H_    0.872116 0.123739 0.403499 0.063168
H54   H     H_    0.019509 0.128518 0.335940 0.080513
H55   H     H_    0.510052 0.728499 0.675434 0.105207
H56   H     H_    0.812251 0.881356 0.277490 0.136768
O1    O     O_2   0.871030 0.438240 0.324420 -0.471267
O2    O     O_2   0.178079 0.182268 0.541335 -0.493990
O3    O     O_3   0.106617 0.204233 0.676172 -0.597475
O4    O     O_3   0.120590 0.445310 0.413740 -0.485231
O5    O     O_3   0.582100 0.611510 0.537680 -0.492647
O6    O     O_2   0.334040 0.276520 0.462890 -0.461616
O7    O     O_3   0.496317 0.239792 0.344302 -0.605375
O8    O     O_2   0.433168 0.451490 0.759402 -0.453288
O9    O     O_3   0.477802 0.282647 0.734326 -0.625603
O10   O     O_3   0.663040 0.605930 0.370050 -0.493628
O11   O     O_2   0.776788 0.541245 0.244566 -0.485815
O12   O     O_3   0.743710 0.747954 0.651121 -0.685492
O13   O     O_3   0.997029 0.292870 0.314960 -0.657823
O14   O     O_3   0.699337 0.702544 0.254929 -0.597293
O15   O     O_2   0.855660 0.723510 0.537160 -0.426071
O16   O     O_3   0.086340 0.654970 0.406630 -0.454457
O17   O     O_2   0.016360 0.818254 0.459853 -0.476571
O18   O     O_2   0.081275 0.858354 0.860897 -0.519138
O19   O     O_2   0.645187 0.074845 0.307069 -0.587045
O20   O     O_2   0.658587 0.616752 0.773768 -0.620216
O21   O     O_2   0.561601 0.773829 0.886425 -0.531113
O22   O     O_2   0.719103 0.956675 0.814573 -0.494303
O23   O     O_3   0.096714 0.802002 0.327536 -0.605139
O24   O     O_2   0.939910 0.142631 0.863878 -0.524786
O25   O     O_2   0.718510 0.088354 0.717737 -0.597025
O26   O     O_2   0.584531 0.251963 0.946940 -0.568469
O27   O     O_2   0.033656 0.661913 0.090837 -0.552590
O28   O     O_2   0.404942 0.889629 0.669776 -0.646994
O29   O     O_2   0.163628 0.726464 0.562520 -0.557581
O30   O     O_2   0.318670 0.561790 0.675630 -0.466272
O31   O     O_3   0.069120 0.554770 0.586270 -0.441318
O32   O     O_3   0.526680 0.394150 0.629950 -0.491484
O33   O     O_3   0.252347 0.703107 0.690308 -0.652059
O34   O     O_3   0.607620 0.388570 0.462320 -0.486796
O35   O     O_3   0.103380 0.345110 0.593380 -0.488839
P1    P     P_3+3 0.038110 0.412300 0.335300 0.973787
P2    P     P_3+3 0.679950 0.711710 0.558590 0.986745
P3    P     P_3+3 0.137852 0.772932 0.411105 1.003672
P4    P     P_3+3 0.151600 0.587780 0.664700 1.003723
P5    P     P_3+3 0.057975 0.227309 0.591108 0.951910
P6    P     P_3+3 0.643332 0.593858 0.276256 0.945296
P7    P     P_3+3 0.513076 0.273854 0.438605 0.969667
P8    P     P_3+3 0.553695 0.393535 0.721623 0.964745

loop_
_geom_bond_atom_site_label_1
_geom_bond_atom_site_label_2
_ccdc_geom_bond_type
Ba2   O32   S    
C55   O22   D    
C25   C27   A    
C12   H3    S    
C13   P4    S    
C17   C18   A    
Ba1   O5    S    
Ba2   P4    S    
C35   H49   S    
C43   C44   A    
C1    H38   S    
C5    C9    A    
C53   H35   S    
C24   C25   A    
C48   C52   S    
C62   H52   S    
C62   O29   D    
C32   C38   A    
C15   C24   A    
C26   C27   A    
C33   C35   A    
C22   C24   A    
C32   C33   A    
C28   C62   S    
C16   H10   S    
C40   C51   S    
C10   P8    S    
C36   C37   A    
C4    O23   S    
C43   H27   S    
O32   P8    S    
C13   C14   A    
O1    P1    D    
C9    C22   A    
C32   H30   S    
C5    C65   A    
Ba1   Ba2   S    
C27   H21   S    
C50   H2    S    
C34   H9    S    
O13   P1    S    
C49   O12   S    
C39   H26   S    
O8    P8    D    
C6    C7    A    
C60   H50   S    
C39   C44   A    
C4    H16   S    
C30   H46   S    
C51   O18   D    
C60   O27   D    
C7    C8    A    
C63   H41   S    
C23   H6    S    
Ba1   O16   S    
Ba2   O35   S    
Ba2   O4    S    
C28   O33   S    
C58   C64   S    
C40   H12   S    
Ba2   O31   S    
C28   C61   S    
C39   C41   A    
C52   H33   S    
O2    P5    D    
C48   H54   S    
C45   H13   S    
Ba1   O10   S    
C23   O7    S    
C19   H44   S    
C1    H56   S    
Ba1   P2    S    
C4    C16   S    
O23   P3    S    
C15   C65   A    
C53   O20   D    
C49   C50   S    
C51   H32   S    
O16   P3    S    
C8    C9    A    
C56   H14   S    
O34   P7    S    
C37   C38   A    
C3    C5    A    
C61   H51   S    
C16   C60   S    
C49   C53   S    
O17   P3    D    
C64   H17   S    
C57   H40   S    
C40   H23   S    
C1    H4    S    
C35   C36   A    
C34   H8    S    
O15   P2    D    
C64   H15   S    
C29   C30   A    
C12   O14   S    
Ba1   P1    S    
C21   C22   A    
C37   H28   S    
C3    C59   S    
C25   H25   S    
C23   H5    S    
C20   H20   S    
C10   C11   A    
C17   C26   A    
C61   O28   D    
C38   P7    S    
C1    C12   S    
C34   H7    S    
O35   P5    S    
C47   H45   S    
C18   C31   A    
C41   P3    S    
C52   O19   D    
C47   O13   S    
C63   C64   S    
Ba2   O30   S    
C11   C13   A    
C42   P2    S    
C21   H24   S    
C3    C6    A    
O3    P5    S    
O10   P6    S    
O4    P1    S    
C59   H47   S    
C63   O9    S    
C42   C43   A    
O5    P2    S    
C45   O3    S    
C2    H22   S    
C41   C46   A    
C55   H37   S    
C29   P6    S    
C14   C20   A    
O12   P2    S    
C46   H29   S    
O31   P4    S    
C26   C29   A    
Ba1   O4    S    
C54   H36   S    
O9    P8    S    
C2    C65   A    
O14   P6    S    
C58   O25   D    
C48   H53   S    
O6    P7    D    
O30   P4    D    
C30   C31   A    
Ba1   O34   S    
C56   C57   S    
Ba1   O1    S    
C8    C14   A    
C45   C56   S    
C47   H34   S    
C2    C19   A    
O7    P7    S    
C63   H42   S    
C50   C54   S    
Ba2   O34   S    
C15   C17   A    
O11   P6    D    
C6    H19   S    
Ba1   O31   S    
C7    C10   A    
C33   P5    S    
C4    H48   S    
C36   C44   S    
C58   H43   S    
C50   C55   S    
C23   C34   S    
O33   P4    S    
C54   O21   D    
C31   P1    S    
C18   C19   A    
C47   C48   S    
C11   H18   S    
Ba2   O6    S    
C49   H55   S    
C12   H1    S    
C20   C21   A    
C28   C40   S    
C16   H31   S    
C45   H11   S    
C56   H39   S    
C59   O26   D    
Ba1   O15   S    
C42   C46   A    
Ba2   O5    S    
C57   O24   D    
