data_mof_unit_64821.cif
_audit_creation_date              2012-12-10T20:23:58-0500
_audit_creation_method            fapswitch 2.2
_symmetry_space_group_name_H-M    P1
_symmetry_Int_Tables_number       1
_space_group_crystal_system       triclinic
_cell_length_a                    16.855067
_cell_length_b                    18.443341
_cell_length_c                    18.901542
_cell_angle_alpha                 90.551249
_cell_angle_beta                  89.60455
_cell_angle_gamma                 94.529028
_cell_volume                      5857.07444914

loop_
_atom_site_label
_atom_site_type_symbol
_atom_type_description
_atom_site_fract_x
_atom_site_fract_y
_atom_site_fract_z
_atom_type_partial_charge
C1    C     C_R   0.498233 0.499483 0.365106 0.928833
C2    C     C_R   0.415288 0.448509 0.268364 -0.346114
C3    C     C_R   0.479730 0.499874 0.709249 -0.154595
C4    C     C_R   0.478722 0.496578 0.290676 -0.163904
C5    C     C_R   0.403633 0.554464 0.964014 0.563383
C6    C     C_R   0.420386 0.423878 0.036138 0.564256
C7    C     C_R   0.400101 0.553088 0.037654 -0.284635
C8    C     C_R   0.416864 0.424024 0.962601 -0.282252
C9    C     C_R   0.413511 0.489389 0.073877 -0.017741
C10   C     C_R   0.413929 0.489536 0.926355 -0.016104
C11   C     C_R   0.550538 0.730055 0.543302 -0.008330
C12   C     C_R   0.498984 0.500275 0.634829 0.924248
C13   C     C_R   0.551152 0.277238 0.456726 -0.012229
C14   C     C_R   0.551220 0.806195 0.544410 -0.188523
C15   C     C_R   0.551828 0.201204 0.455667 -0.193737
C16   C     C_R   0.653542 0.509445 0.499748 0.909471
C17   C     C_R   0.346608 0.490551 0.503137 0.906801
C18   C     C_R   0.499272 0.841305 0.500676 0.170683
C19   C     C_R   0.499219 0.158590 0.499378 0.170976
C20   C     C_R   0.448216 0.797920 0.456125 -0.299249
C21   C     C_R   0.447496 0.194600 0.543857 -0.294901
C22   C     C_R   0.449400 0.721940 0.456718 0.027835
C23   C     C_R   0.508259 0.466915 0.828627 0.486022
C24   C     C_R   0.448723 0.270759 0.543228 0.031037
C25   C     C_R   0.498458 0.960319 0.436701 -0.348556
C26   C     C_R   0.497414 0.039389 0.563362 -0.348676
C27   C     C_R   0.497109 0.036538 0.435203 0.548729
C28   C     C_R   0.496119 0.962973 0.564856 0.548942
C29   C     C_R   0.498338 0.077214 0.499060 -0.075708
C30   C     C_R   0.498398 0.922555 0.501003 -0.075559
C31   C     C_R   0.739561 0.514841 0.506042 -0.126112
C32   C     C_R   0.261518 0.484842 0.516346 -0.117254
C33   C     C_R   0.779239 0.451016 0.506209 -0.229158
C34   C     C_R   0.496550 0.542626 0.172393 0.484709
C35   C     C_R   0.224596 0.546908 0.537690 -0.240580
C36   C     C_R   0.860212 0.454539 0.517460 -0.238237
C37   C     C_R   0.143930 0.542020 0.552123 -0.243804
C38   C     C_R   0.903039 0.522384 0.528753 0.206649
C39   C     C_R   0.098877 0.474862 0.544231 0.212065
C40   C     C_R   0.863644 0.586222 0.527257 0.633634
C41   C     C_R   0.136529 0.412231 0.526817 0.636573
C42   C     C_R   0.782018 0.582602 0.516158 -0.309905
C43   C     C_R   0.217676 0.417114 0.512626 -0.310065
C44   C     C_R   0.529292 0.469638 0.757364 -0.297562
C45   C     C_R   0.434426 0.491304 0.850882 -0.071223
C46   C     C_R   0.517806 0.544758 0.243468 -0.297516
C47   C     C_3   0.417388 0.073226 0.348919 -0.310406
C48   C     C_3   0.415075 0.914895 0.651144 -0.309784
C49   C     C_3   0.614702 0.490154 0.900428 -0.350618
C50   C     C_3   0.604497 0.560414 0.100451 -0.351357
C51   C     C_3   0.284678 0.601730 0.792400 -0.201789
C52   C     C_3   0.317155 0.334763 0.204457 -0.200401
C53   C     C_3   0.472201 0.658557 0.927478 -0.345087
C54   C     C_3   0.512710 0.349001 0.072073 -0.345980
C55   C     C_R   0.432345 0.494153 0.149474 -0.067685
C56   C     C_R   0.383434 0.521012 0.802123 0.563160
C57   C     C_R   0.391165 0.446602 0.197401 0.562470
C58   C     C_R   0.407171 0.524865 0.730802 -0.345075
F1    F     F_    0.904609 0.651930 0.536598 -0.657066
F2    F     F_    0.093588 0.347178 0.519775 -0.658533
H1    H     H_    0.257881 0.599340 0.543168 0.179728
H2    H     H_    0.405721 0.164030 0.578178 0.148450
H3    H     H_    0.409661 0.688805 0.422660 0.136723
H4    H     H_    0.408466 0.298172 0.577205 0.136074
H5    H     H_    0.499847 0.930621 0.387038 0.186798
H6    H     H_    0.497996 0.069231 0.613026 0.186688
H7    H     H_    0.116491 0.591042 0.567314 0.196517
H8    H     H_    0.889089 0.404133 0.516502 0.204333
H9    H     H_    0.752126 0.632486 0.516311 0.190370
H10   H     H_    0.245780 0.368352 0.497672 0.186533
H11   H     H_    0.584496 0.448721 0.739791 0.172803
H12   H     H_    0.747752 0.398090 0.498190 0.183668
H13   H     H_    0.565447 0.583285 0.261485 0.177520
H14   H     H_    0.368141 0.544301 0.691141 0.157117
H15   H     H_    0.382911 0.414907 0.307244 0.165503
H16   H     H_    0.382492 0.104131 0.387448 0.164654
H17   H     H_    0.388362 0.017475 0.340667 0.162992
H18   H     H_    0.416960 0.101834 0.297585 0.197090
H19   H     H_    0.380582 0.879115 0.612599 0.162829
H20   H     H_    0.386132 0.966544 0.659443 0.163489
H21   H     H_    0.413848 0.886137 0.702460 0.197817
H22   H     H_    0.650384 0.515889 0.856251 0.173260
H23   H     H_    0.393178 0.603201 0.066652 0.202916
H24   H     H_    0.586018 0.532031 0.932101 0.151949
H25   H     H_    0.656372 0.464515 0.935855 0.195535
H26   H     H_    0.588556 0.510737 0.068237 0.152450
H27   H     H_    0.645224 0.548160 0.144122 0.172222
H28   H     H_    0.637274 0.600391 0.065300 0.195439
H29   H     H_    0.257316 0.587898 0.740209 0.142179
H30   H     H_    0.334504 0.644828 0.787082 0.159985
H31   H     H_    0.238324 0.624563 0.825966 0.198670
H32   H     H_    0.287537 0.336464 0.257047 0.142615
H33   H     H_    0.375645 0.310843 0.208336 0.163259
H34   H     H_    0.423185 0.373782 0.933629 0.202245
H35   H     H_    0.278710 0.298006 0.170053 0.198021
H36   H     H_    0.514078 0.630850 0.892733 0.149273
H37   H     H_    0.497665 0.667584 0.981352 0.192003
H38   H     H_    0.465196 0.712768 0.904489 0.201399
H39   H     H_    0.545251 0.390358 0.106477 0.148799
H40   H     H_    0.539493 0.349345 0.018039 0.194790
H41   H     H_    0.520122 0.294930 0.095207 0.201747
H42   H     H_    0.590588 0.703301 0.577036 0.132802
H43   H     H_    0.591687 0.309756 0.422969 0.130955
H44   H     H_    0.592678 0.837354 0.578600 0.176840
H45   H     H_    0.593783 0.176039 0.421521 0.175159
H46   H     H_    0.406980 0.822529 0.421767 0.147081
N1    N     N_2   0.986397 0.528703 0.536079 -0.141309
N2    N     N_2   0.015178 0.469533 0.545909 -0.144954
N3    N     N_R   0.499990 0.689440 0.499980 -0.094623
N4    N     N_R   0.500010 0.310560 0.500020 -0.094015
O1    O     O_R   0.500000 0.560840 0.398180 -0.611323
O2    O     O_3   0.494988 0.928385 0.629390 -0.610097
O3    O     O_3   0.557833 0.435872 0.875689 -0.604299
O4    O     O_3   0.535841 0.591066 0.126192 -0.604116
O5    O     O_3   0.308562 0.538578 0.825227 -0.576340
O6    O     O_3   0.323902 0.404617 0.173952 -0.578238
O7    O     O_3   0.396962 0.619350 0.929330 -0.582992
O8    O     O_3   0.430809 0.359573 0.070629 -0.585639
O9    O     O_R   0.500000 0.439160 0.601820 -0.609782
O10   O     O_R   0.500030 0.439210 0.398180 -0.619653
O11   O     O_R   0.499970 0.560790 0.601820 -0.620027
O12   O     O_R   0.616110 0.567600 0.499360 -0.623949
O13   O     O_R   0.383890 0.432400 0.500640 -0.628226
O14   O     O_R   0.616150 0.445970 0.499350 -0.626109
O15   O     O_R   0.383850 0.554030 0.500650 -0.628699
O16   O     O_3   0.496977 0.071016 0.370658 -0.610481
Zn1   Zn    Zn3+2 0.499980 0.581210 0.500000 0.945470
Zn2   Zn    Zn3+2 0.500020 0.418790 0.500000 0.945652

loop_
_geom_bond_atom_site_label_1
_geom_bond_atom_site_label_2
_ccdc_geom_bond_type
C7    H23   S    
C23   C45   A    
C31   C42   A    
C27   C29   A    
C14   C18   A    
C54   H41   S    
C49   O3    S    
C17   O15   A    
C6    C9    A    
C2    C57   A    
C39   C41   A    
C4    C46   A    
C28   O2    S    
C16   C31   S    
C15   C19   A    
C52   H35   S    
C48   H19   S    
C35   C37   A    
C47   H16   S    
O11   Zn1   S    
C51   H30   S    
C27   O16   S    
C53   O7    S    
C11   N3    A    
O12   Zn1   S    
C33   C36   A    
C48   H21   S    
C44   H11   S    
C38   N1    S    
C16   O12   A    
C3    C12   S    
C33   H12   S    
C51   H31   S    
C22   H3    S    
C17   O13   A    
C12   O11   A    
C45   C56   A    
N1    N2    D    
C31   C33   A    
C18   C30   S    
C13   H43   S    
C50   H28   S    
O14   Zn2   S    
O9    Zn2   S    
C40   C42   A    
C34   C55   A    
C24   H4    S    
C40   F1    S    
C53   H36   S    
C41   C43   A    
C54   H40   S    
N3    Zn1   S    
C57   O6    S    
C20   H46   S    
C52   O6    S    
C39   N2    S    
C3    C44   A    
C26   H6    S    
C32   C35   A    
C49   H25   S    
C24   N4    A    
C5    C7    A    
C6    C8    A    
C53   H37   S    
C42   H9    S    
C51   O5    S    
C23   C44   A    
C5    O7    S    
C50   O4    S    
C1    O10   A    
C49   H22   S    
C2    C4    A    
C13   N4    A    
C23   O3    S    
C12   O9    A    
C14   H44   S    
C13   C15   A    
C22   N3    A    
C10   C45   S    
O10   Zn2   S    
C25   H5    S    
C52   H33   S    
C35   H1    S    
C21   H2    S    
C50   H27   S    
C34   C46   A    
C48   O2    S    
C20   C22   A    
C43   H10   S    
C55   C57   A    
O1    Zn1   S    
C54   H39   S    
C52   H32   S    
C34   O4    S    
C47   H17   S    
C19   C29   S    
C54   O8    S    
C8    H34   S    
C58   H14   S    
C47   O16   S    
C49   H24   S    
C25   C30   A    
C7    C9    A    
C19   C21   A    
C56   O5    S    
C41   F2    S    
C36   H8    S    
C53   H38   S    
C25   C27   A    
C26   C28   A    
C1    C4    S    
C15   H45   S    
C28   C30   A    
C16   O14   A    
C5    C10   A    
C37   C39   A    
C51   H29   S    
C38   C40   A    
C48   H20   S    
O13   Zn2   S    
C37   H7    S    
C36   C38   A    
C11   C14   A    
C32   C43   A    
C56   C58   A    
C11   H42   S    
C18   C20   A    
C9    C55   S    
C50   H26   S    
C3    C58   A    
C26   C29   A    
C8    C10   A    
C21   C24   A    
O15   Zn1   S    
C17   C32   S    
C47   H18   S    
C6    O8    S    
C46   H13   S    
C1    O1    A    
C2    H15   S    
N4    Zn2   S    
