data_mof_unit_65982.cif
_audit_creation_date              2012-12-10T20:02:55-0500
_audit_creation_method            fapswitch 2.2
_symmetry_space_group_name_H-M    P1
_symmetry_Int_Tables_number       1
_space_group_crystal_system       triclinic
_cell_length_a                    39.001115
_cell_length_b                    32.057588
_cell_length_c                    21.72722
_cell_angle_alpha                 89.922761
_cell_angle_beta                  55.365965
_cell_angle_gamma                 90.123116
_cell_volume                      22351.291188

loop_
_atom_site_label
_atom_site_type_symbol
_atom_type_description
_atom_site_fract_x
_atom_site_fract_y
_atom_site_fract_z
_atom_type_partial_charge
C1    C     C_R   0.919351 0.499895 0.579403 0.959197
C2    C     C_R   0.080673 0.500058 0.420037 0.971066
C3    C     C_R   0.419356 0.999890 0.579259 0.962764
C4    C     C_R   0.580678 0.000054 0.419724 0.969859
C5    C     C_3   0.035179 0.465007 0.247975 -0.297109
C6    C     C_3   0.962882 0.466525 0.753847 -0.279840
C7    C     C_3   0.534900 0.964913 0.248240 -0.298476
C8    C     C_3   0.460825 0.969005 0.755804 -0.295642
C9    C     C_3   0.001125 0.498730 0.308877 -0.248755
C10   C     C_3   0.998823 0.498736 0.691128 -0.312587
C11   C     C_3   0.501052 0.998810 0.308966 -0.245374
C12   C     C_3   0.498905 0.998635 0.691068 -0.286769
C13   C     C_3   0.999242 0.500289 0.189829 -0.242384
C14   C     C_3   0.001005 0.500101 0.809931 -0.249797
C15   C     C_3   0.499204 0.000480 0.189886 -0.241644
C16   C     C_3   0.500991 0.999875 0.809946 -0.228529
C17   C     C_3   0.018141 0.543695 0.193403 0.193901
C18   C     C_3   0.985610 0.544864 0.802611 0.156602
C19   C     C_3   0.518322 0.043767 0.193278 0.196167
C20   C     C_3   0.488387 0.045529 0.799623 0.105471
C21   C     C_3   0.029852 0.464549 0.180677 -0.365708
C22   C     C_3   0.967861 0.466330 0.821581 -0.354937
C23   C     C_3   0.529611 0.964593 0.180922 -0.381109
C24   C     C_3   0.465840 0.968171 0.823473 -0.350840
C25   C     C_R   0.727293 0.480582 0.819977 -0.122741
C26   C     C_R   0.272726 0.533151 0.196352 -0.123691
C27   C     C_R   0.227311 0.983608 0.822339 -0.123140
C28   C     C_R   0.772794 0.032149 0.194067 -0.123899
C29   C     C_R   0.706431 0.501546 0.792999 -0.100651
C30   C     C_R   0.293629 0.503233 0.211483 -0.098586
C31   C     C_R   0.206438 0.001765 0.792957 -0.100869
C32   C     C_R   0.793630 0.003242 0.211087 -0.098614
C33   C     C_R   0.728967 0.521054 0.721709 0.355925
C34   C     C_R   0.271155 0.473103 0.268917 0.349453
C35   C     C_R   0.228964 0.018471 0.719448 0.353379
C36   C     C_R   0.771092 0.974090 0.270277 0.349726
C37   C     C_R   0.772777 0.518879 0.676947 0.465682
C38   C     C_R   0.227378 0.472316 0.309823 0.470140
C39   C     C_R   0.272770 0.016258 0.674924 0.464118
C40   C     C_R   0.727319 0.973231 0.311091 0.468247
C41   C     C_R   0.793371 0.498314 0.704005 -0.077596
C42   C     C_R   0.206705 0.501833 0.294497 -0.084412
C43   C     C_R   0.293375 0.998448 0.704305 -0.078447
C44   C     C_R   0.706714 0.001755 0.293923 -0.084444
C45   C     C_R   0.001529 0.499727 0.376811 1.041458
C46   C     C_R   0.998501 0.499688 0.623146 1.064708
C47   C     C_R   0.501484 0.999740 0.376859 1.036853
C48   C     C_R   0.498631 0.999668 0.623015 1.092424
C49   C     C_R   0.771242 0.479125 0.775110 -0.179302
C50   C     C_R   0.228752 0.532642 0.238721 -0.185270
C51   C     C_R   0.271262 0.982124 0.777628 -0.180508
C52   C     C_R   0.728825 0.031630 0.236372 -0.184952
C53   C     C_1   0.661750 0.501028 0.837118 0.041169
C54   C     C_1   0.338288 0.501888 0.164829 0.040190
C55   C     C_1   0.161754 0.001133 0.837106 0.038003
C56   C     C_1   0.838289 0.001863 0.164665 0.040076
C57   C     C_1   0.837988 0.499040 0.658989 0.131945
C58   C     C_1   0.162080 0.500970 0.339297 0.130724
C59   C     C_1   0.337991 0.999080 0.659098 0.131088
C60   C     C_1   0.662091 0.000928 0.338698 0.127167
C61   C     C_1   0.875228 0.499610 0.622196 -0.104041
C62   C     C_1   0.124826 0.500369 0.376489 -0.100365
C63   C     C_1   0.375232 0.999603 0.622152 -0.100169
C64   C     C_1   0.624837 0.000349 0.375966 -0.100572
C65   C     C_1   0.624470 0.500519 0.874422 -0.103854
C66   C     C_1   0.375548 0.500854 0.126021 -0.109965
C67   C     C_1   0.124474 0.000554 0.874420 -0.108950
C68   C     C_1   0.875549 0.000826 0.125983 -0.109348
C69   C     C_1   0.501010 0.661656 0.997016 0.053298
C70   C     C_1   0.999434 0.161671 0.000673 0.056088
C71   C     C_R   0.000071 0.580619 0.999809 0.952023
C72   C     C_R   0.500074 0.080619 0.999715 0.948889
C73   C     C_R   0.999630 0.499870 0.121639 0.999811
C74   C     C_R   0.000393 0.499770 0.878346 1.017426
C75   C     C_R   0.499622 0.000033 0.121650 0.999616
C76   C     C_R   0.500377 0.999612 0.878358 1.019076
C77   C     C_1   0.999442 0.338049 0.000483 0.037754
C78   C     C_1   0.499632 0.837963 0.001598 0.034093
C79   C     C_R   0.999924 0.419353 0.999999 0.907271
C80   C     C_R   0.499939 0.919330 0.000104 0.907129
C81   C     C_1   0.999706 0.375284 0.000170 -0.022013
C82   C     C_1   0.499809 0.875220 0.000848 -0.031206
C83   C     C_R   0.500002 0.419686 0.000039 0.867875
C84   C     C_R   0.000002 0.919686 0.000038 0.867524
C85   C     C_R   0.580291 0.500034 0.919353 0.885768
C86   C     C_R   0.419711 0.500007 0.080681 0.884777
C87   C     C_R   0.080292 0.000027 0.919352 0.879586
C88   C     C_R   0.919712 0.999995 0.080678 0.884599
C89   C     C_R   0.499970 0.580305 0.999940 0.889381
C90   C     C_R   0.999969 0.080306 0.000002 0.880615
C91   C     C_R   0.518859 0.272295 0.931783 0.279029
C92   C     C_R   0.482038 0.272004 0.068040 0.279460
C93   C     C_R   0.018443 0.772284 0.931864 0.279159
C94   C     C_R   0.982312 0.772011 0.067972 0.279669
C95   C     C_R   0.500384 0.293518 0.999955 -0.057107
C96   C     C_R   0.000328 0.793516 0.999954 -0.057064
C97   C     C_R   0.980442 0.727926 0.068233 0.274037
C98   C     C_R   0.020419 0.728217 0.931477 0.279480
C99   C     C_R   0.480191 0.227918 0.068244 0.273495
C100  C     C_R   0.520833 0.228229 0.931422 0.280756
C101  C     C_R   0.000428 0.706716 0.999823 -0.052899
C102  C     C_R   0.500500 0.206717 0.999793 -0.053144
C103  C     C_1   0.500226 0.338121 0.000033 0.221829
C104  C     C_1   0.000196 0.838120 0.000024 0.221849
C105  C     C_1   0.000344 0.662134 0.999766 0.213204
C106  C     C_1   0.500385 0.162134 0.999712 0.213807
C107  C     C_1   0.000231 0.624833 0.999751 -0.081942
C108  C     C_1   0.500247 0.124833 0.999675 -0.084396
C109  C     C_1   0.500395 0.624413 0.998959 -0.072792
C110  C     C_1   0.999706 0.124416 0.000257 -0.067255
C111  C     C_1   0.500105 0.375440 0.000046 -0.128390
C112  C     C_1   0.000093 0.875439 0.000045 -0.128135
C113  C     C_R   0.531067 0.727838 0.001700 -0.087124
C114  C     C_R   0.471776 0.727877 0.990158 -0.084275
C115  C     C_R   0.021203 0.227985 0.025055 -0.083997
C116  C     C_R   0.976864 0.227840 0.977694 -0.082522
C117  C     C_R   0.501948 0.706326 0.994368 -0.025505
C118  C     C_R   0.999138 0.206349 0.001195 -0.034948
C119  C     C_R   0.999165 0.293392 0.000995 -0.035889
C120  C     C_R   0.499277 0.793264 0.002338 -0.032470
C121  C     C_R   0.977055 0.271785 0.977233 -0.086292
C122  C     C_R   0.021052 0.271915 0.025248 -0.090476
C123  C     C_R   0.470524 0.771781 0.993933 -0.092428
C124  C     C_R   0.529680 0.771693 0.005787 -0.099492
C125  C     C_3   0.954758 0.486819 0.333993 0.102918
C126  C     C_3   0.044584 0.484579 0.667157 0.097825
C127  C     C_3   0.454614 0.987206 0.334145 0.102559
C128  C     C_3   0.543584 0.981506 0.668359 0.087319
C129  C     C_3   0.953266 0.492553 0.262593 0.623126
C130  C     C_3   0.046183 0.488531 0.738874 0.606956
C131  C     C_3   0.453173 0.992980 0.262691 0.622272
C132  C     C_3   0.545332 0.985379 0.739917 0.605503
C133  C     C_3   0.013219 0.544665 0.270823 0.598441
C134  C     C_3   0.988438 0.545228 0.726766 0.641828
C135  C     C_3   0.513422 0.044699 0.270689 0.598806
C136  C     C_3   0.491805 0.045676 0.723185 0.638999
H1    H     H_    0.060486 0.472832 0.129663 0.270383
H2    H     H_    0.937929 0.476882 0.871572 0.269203
H3    H     H_    0.560308 0.972707 0.129895 0.269595
H4    H     H_    0.436596 0.980418 0.872834 0.270536
O1    O     O_R   0.939010 0.534400 0.560970 -0.613178
O2    O     O_R   0.060990 0.534400 0.439030 -0.608447
O3    O     O_R   0.439010 0.034400 0.560970 -0.603658
O4    O     O_R   0.560990 0.034400 0.439030 -0.611798
O5    O     O_R   0.560960 0.500010 0.886780 -0.610688
O6    O     O_R   0.439040 0.500010 0.113220 -0.609079
O7    O     O_R   0.060960 0.000010 0.886780 -0.611202
O8    O     O_R   0.939040 0.000010 0.113220 -0.607705
O9    O     O_R   0.560970 0.499940 0.991330 -0.591287
O10   O     O_R   0.439030 0.499940 0.008670 -0.600946
O11   O     O_R   0.060970 0.999940 0.991330 -0.591675
O12   O     O_R   0.939030 0.999940 0.008670 -0.601593
O13   O     O_R   0.500000 0.561000 0.947810 -0.592499
O14   O     O_R   0.500000 0.561000 0.052190 -0.608183
O15   O     O_R   0.000000 0.061000 0.947810 -0.596410
O16   O     O_R   1.000000 0.061000 0.052190 -0.593505
O17   O     O_R   0.938970 0.465540 0.561010 -0.579866
O18   O     O_R   0.061030 0.465540 0.438990 -0.584497
O19   O     O_R   0.438970 0.965540 0.561010 -0.586033
O20   O     O_R   0.561030 0.965540 0.438990 -0.585916
O21   O     O_R   0.999990 0.534400 0.407410 -0.585651
O22   O     O_R   0.000010 0.534400 0.592590 -0.570489
O23   O     O_R   0.499990 0.034400 0.407410 -0.588437
O24   O     O_R   0.500010 0.034400 0.592590 -0.527335
O25   O     O_R   0.999950 0.465540 0.407450 -0.558738
O26   O     O_R   0.000050 0.465540 0.592550 -0.552254
O27   O     O_R   0.499950 0.965540 0.407450 -0.559581
O28   O     O_R   0.500050 0.965540 0.592550 -0.564177
O29   O     O_R   0.965540 0.560940 0.034450 -0.593857
O30   O     O_R   0.034460 0.560940 0.965550 -0.594353
O31   O     O_R   0.465540 0.060940 0.034450 -0.593198
O32   O     O_R   0.534460 0.060940 0.965550 -0.593737
O33   O     O_R   0.965550 0.499950 0.127040 -0.530103
O34   O     O_R   0.034450 0.499950 0.872960 -0.528875
O35   O     O_R   0.465550 0.999950 0.127040 -0.529415
O36   O     O_R   0.534450 0.999950 0.872960 -0.529047
O37   O     O_R   0.034410 0.500000 0.058200 -0.608421
O38   O     O_R   0.965590 0.500000 0.941800 -0.607497
O39   O     O_R   0.534410 0.000000 0.058200 -0.609252
O40   O     O_R   0.465590 0.000000 0.941800 -0.608970
O41   O     O_R   0.965550 0.438960 0.034430 -0.593323
O42   O     O_R   0.034450 0.438960 0.965570 -0.593623
O43   O     O_R   0.465550 0.938960 0.034430 -0.587998
O44   O     O_R   0.534450 0.938960 0.965570 -0.602176
O45   O     O_R   0.499940 0.439020 0.947690 -0.600126
O46   O     O_R   0.500060 0.439020 0.052310 -0.601124
O47   O     O_R   0.999940 0.939020 0.947690 -0.599787
O48   O     O_R   0.000060 0.939020 0.052310 -0.601174
Zn1   Zn    Zn3+2 0.000000 0.545950 0.500000 1.089214
Zn2   Zn    Zn3+2 0.500000 0.045950 0.500000 1.110786
Zn3   Zn    Zn3+2 0.000000 0.454000 0.500000 1.151170
Zn4   Zn    Zn3+2 0.500000 0.954000 0.500000 1.148519
Zn5   Zn    Zn3+2 0.954000 0.499940 0.045990 1.158549
Zn6   Zn    Zn3+2 0.046000 0.499940 0.954010 1.158548
Zn7   Zn    Zn3+2 0.454000 0.999940 0.045990 1.161607
Zn8   Zn    Zn3+2 0.546000 0.999940 0.954010 1.151177
Zn9   Zn    Zn3+2 0.499970 0.500020 0.930220 1.062325
Zn10  Zn    Zn3+2 0.500030 0.500020 0.069780 1.054553
Zn11  Zn    Zn3+2 0.999970 0.000020 0.930220 1.059702
Zn12  Zn    Zn3+2 0.000030 0.000020 0.069780 1.064722
C137  C     C_2   0.918329 0.510603 0.401146 1.020385
O49   O     O_2   0.882766 0.502005 0.421260 -0.535058
O50   O     O_R   0.923831 0.540107 0.442031 -0.763500
H5    H     H_    0.896600 0.552657 0.484366 0.361118
C138  C     C_2   0.081984 0.507342 0.599737 0.935808
O51   O     O_2   0.117128 0.498023 0.580897 -0.527684
O52   O     O_R   0.077764 0.536092 0.556161 -0.795813
H6    H     H_    0.105450 0.548110 0.513873 0.347190
C139  C     C_2   0.418324 0.011202 0.401155 1.020404
O53   O     O_2   0.382716 0.002828 0.421276 -0.533189
O54   O     O_R   0.423984 0.040642 0.441925 -0.764453
H7    H     H_    0.396820 0.053322 0.484221 0.359561
C140  C     C_2   0.582308 0.001927 0.599658 0.943413
O55   O     O_2   0.616811 0.990619 0.581677 -0.523995
O56   O     O_R   0.579826 0.030703 0.554069 -0.801497
H8    H     H_    0.608155 0.041453 0.511731 0.346123
O57   O     O_3   0.051610 0.558162 0.257660 -0.732649
H9    H     H_    0.046756 0.575076 0.300057 0.371499
O58   O     O_3   0.949144 0.558043 0.743968 -0.707618
H10   H     H_    0.952539 0.576371 0.703980 0.393890
O59   O     O_3   0.551899 0.057940 0.257443 -0.732756
H11   H     H_    0.547154 0.074737 0.299874 0.370676
O60   O     O_3   0.454270 0.061231 0.736608 -0.696751
H12   H     H_    0.453921 0.091999 0.742438 0.388695
O61   O     O_3   0.061018 0.544299 0.133868 -0.700154
H13   H     H_    0.073625 0.571627 0.132041 0.411158
O62   O     O_3   0.943344 0.548832 0.863944 -0.693633
H14   H     H_    0.932995 0.577207 0.864359 0.406259
O63   O     O_3   0.561195 0.044181 0.133722 -0.699709
H15   H     H_    0.573926 0.071445 0.131806 0.410831
O64   O     O_3   0.446265 0.051764 0.860090 -0.705436
H16   H     H_    0.437786 0.081008 0.860515 0.383272
C141  C     C_2   0.794156 0.458994 0.803425 0.985288
O65   O     O_2   0.822222 0.434326 0.764102 -0.571253
O66   O     O_R   0.783629 0.468447 0.875005 -0.752089
H17   H     H_    0.801539 0.453018 0.887677 0.380147
C142  C     C_2   0.205798 0.565151 0.226785 1.005155
O67   O     O_2   0.177182 0.555235 0.221753 -0.598062
O68   O     O_R   0.216982 0.607143 0.221484 -0.759435
H18   H     H_    0.199198 0.626220 0.213321 0.366996
C143  C     C_2   0.294196 0.965012 0.808238 0.986453
O69   O     O_2   0.322302 0.939866 0.771978 -0.569900
O70   O     O_R   0.283644 0.977858 0.878455 -0.753841
H19   H     H_    0.301560 0.964245 0.892921 0.380628
C144  C     C_2   0.705950 0.063233 0.222495 1.005953
O71   O     O_2   0.677330 0.052485 0.218027 -0.598518
O72   O     O_R   0.717219 0.105333 0.214710 -0.758636
H20   H     H_    0.699487 0.123741 0.205400 0.367299
C145  C     C_2   0.702950 0.459042 0.893987 1.017027
O73   O     O_2   0.711401 0.423174 0.899851 -0.577809
O74   O     O_R   0.670289 0.479789 0.956724 -0.767628
H21   H     H_    0.656035 0.461851 0.003513 0.358975
C146  C     C_2   0.297095 0.563809 0.134288 1.023823
O75   O     O_2   0.288640 0.569339 0.088626 -0.575166
O76   O     O_R   0.329820 0.586101 0.127996 -0.777375
H22   H     H_    0.344076 0.605787 0.083494 0.356247
C147  C     C_2   0.202974 0.964949 0.898832 1.017902
O77   O     O_2   0.211425 0.930029 0.909099 -0.577343
O78   O     O_R   0.170316 0.987302 0.958874 -0.768563
H23   H     H_    0.156064 0.971267 0.007766 0.359629
C148  C     C_2   0.797228 0.061710 0.130147 1.023437
O79   O     O_2   0.788802 0.065743 0.084161 -0.576163
O80   O     O_R   0.829982 0.084680 0.122490 -0.775917
H24   H     H_    0.844295 0.103473 0.076770 0.357677
O81   O     O_3   0.709640 0.542043 0.693527 -0.745385
H25   H     H_    0.679464 0.545010 0.732094 0.359522
O82   O     O_3   0.290574 0.443690 0.285974 -0.749475
H26   H     H_    0.320466 0.450340 0.260580 0.357129
O83   O     O_3   0.209625 0.036697 0.688881 -0.747895
H27   H     H_    0.179473 0.040203 0.727114 0.357454
O84   O     O_3   0.790442 0.945692 0.289179 -0.749140
H28   H     H_    0.820339 0.952435 0.263427 0.357452
O85   O     O_3   0.796714 0.537016 0.606563 -0.721966
H29   H     H_    0.778622 0.550244 0.593782 0.402808
O86   O     O_3   0.203541 0.443362 0.366057 -0.705336
H30   H     H_    0.221680 0.424351 0.371319 0.400930
O87   O     O_3   0.296696 0.031718 0.602470 -0.719130
H31   H     H_    0.278599 0.043177 0.588209 0.403283
O88   O     O_3   0.703418 0.945190 0.369016 -0.704793
H32   H     H_    0.721510 0.926844 0.375516 0.401501
O89   O     O_3   0.041573 0.705368 0.866044 -0.744937
H33   H     H_    0.064286 0.722785 0.825614 0.363245
O90   O     O_3   0.959354 0.704785 0.133601 -0.740839
H34   H     H_    0.936623 0.721960 0.174104 0.364835
O91   O     O_3   0.542309 0.205392 0.865994 -0.746711
H35   H     H_    0.565145 0.222815 0.825807 0.362615
O92   O     O_3   0.458820 0.204765 0.133591 -0.739880
H36   H     H_    0.435969 0.221932 0.173887 0.364721
O93   O     O_3   0.534275 0.295402 0.867308 -0.730646
H37   H     H_    0.533180 0.278156 0.830686 0.360656
O94   O     O_3   0.466571 0.294857 0.132587 -0.730372
H38   H     H_    0.467768 0.277555 0.169104 0.360297
O95   O     O_3   0.033520 0.795385 0.867498 -0.730397
H39   H     H_    0.032148 0.778138 0.831179 0.360853
O96   O     O_3   0.967186 0.794871 0.132398 -0.730144
H40   H     H_    0.968632 0.777570 0.168641 0.360440
C149  C     C_2   0.042555 0.295424 0.053278 0.972156
O97   O     O_2   0.066600 0.323836 0.016043 -0.542918
O98   O     O_R   0.035247 0.284868 0.122268 -0.768875
H41   H     H_    0.051481 0.303132 0.135358 0.377806
C150  C     C_2   0.955376 0.295141 0.949417 0.964172
O99   O     O_2   0.932119 0.324025 0.985807 -0.547456
O100  O     O_R   0.961600 0.283904 0.881592 -0.768993
H42   H     H_    0.945228 0.302014 0.868685 0.376279
C151  C     C_2   0.561248 0.795111 0.010147 0.997352
O101  O     O_2   0.550202 0.822245 0.057282 -0.568852
O102  O     O_R   0.603571 0.785888 0.960409 -0.760133
H43   H     H_    0.621921 0.803763 0.969080 0.373649
C152  C     C_2   0.440602 0.795386 0.985253 0.976099
O103  O     O_2   0.419745 0.823463 0.028719 -0.553469
O104  O     O_R   0.436544 0.785499 0.927009 -0.766654
H44   H     H_    0.415488 0.803808 0.926666 0.378082
O105  O     O_3   0.945609 0.445622 0.361793 -0.697814
H45   H     H_    0.955365 0.425381 0.321368 0.430513
O106  O     O_3   0.051886 0.443335 0.639955 -0.676717
H46   H     H_    0.039986 0.422957 0.680964 0.427457
O107  O     O_3   0.445204 0.946066 0.362211 -0.698488
H47   H     H_    0.454737 0.925757 0.321961 0.430036
O108  O     O_3   0.548293 0.939864 0.643884 -0.676530
H48   H     H_    0.534672 0.920384 0.686314 0.428007
C153  C     C_2   0.561697 0.704332 0.008598 0.976246
O109  O     O_2   0.582092 0.676160 0.964934 -0.590529
O110  O     O_R   0.567068 0.714497 0.065194 -0.765001
H49   H     H_    0.588739 0.696442 0.064028 0.366914
C154  C     C_2   0.440321 0.704373 0.985398 0.975315
O111  O     O_2   0.451306 0.675924 0.940500 -0.585527
O112  O     O_R   0.398138 0.714819 0.032542 -0.760198
H50   H     H_    0.379865 0.696644 0.024105 0.364519
C155  C     C_2   0.045660 0.204718 0.047250 0.975637
O113  O     O_2   0.029838 0.175477 0.091168 -0.585087
O114  O     O_R   0.086799 0.216453 0.017842 -0.761967
H51   H     H_    0.100093 0.198449 0.037218 0.367019
C156  C     C_2   0.952088 0.204379 0.956315 0.978950
O115  O     O_2   0.967809 0.175435 0.912074 -0.588349
O116  O     O_R   0.910744 0.215584 0.986924 -0.758220
H52   H     H_    0.897200 0.197453 0.968139 0.365614
O117  O     O_3   0.936535 0.456585 0.251650 -0.688439
H53   H     H_    0.906682 0.454674 0.293923 0.402281
O118  O     O_3   0.058212 0.450367 0.753315 -0.692297
H54   H     H_    0.087830 0.445402 0.712024 0.404996
O119  O     O_3   0.436234 0.957117 0.251935 -0.688772
H55   H     H_    0.406366 0.955386 0.294197 0.402801
O120  O     O_3   0.554756 0.946511 0.757114 -0.698788
H56   H     H_    0.583973 0.939559 0.716285 0.404994
O121  O     O_3   0.926947 0.525791 0.271338 -0.685787
H57   H     H_    0.931842 0.550406 0.292642 0.344012
O122  O     O_3   0.076148 0.517738 0.729618 -0.681505
H58   H     H_    0.075497 0.543588 0.706247 0.300839
O123  O     O_3   0.427049 0.026373 0.271247 -0.685790
H59   H     H_    0.432067 0.050947 0.292462 0.343700
O124  O     O_3   0.577137 0.012565 0.728772 -0.681123
H60   H     H_    0.577846 0.038571 0.704405 0.301831
O125  O     O_3   0.981439 0.573104 0.319437 -0.797020
H61   H     H_    0.992970 0.601841 0.308618 0.384099
O126  O     O_3   0.017678 0.574995 0.674739 -0.704646
H62   H     H_    0.043262 0.575149 0.673205 0.306531
O127  O     O_3   0.481825 0.073325 0.319173 -0.797340
H63   H     H_    0.493554 0.101981 0.308278 0.384076
O128  O     O_3   0.523192 0.072932 0.668598 -0.697056
H64   H     H_    0.548136 0.072664 0.669114 0.304671
C157  C     C_2   0.999824 0.583138 0.181074 0.876309
O129  O     O_2   0.973925 0.581017 0.166393 -0.597549
O130  O     O_R   0.015297 0.622380 0.182134 -0.786874
H65   H     H_    0.001937 0.645986 0.171834 0.384837
C158  C     C_2   0.007830 0.582895 0.809039 0.824804
O131  O     O_2   0.032117 0.579342 0.827223 -0.602168
O132  O     O_R   0.998031 0.622868 0.797566 -0.733073
H66   H     H_    0.013681 0.645668 0.804284 0.385516
C159  C     C_2   0.500179 0.083302 0.180808 0.876143
O133  O     O_2   0.474337 0.081298 0.165975 -0.597617
O134  O     O_R   0.515768 0.122478 0.181849 -0.787045
H67   H     H_    0.502521 0.146147 0.171429 0.384255
C160  C     C_2   0.512607 0.082302 0.804082 0.818608
O135  O     O_2   0.536686 0.077458 0.822443 -0.591964
O136  O     O_R   0.505141 0.122731 0.790019 -0.762783
H68   H     H_    0.522080 0.144646 0.795302 0.390032
C161  C     C_2   0.079230 0.479461 0.222847 1.051990
O137  O     O_2   0.106355 0.488428 0.157792 -0.510416
O138  O     O_R   0.089152 0.480485 0.275307 -0.827855
H69   H     H_    0.119031 0.489432 0.252452 0.368524
C162  C     C_2   0.919437 0.482295 0.778044 1.039660
O139  O     O_2   0.892586 0.492149 0.842650 -0.533699
O140  O     O_R   0.909867 0.484061 0.725156 -0.823528
H70   H     H_    0.880751 0.495007 0.747041 0.346327
C163  C     C_2   0.579031 0.979053 0.223120 1.050290
O141  O     O_2   0.606163 0.988132 0.158126 -0.510756
O142  O     O_R   0.589012 0.979634 0.275507 -0.828009
H71   H     H_    0.618982 0.988239 0.252595 0.369344
C164  C     C_2   0.418606 0.987944 0.778980 1.052933
O143  O     O_2   0.392469 0.999365 0.842976 -0.542528
O144  O     O_R   0.409246 0.990856 0.725908 -0.816601
H72   H     H_    0.381028 0.003982 0.746998 0.346728
C165  C     C_2   0.035460 0.419031 0.271095 0.973982
O145  O     O_2   0.063801 0.396271 0.224992 -0.593105
O146  O     O_R   0.005675 0.401856 0.341046 -0.710186
H73   H     H_    0.011048 0.371449 0.345631 0.357441
C166  C     C_2   0.960311 0.420568 0.733194 0.980149
O147  O     O_2   0.931092 0.398903 0.780760 -0.585443
O148  O     O_R   0.988685 0.402355 0.663729 -0.713426
H74   H     H_    0.981775 0.372214 0.660848 0.359349
C167  C     C_2   0.534874 0.918903 0.271544 0.977579
O149  O     O_2   0.563075 0.895984 0.225545 -0.580124
O150  O     O_R   0.504972 0.901874 0.341561 -0.710387
H75   H     H_    0.510154 0.871424 0.346282 0.358681
C168  C     C_2   0.455072 0.923474 0.737965 0.975227
O151  O     O_2   0.424423 0.903806 0.786761 -0.580346
O152  O     O_R   0.482173 0.903533 0.669702 -0.714197
H76   H     H_    0.473209 0.873986 0.668574 0.360964
C169  C     C_2   0.023212 0.422023 0.155550 0.962752
O153  O     O_2   0.048298 0.410642 0.091025 -0.564577
O154  O     O_R   0.990054 0.395603 0.204251 -0.763969
H77   H     H_    0.990039 0.368868 0.179377 0.359879
C170  C     C_2   0.971379 0.423510 0.850182 0.972979
O155  O     O_2   0.946591 0.414512 0.916265 -0.562349
O156  O     O_R   0.001172 0.394085 0.802592 -0.762073
H78   H     H_    0.999608 0.367601 0.829639 0.360064
C171  C     C_2   0.522669 0.922202 0.155986 0.989209
O157  O     O_2   0.547499 0.910882 0.091340 -0.559605
O158  O     O_R   0.489442 0.895912 0.204931 -0.758096
H79   H     H_    0.489022 0.869333 0.180141 0.381939
C172  C     C_2   0.466617 0.925055 0.854564 0.972199
O159  O     O_2   0.441374 0.917543 0.921162 -0.571913
O160  O     O_R   0.494286 0.893725 0.808733 -0.762013
H80   H     H_    0.490753 0.867183 0.837272 0.360770

loop_
_geom_bond_atom_site_label_1
_geom_bond_atom_site_label_2
_ccdc_geom_bond_type
C15   C75   S    
O127  H63   S    
C149  O98   S    
O60   H12   S    
C21   H1    S    
C134  O126  S    
C42   C58   S    
O117  H53   S    
C156  O115  D    
C24   H4    S    
C84   C112  S    
C72   O32   A    
C26   C50   A    
O84   H28   S    
C29   C33   A    
C80   O43   A    
O122  H58   S    
C45   O21   A    
C25   C145  S    
C127  C139  S    
O94   H38   S    
C27   C51   A    
O42   Zn6   S    
C91   C100  A    
C75   O39   A    
C119  C121  A    
C8    C168  S    
C170  O156  S    
C144  O71   D    
C133  O57   S    
C35   O83   S    
O35   Zn7   S    
C140  O56   S    
C25   C29   A    
C27   C147  S    
O38   Zn5   S    
C116  C121  A    
C27   C31   A    
O110  H49   S    
C28   C32   A    
C3    O3    A    
O31   Zn7   S    
O8    Zn12  S    
O29   Zn5   S    
C94   C97   A    
C150  O99   D    
O2    Zn1   S    
C7    C167  S    
C94   O96   S    
C78   C120  S    
O56   H8    S    
O17   Zn3   S    
O63   H15   S    
C78   C82   T    
O100  H42   S    
C74   O38   A    
C16   C20   S    
C115  C118  A    
C88   O8    A    
C71   O30   A    
C13   C21   S    
C94   C96   A    
C19   O63   S    
C12   C128  S    
O21   Zn1   S    
C13   C73   S    
O34   Zn6   S    
C99   O92   S    
C96   C104  S    
C17   C133  S    
C162  O139  D    
O32   Zn8   S    
O140  H70   S    
C146  O76   S    
C14   C130  S    
C138  O51   D    
C91   O93   S    
O19   Zn4   S    
C4    O4    A    
O136  H68   S    
C57   C61   T    
C48   O24   A    
C165  O145  D    
C59   C63   T    
O28   Zn4   S    
C79   O42   A    
C60   C64   T    
C166  O148  S    
C131  O123  S    
C168  O151  D    
C113  C124  A    
C20   C160  S    
C116  C118  A    
O23   Zn2   S    
C130  O122  S    
C127  C131  S    
C18   O62   S    
O116  H52   S    
C149  O97   D    
C125  C129  S    
C5    C21   S    
C153  O109  D    
C147  O78   S    
O128  H64   S    
C148  O79   D    
C84   O47   A    
O45   Zn9   S    
C169  O153  D    
C158  O131  D    
O134  H67   S    
C163  O142  S    
C9    C133  S    
O3    Zn2   S    
O123  H59   S    
C17   C157  S    
O150  H75   S    
O158  H79   S    
C167  O149  D    
C98   O89   S    
C105  C107  T    
C145  O73   D    
O59   H11   S    
C14   C74   S    
C85   O5    A    
C74   O34   A    
C86   O10   A    
C146  O75   D    
O14   Zn10  S    
O48   Zn12  S    
C126  C138  S    
C28   C148  S    
C143  O69   D    
C154  O112  S    
C70   C110  T    
C8    C164  S    
C17   O61   S    
C72   C108  S    
C40   O88   S    
C133  O125  S    
C151  O102  S    
C53   C65   T    
C141  O65   D    
O10   Zn9   S    
C148  O80   S    
C43   C59   S    
C44   C52   A    
C20   O64   S    
C142  O67   D    
C3    O19   A    
C137  O50   S    
O24   Zn2   S    
C171  O158  S    
C95   C103  S    
C139  O53   D    
C152  O104  S    
C135  O59   S    
C7    C163  S    
C30   C34   A    
C34   O82   S    
C80   C82   S    
C104  C112  T    
O57   H9    S    
C56   C68   T    
C9    C125  S    
O6    Zn10  S    
C11   C127  S    
C5    C9    S    
O95   H39   S    
O130  H65   S    
O93   H37   S    
C130  O118  S    
C93   O95   S    
C20   C136  S    
C42   C50   A    
C113  C117  A    
C114  C123  A    
C26   C30   A    
O102  H43   S    
C2    O2    A    
C19   C159  S    
C90   O16   A    
C5    C161  S    
O15   Zn11  S    
C162  O140  S    
C16   C76   S    
O11   Zn12  S    
C50   C142  S    
C26   C146  S    
C66   C86   S    
O82   H26   S    
C54   C66   T    
C132  O124  S    
C137  O49   D    
C13   C17   S    
C122  C149  S    
C14   C22   S    
C166  O147  D    
C22   H2    S    
C106  C108  T    
C70   C118  S    
C7    C23   S    
C8    C24   S    
C18   C134  S    
C80   O44   A    
C37   C41   A    
C161  O138  S    
C114  C117  A    
C91   C95   A    
C40   C44   A    
C15   C131  S    
C12   C136  S    
O90   H34   S    
C13   C129  S    
C10   C126  S    
C113  C153  S    
O76   H22   S    
C92   C99   A    
C159  O134  S    
C58   C62   T    
C9    C45   S    
C170  O155  D    
C71   C107  S    
O7    Zn11  S    
O68   H18   S    
C12   C48   S    
C52   C144  S    
O125  H61   S    
O138  H69   S    
C140  O55   D    
C15   C19   S    
C157  O130  S    
C125  C137  S    
C172  O159  D    
C87   O7    A    
O61   H13   S    
C97   O90   S    
C38   O86   S    
C126  C130  S    
C19   C135  S    
O70   H19   S    
C6    C22   S    
C103  C111  T    
C135  O127  S    
C41   C49   A    
C116  C156  S    
O43   Zn7   S    
O66   H17   S    
C71   O29   A    
C83   O46   A    
C8    C12   S    
O41   Zn5   S    
C120  C123  A    
O9    Zn10  S    
C47   O23   A    
C156  O116  S    
C24   C172  S    
O106  H46   S    
O83   H27   S    
C51   C143  S    
C86   O6    A    
C126  O106  S    
O39   Zn8   S    
C150  O100  S    
O37   Zn6   S    
C75   O35   A    
O52   H6    S    
C72   O31   A    
C76   O36   A    
O1    Zn1   S    
O20   Zn4   S    
O74   H21   S    
O96   H40   S    
O30   Zn6   S    
O44   Zn8   S    
C129  O117  S    
C33   C37   A    
C79   O41   A    
O12   Zn11  S    
O47   Zn11  S    
C23   C171  S    
C35   C39   A    
O98   H41   S    
O91   H35   S    
C11   C135  S    
C30   C54   S    
O118  H54   S    
C18   C158  S    
C77   C81   T    
C2    O18   A    
C134  O58   S    
C123  C152  S    
O40   Zn7   S    
C115  C155  S    
C144  O72   S    
O33   Zn5   S    
C31   C35   A    
C84   O48   A    
C32   C36   A    
O58   H10   S    
C163  O141  D    
O142  H71   S    
C46   O26   A    
C76   O40   A    
C1    C61   S    
C6    C10   S    
O146  H73   S    
C38   C42   A    
C3    C63   S    
C98   C101  A    
C4    C64   S    
C168  O152  S    
O88   H32   S    
C41   C57   S    
O112  H50   S    
O18   Zn3   S    
C43   C51   A    
O105  H45   S    
C127  O107  S    
C44   C60   S    
C1    O17   A    
O25   Zn3   S    
C154  O111  D    
C16   C132  S    
C25   C49   A    
C1    O1    A    
O108  H48   S    
C99   C102  A    
C151  O101  D    
C33   O81   S    
O154  H77   S    
C164  O144  S    
O46   Zn10  S    
C31   C55   S    
C45   O25   A    
C32   C56   S    
O22   Zn1   S    
O148  H74   S    
O120  H56   S    
C155  O113  D    
C14   C18   S    
O132  H66   S    
O114  H51   S    
C171  O157  D    
C89   O14   A    
O144  H72   S    
C4    O20   A    
C152  O103  D    
C6    C166  S    
C7    C11   S    
O27   Zn4   S    
C165  O146  S    
O4    Zn2   S    
C23   H3    S    
C147  O77   D    
C158  O132  S    
C136  O128  S    
O13   Zn9   S    
C89   C109  S    
O26   Zn3   S    
O62   H14   S    
C49   C141  S    
C37   O85   S    
C69   C109  T    
C36   O84   S    
O126  H62   S    
C6    C162  S    
C153  O110  S    
C10   C46   S    
O152  H76   S    
C5    C165  S    
C22   C170  S    
C131  O119  S    
O81   H25   S    
C128  C140  S    
C73   O37   A    
C128  O108  S    
C15   C23   S    
C16   C24   S    
C115  C122  A    
C87   O11   A    
C88   O12   A    
C124  C151  S    
O16   Zn12  S    
C128  C132  S    
C167  O150  S    
C101  C105  S    
C145  O74   S    
C36   C40   A    
C125  O105  S    
O160  H80   S    
C79   C81   S    
C21   C169  S    
C39   C43   A    
O104  H44   S    
O89   H33   S    
C100  O91   S    
C92   C95   A    
C121  C150  S    
C143  O70   S    
C114  C154  S    
O54   H7    S    
O5    Zn9   S    
C47   O27   A    
C39   O87   S    
C89   O13   A    
O156  H78   S    
C48   O28   A    
C100  C102  A    
O85   H29   S    
C155  O114  S    
O36   Zn8   S    
C141  O66   S    
C161  O137  D    
O86   H30   S    
C93   C96   A    
C142  O68   S    
O92   H36   S    
C68   C88   S    
C169  O154  S    
C90   C110  S    
O78   H23   S    
C159  O133  D    
C119  C122  A    
C34   C38   A    
C10   C134  S    
C77   C119  S    
C55   C67   T    
O72   H20   S    
C65   C85   S    
C157  O129  D    
C67   C87   S    
C11   C47   S    
O80   H24   S    
C90   O15   A    
C160  O135  D    
C28   C52   A    
O124  H60   S    
C164  O143  D    
C136  O60   S    
C29   C53   S    
C92   O94   S    
C69   C117  S    
C139  O54   S    
C160  O136  S    
C102  C106  S    
C83   C111  S    
C73   O33   A    
O107  H47   S    
C85   O9    A    
C120  C124  A    
C172  O160  S    
C46   O22   A    
O64   H16   S    
C132  O120  S    
O119  H55   S    
C83   O45   A    
C129  O121  S    
O50   H5    S    
O121  H57   S    
O87   H31   S    
C138  O52   S    
C93   C98   A    
C97   C101  A    
C2    C62   S    
