data_mof_unit_36644.cif
_audit_creation_date              2012-12-10T19:45:48-0500
_audit_creation_method            fapswitch 2.2
_symmetry_space_group_name_H-M    P1
_symmetry_Int_Tables_number       1
_space_group_crystal_system       triclinic
_cell_length_a                    10.793212
_cell_length_b                    14.710528
_cell_length_c                    14.729803
_cell_angle_alpha                 64.985685
_cell_angle_beta                  104.087562
_cell_angle_gamma                 103.471506
_cell_volume                      2032.98042072

loop_
_atom_site_label
_atom_site_type_symbol
_atom_type_description
_atom_site_fract_x
_atom_site_fract_y
_atom_site_fract_z
_atom_type_partial_charge
C1    C     C_R   0.477635 0.119630 0.312205 0.845464
C2    C     C_R   0.523319 0.880378 0.687844 0.823991
C3    C     C_R   0.870275 0.000602 0.498001 -0.248409
C4    C     C_R   0.127558 0.998281 0.500489 -0.253750
C5    C     C_R   0.905172 0.994625 0.414753 -0.169209
C6    C     C_R   0.092788 0.008942 0.581404 -0.172665
C7    C     C_R   0.459635 0.187134 0.204559 -0.121164
C8    C     C_R   0.544278 0.813095 0.795590 -0.139019
C9    C     C_R   0.387506 0.216652 0.025936 0.492736
C10   C     C_R   0.616396 0.784771 0.974151 0.500807
C11   C     C_R   0.401313 0.150073 0.128764 -0.272461
C12   C     C_R   0.601251 0.850922 0.871080 -0.322988
C13   C     C_R   0.499661 0.290863 0.178359 -0.210169
C14   C     C_R   0.508042 0.709023 0.822221 -0.212015
C15   C     C_R   0.475235 0.360451 0.078125 0.027166
C16   C     C_R   0.533910 0.640009 0.922603 0.029277
C17   C     C_R   0.431514 0.321398 0.001011 0.017514
C18   C     C_R   0.576104 0.679517 0.999448 0.018679
C19   C     C_R   0.502293 0.467376 0.052268 0.046689
C20   C     C_R   0.508320 0.533030 0.948821 0.046030
C21   C     C_R   0.490368 0.488919 0.875980 0.116329
C22   C     C_R   0.520565 0.511476 0.125189 0.114510
C23   C     C_R   0.262144 0.999944 0.499628 0.889878
C24   C     C_R   0.736967 0.001231 0.498034 0.868975
C25   C     C_R   0.441205 0.386427 0.900836 -0.239790
C26   C     C_R   0.568075 0.614285 0.099868 -0.242307
C27   C     C_R   0.719482 0.286749 0.665949 -0.312736
C28   C     C_R   0.287502 0.715664 0.329675 -0.319341
C29   C     C_R   0.681382 0.203118 0.639395 0.088829
C30   C     C_R   0.325967 0.799581 0.355805 0.048926
C31   C     C_R   0.517818 0.284844 0.509417 0.041939
C32   C     C_R   0.478645 0.713373 0.493607 -0.009221
C33   C     C_R   0.545051 0.369579 0.537867 -0.019294
C34   C     C_R   0.454853 0.629906 0.463831 -0.026400
C35   C     C_R   0.654029 0.371085 0.613569 0.095154
C36   C     C_R   0.348818 0.629500 0.385647 0.153423
C37   C     C_R   0.474160 0.454496 0.491023 0.037895
C38   C     C_R   0.526388 0.545327 0.511137 -0.024751
C39   C     C_R   0.649036 0.547551 0.575741 0.128386
C40   C     C_R   0.352685 0.452383 0.425864 0.120702
C41   C     C_R   0.703802 0.459141 0.631282 -0.193017
C42   C     C_R   0.298966 0.541351 0.368157 -0.261854
C43   C     C_R   0.330320 0.949489 0.827583 -0.154691
C44   C     C_R   0.733356 0.120704 0.146208 -0.160878
C45   C     C_R   0.236158 0.936823 0.748144 -0.177293
C46   C     C_R   0.818556 0.105494 0.237949 -0.125453
C47   C     C_R   0.190861 0.021685 0.666742 0.202822
C48   C     C_R   0.813064 0.009580 0.317936 0.166138
C49   C     C_R   0.241795 0.119223 0.665088 -0.081419
C50   C     C_R   0.720865 0.929270 0.304689 -0.110171
C51   C     C_R   0.338700 0.131721 0.743202 -0.111242
C52   C     C_R   0.635728 0.944758 0.212988 -0.106905
C53   C     C_R   0.382808 0.046849 0.824507 -0.080441
C54   C     C_R   0.642385 0.040295 0.133631 -0.121357
C55   C     C_R   0.962818 0.005426 0.582187 0.451330
C56   C     C_R   0.033541 0.986944 0.419200 0.449643
Cu1   Cu    Cu3+1 0.466270 0.918260 0.475690 0.936740
Cu2   Cu    Cu3+1 0.533730 0.081740 0.524310 0.959843
H1    H     H_    0.457159 0.056472 0.885325 0.144267
H2    H     H_    0.576613 0.052154 0.062594 0.145725
H3    H     H_    0.793936 0.462191 0.683075 0.156125
H4    H     H_    0.210718 0.538968 0.314345 0.143730
H5    H     H_    0.543578 0.713554 0.561293 0.146562
H6    H     H_    0.448912 0.282472 0.443992 0.179015
H7    H     H_    0.282245 0.867448 0.311115 0.136314
H8    H     H_    0.731597 0.137891 0.679601 0.150095
H9    H     H_    0.801527 0.286445 0.725544 0.139365
H10   H     H_    0.209439 0.717657 0.266917 0.134049
H11   H     H_    0.363198 0.883801 0.891210 0.149603
H12   H     H_    0.737692 0.194862 0.084890 0.138030
H13   H     H_    0.198330 0.861165 0.750116 0.113706
H14   H     H_    0.888720 0.168355 0.246794 0.129007
H15   H     H_    0.208024 0.185312 0.602546 0.135028
H16   H     H_    0.715154 0.854779 0.365166 0.119803
H17   H     H_    0.379194 0.207117 0.740921 0.150810
H18   H     H_    0.564885 0.882604 0.203364 0.153569
H19   H     H_    0.421055 0.356566 0.842050 0.187827
H20   H     H_    0.587908 0.644124 0.158639 0.193183
H21   H     H_    0.451661 0.683333 0.764074 0.196339
H22   H     H_    0.557297 0.315670 0.236775 0.194752
H23   H     H_    0.627339 0.931971 0.850004 0.165641
H24   H     H_    0.371981 0.069301 0.149351 0.160462
N1    N     N_R   0.584450 0.204570 0.560790 -0.193497
N2    N     N_R   0.415550 0.795430 0.439210 -0.177452
O1    O     O_R   0.455540 0.022090 0.338120 -0.580966
O2    O     O_R   0.544460 0.977910 0.661880 -0.577956
O3    O     O_R   0.512510 0.160150 0.379180 -0.601650
O4    O     O_R   0.487490 0.839850 0.620820 -0.600628
O5    O     O_R   0.291160 0.930970 0.479480 -0.568205
O6    O     O_R   0.708840 0.069030 0.520520 -0.549325
O7    O     O_R   0.348130 0.069020 0.520540 -0.582402
O8    O     O_R   0.651870 0.930980 0.479460 -0.603030
O9    O     O_3   0.341491 0.180876 0.948552 -0.611023
C57   C     C_3   0.222325 0.116288 0.963251 -0.346279
H25   H     H_    0.157606 0.144009 0.991425 0.164383
H26   H     H_    0.238444 0.037678 0.015212 0.163610
H27   H     H_    0.171341 0.113724 0.889071 0.207852
O10   O     O_3   0.657829 0.821019 0.051519 -0.600706
C58   C     C_3   0.771375 0.892569 0.035443 -0.352874
H28   H     H_    0.747110 0.969377 0.984420 0.167106
H29   H     H_    0.840654 0.871038 0.005489 0.149889
H30   H     H_    0.820971 0.896346 0.109455 0.203525
N3    N     N_3   0.534091 0.544148 0.780037 -0.622111
H31   H     H_    0.457072 0.539298 0.722519 0.215022
H32   H     H_    0.606327 0.508555 0.778404 0.228556
N4    N     N_3   0.478582 0.455918 0.221796 -0.612831
H33   H     H_    0.406477 0.490989 0.224469 0.229637
H34   H     H_    0.556389 0.461025 0.278696 0.215058
N5    N     N_3   0.731850 0.639095 0.576367 -0.615382
H35   H     H_    0.720773 0.655344 0.636197 0.220751
H36   H     H_    0.718819 0.699123 0.505905 0.217287
N6    N     N_3   0.276196 0.359492 0.423357 -0.632076
H37   H     H_    0.188807 0.351236 0.446820 0.223404
H38   H     H_    0.255191 0.364977 0.348211 0.222480
O11   O     O_3   0.927552 0.014482 0.662068 -0.573629
C59   C     C_3   0.889730 0.916534 0.732755 -0.318204
H39   H     H_    0.970379 0.870912 0.764806 0.156758
H40   H     H_    0.804442 0.875444 0.698704 0.148792
H41   H     H_    0.861904 0.924137 0.796633 0.179869
O12   O     O_3   0.070325 0.981620 0.337947 -0.574570
C60   C     C_3   0.038246 0.880490 0.344503 -0.295805
H42   H     H_    0.934475 0.850639 0.347149 0.151483
H43   H     H_    0.096361 0.829206 0.412041 0.181288
H44   H     H_    0.059000 0.878070 0.275519 0.161436

loop_
_geom_bond_atom_site_label_1
_geom_bond_atom_site_label_2
_ccdc_geom_bond_type
C1    O3    A    
O9    C57   S    
Cu1   O8    S    
C45   H13   S    
C5    C56   A    
C36   C42   A    
C19   C20   A    
C18   C26   A    
C41   H3    S    
C6    C55   A    
Cu2   O3    S    
N6    H38   S    
C53   H1    S    
C39   C41   A    
C54   H2    S    
C7    C11   A    
C26   H20   S    
Cu1   O5    S    
C25   H19   S    
C28   H10   S    
C51   H17   S    
C29   N1    A    
C37   C40   A    
C50   H16   S    
C38   C39   A    
C27   C29   A    
N4    H33   S    
O11   C59   S    
Cu2   O2    S    
C31   N1    A    
C59   H39   S    
C10   O10   S    
C60   H44   S    
C3    C55   A    
C43   C53   A    
C44   C46   A    
C49   C51   A    
C50   C52   A    
C23   O5    A    
C44   H12   S    
C14   C16   A    
Cu2   O7    S    
C42   H4    S    
C46   H14   S    
C16   C20   A    
C3    C5    A    
N4    H34   S    
C48   C50   A    
C13   H22   S    
C43   H11   S    
C1    C7    S    
C4    C56   A    
C56   O12   S    
C3    C24   S    
C24   O8    A    
N6    H37   S    
C52   C54   A    
C45   C47   A    
C11   H24   S    
C1    O1    A    
C32   N2    A    
C5    C48   S    
C46   C48   A    
C6    C47   S    
C19   C22   A    
C4    C6    A    
C4    C23   S    
C57   H27   S    
C27   C35   A    
C22   N4    S    
C33   C37   A    
C51   C53   A    
C32   C34   A    
C15   C19   A    
C37   C38   A    
C43   C45   A    
C58   H28   S    
C7    C13   A    
C8    C12   A    
C31   C33   A    
Cu1   N2    S    
N3    H32   S    
C14   H21   S    
C57   H26   S    
C9    C11   A    
C60   H42   S    
C10   C12   A    
Cu2   O6    S    
C9    C17   A    
C58   H29   S    
C13   C15   A    
C49   H15   S    
C2    O4    A    
C9    O9    S    
O12   C60   S    
C15   C17   A    
C21   C25   A    
C8    C14   A    
C34   C38   A    
C31   H6    S    
C2    C8    S    
C32   H5    S    
C40   C42   A    
C52   H18   S    
C24   O6    A    
C59   H41   S    
C47   C49   A    
Cu1   O4    S    
C17   C25   A    
N5    H36   S    
Cu2   N1    S    
C40   N6    S    
Cu1   Cu2   S    
C55   O11   S    
C10   C18   A    
C28   C30   A    
C33   C35   A    
C34   C36   A    
C59   H40   S    
C12   H23   S    
C2    O2    A    
C23   O7    A    
C30   N2    A    
C57   H25   S    
C35   C41   A    
C60   H43   S    
C30   H7    S    
C27   H9    S    
C29   H8    S    
C21   N3    S    
C44   C54   A    
C39   N5    S    
C58   H30   S    
C20   C21   A    
C28   C36   A    
C16   C18   A    
O10   C58   S    
C22   C26   A    
N3    H31   S    
N5    H35   S    
Cu1   O1    S    
