data_mof_unit_26786.cif
_audit_creation_date              2012-10-26T20:07:06-0400
_audit_creation_method            fapswitch 2.2
_symmetry_space_group_name_H-M    P1
_symmetry_Int_Tables_number       1
_space_group_crystal_system       triclinic
_cell_length_a                    10.933127
_cell_length_b                    9.808188
_cell_length_c                    27.651397
_cell_angle_alpha                 90.522753
_cell_angle_beta                  100.654878
_cell_angle_gamma                 90.147457
_cell_volume                      2913.90236334

loop_
_atom_site_label
_atom_site_type_symbol
_atom_type_description
_atom_site_fract_x
_atom_site_fract_y
_atom_site_fract_z
_atom_type_partial_charge
C1    C     C_R   0.264627 0.500585 0.504074 0.508565
C2    C     C_R   0.382832 0.598197 0.866311 0.030558
C3    C     C_R   0.495187 0.498953 0.353685 0.033985
C4    C     C_R   0.508483 0.501032 0.646537 0.029412
C5    C     C_R   0.396298 0.578239 0.969295 0.023908
C6    C     C_R   0.626555 0.606013 0.033485 -0.016267
C7    C     C_R   0.622948 0.591961 0.981523 -0.028735
C8    C     C_R   0.403813 0.550972 0.019852 0.021836
C9    C     C_R   0.505591 0.579798 0.949913 0.017533
C10   C     C_R   0.516746 0.580365 0.052478 0.020224
C11   C     C_R   0.284082 0.613654 0.938324 -0.045895
C12   C     C_R   0.735345 0.500609 0.495923 0.509604
C13   C     C_R   0.735968 0.636117 0.067453 -0.097099
C14   C     C_R   0.278301 0.634290 0.887770 0.266304
C15   C     C_R   0.736211 0.657970 0.117459 0.268628
C16   C     C_R   0.493899 0.499234 0.407143 0.606955
C17   C     C_R   0.506468 0.500216 0.592850 0.605331
C18   C     C_R   0.303795 0.492238 0.038584 -0.040917
C19   C     C_R   0.729540 0.586034 0.958992 -0.025444
C20   C     C_R   0.064007 0.380355 0.508810 0.006753
C21   C     C_R   0.934826 0.629830 0.495080 -0.017226
C22   C     C_R   0.935006 0.380223 0.490640 0.005718
C23   C     C_R   0.521599 0.575485 0.104131 -0.092697
C24   C     C_R   0.065824 0.629888 0.505178 -0.018336
C25   C     C_R   0.868943 0.503741 0.491574 -0.109153
C26   C     C_R   0.130941 0.503775 0.508333 -0.109158
C27   C     C_R   0.419595 0.074743 0.464419 0.264701
C28   C     C_R   0.573317 0.928956 0.538131 0.279731
C29   C     C_R   0.579843 0.077108 0.535770 0.265409
C30   C     C_R   0.425151 0.926209 0.462159 0.284265
C31   C     C_R   0.430368 0.507719 0.173487 0.467933
C32   C     C_R   0.593273 0.520275 0.828332 0.467224
C33   C     C_R   0.629426 0.614579 0.188632 0.465184
C34   C     C_R   0.497220 0.572392 0.898296 -0.095327
C35   C     C_R   0.379762 0.587438 0.814855 0.465295
C36   C     C_R   0.616720 0.477136 0.288887 -0.059762
C37   C     C_R   0.400153 0.457885 0.714002 -0.058844
C38   C     C_R   0.604338 0.458084 0.337819 -0.170977
C39   C     C_R   0.407856 0.443542 0.664269 -0.168466
C40   C     C_R   0.397984 0.558088 0.319161 0.209184
C41   C     C_R   0.603281 0.568517 0.680230 0.231363
C42   C     C_R   0.428327 0.612395 0.276068 0.056215
C43   C     C_R   0.571931 0.618735 0.723989 0.055764
C44   C     C_R   0.528910 0.555363 0.257478 0.199159
C45   C     C_R   0.416548 0.529650 0.122508 0.028450
C46   C     C_R   0.481728 0.547045 0.744548 0.196119
C47   C     C_2   0.353390 0.726631 0.251161 0.372148
C48   C     C_2   0.638310 0.740789 0.748165 0.381207
C49   C     C_2   0.213426 0.396555 0.008143 0.282857
C50   C     C_2   0.832667 0.686296 0.971595 0.248677
C51   C     C_2   0.123685 0.260113 0.536624 0.324733
C52   C     C_2   0.867411 0.761043 0.483677 0.331434
C53   C     C_2   0.874334 0.259329 0.462402 0.323616
C54   C     C_2   0.133999 0.761507 0.516834 0.332718
C55   C     C_R   0.603367 0.534218 0.879544 0.013658
C56   C     C_R   0.303968 0.499936 0.089401 0.169451
C57   C     C_R   0.717468 0.520677 0.912925 0.259872
C58   C     C_R   0.630812 0.617802 0.137299 0.023199
Cu1   Cu    Cu3+1 0.500000 0.640660 0.500000 1.157885
Cu2   Cu    Cu3+1 0.500000 0.359340 0.500000 1.137270
H1    H     H_    0.337134 0.385489 0.639917 0.127448
H2    H     H_    0.799525 0.729221 0.580554 0.380590
H3    H     H_    0.816356 0.337799 0.586860 0.377771
H4    H     H_    0.197535 0.715897 0.419588 0.377966
H5    H     H_    0.277028 0.767895 0.266698 0.162560
H6    H     H_    0.712448 0.787157 0.732650 0.196561
H7    H     H_    0.072811 0.640281 0.053566 0.365664
H8    H     H_    0.936880 0.413095 0.978867 0.364685
H9    H     H_    0.107220 0.873197 0.800169 0.394201
H10   H     H_    0.907875 0.901910 0.205327 0.390110
H11   H     H_    0.135083 0.356196 0.022303 0.199840
H12   H     H_    0.678624 0.409303 0.363053 0.120549
H13   H     H_    0.819488 0.778495 0.991997 0.143861
H14   H     H_    0.220677 0.262367 0.554215 0.114175
H15   H     H_    0.797026 0.768763 0.450528 0.131578
H16   H     H_    0.777430 0.261538 0.444710 0.115110
H17   H     H_    0.203908 0.770783 0.550148 0.132541
H18   H     H_    0.329258 0.402323 0.728384 0.184483
H19   H     H_    0.695609 0.433730 0.275753 0.184461
H20   H     H_    0.202136 0.631961 0.954204 0.188249
H21   H     H_    0.823721 0.645490 0.056207 0.180314
H22   H     H_    0.104686 0.613810 0.267697 0.374962
H23   H     H_    0.925391 0.515622 0.742953 0.414437
H24   H     H_    0.186105 0.334948 0.412789 0.379617
N1    N     N_R   0.530391 0.559817 0.205338 -0.391374
N2    N     N_R   0.484190 0.551078 0.797117 -0.389573
N3    N     N_R   0.500000 0.852070 0.500000 -0.308277
N4    N     N_R   0.500000 0.147930 0.500000 -0.332704
O1    O     O_R   0.319640 0.618740 0.500000 -0.487912
O2    O     O_2   0.693174 0.482372 0.809419 -0.349196
O3    O     O_2   0.274009 0.610710 0.782567 -0.396715
O4    O     O_2   0.725587 0.662531 0.221955 -0.386470
O5    O     O_2   0.253733 0.336177 0.309372 -0.127673
O6    O     O_2   0.179041 0.526455 0.352674 -0.279576
O7    O     O_3   0.156143 0.538401 0.258447 -0.421128
O8    O     O_2   0.753096 0.353109 0.692894 -0.171481
O9    O     O_2   0.820697 0.537449 0.645421 -0.254120
O10   O     O_3   0.847433 0.568903 0.739055 -0.462339
O11   O     O_2   0.345281 0.130463 0.369611 -0.165370
O12   O     O_R   0.680360 0.381260 0.500000 -0.488398
O13   O     O_2   0.182783 0.094008 0.419980 -0.203109
O14   O     O_3   0.277607 0.326101 0.416256 -0.435652
O15   O     O_2   0.745129 0.916394 0.631539 -0.171376
O16   O     O_2   0.541800 0.821571 0.623464 -0.296910
O17   O     O_3   0.713870 0.702619 0.583660 -0.447768
O18   O     O_2   0.649751 0.142534 0.630626 -0.168289
O19   O     O_2   0.815414 0.095923 0.582546 -0.205440
O20   O     O_3   0.724722 0.330605 0.583566 -0.435758
O21   O     O_2   0.244546 0.907362 0.371178 -0.179291
O22   O     O_2   0.448540 0.818023 0.375157 -0.291781
O23   O     O_R   0.680360 0.618740 0.500000 -0.489310
O24   O     O_3   0.283967 0.693237 0.416390 -0.450983
O25   O     O_2   0.379342 0.780747 0.214754 -0.431119
O26   O     O_2   0.607724 0.794728 0.784051 -0.439059
O27   O     O_2   0.128501 0.358000 0.124132 -0.154906
O28   O     O_2   0.162152 0.595454 0.152161 -0.132362
O29   O     O_3   0.044527 0.550485 0.063494 -0.551318
O30   O     O_2   0.772065 0.282158 0.872823 -0.161440
O31   O     O_2   0.929531 0.462958 0.880746 -0.128704
O32   O     O_3   0.898493 0.334127 0.959290 -0.460185
O33   O     O_2   0.064814 0.612649 0.822698 -0.180622
O34   O     O_R   0.319640 0.381260 0.500000 -0.489128
O35   O     O_2   0.068726 0.777386 0.889980 -0.194547
O36   O     O_3   0.186130 0.840299 0.820112 -0.445642
O37   O     O_2   0.939236 0.634913 0.187330 -0.176418
O38   O     O_2   0.956204 0.787094 0.119086 -0.238178
O39   O     O_3   0.829886 0.871401 0.183688 -0.442710
O40   O     O_2   0.231035 0.351354 0.968727 -0.436558
O41   O     O_2   0.931626 0.670260 0.957976 -0.436486
O42   O     O_2   0.062857 0.160735 0.544317 -0.366246
O43   O     O_2   0.886110 0.858747 0.511797 -0.401239
O44   O     O_2   0.934221 0.159347 0.454510 -0.365627
O45   O     O_R   0.500020 0.618770 0.430260 -0.423951
O46   O     O_2   0.116602 0.857662 0.488679 -0.400466
O47   O     O_R   0.499980 0.381230 0.569740 -0.454793
O48   O     O_R   0.499980 0.618770 0.569740 -0.421989
O49   O     O_R   0.500020 0.381230 0.430260 -0.453574
O50   O     O_2   0.347565 0.429767 0.191383 -0.346202
S1    S     S_3+6 0.244687 0.488558 0.311601 0.103996
S2    S     S_3+6 0.871300 0.736974 0.152167 0.117618
S3    S     S_3+6 0.758326 0.505173 0.687733 0.095610
S4    S     S_3+6 0.306693 0.159129 0.418110 0.144851
S5    S     S_3+6 0.644877 0.846749 0.595416 0.113606
S6    S     S_3+6 0.692177 0.164183 0.582556 0.143814
S7    S     S_3+6 0.349044 0.840232 0.405282 0.112594
S8    S     S_3+6 0.157948 0.499545 0.109225 0.099462
S9    S     S_3+6 0.831506 0.398300 0.904621 0.161415
S10   S     S_3+6 0.143586 0.715519 0.855021 0.131016

loop_
_geom_bond_atom_site_label_1
_geom_bond_atom_site_label_2
_ccdc_geom_bond_type
C2    C35   A    
H10   O39   S    
C23   C58   A    
C33   C58   A    
C31   N1    A    
C14   S10   S    
H24   O14   S    
O11   S4    D    
C16   O49   A    
C51   H14   S    
C52   H15   S    
C57   S9    S    
Cu2   N4    S    
H2    O17   S    
C19   C57   A    
C41   S3    S    
O36   S10   S    
O27   S8    D    
O38   S2    D    
C23   C45   A    
O30   S9    D    
C30   N3    A    
C24   C26   A    
C5    C11   A    
C20   C51   S    
C35   N2    A    
H4    O24   S    
C4    C41   A    
C24   C54   S    
C54   O46   D    
C40   S1    S    
C13   H21   S    
Cu1   O48   S    
C27   S4    S    
O24   S7    S    
C47   O25   D    
Cu1   O1    S    
C33   N1    A    
C1    O34   A    
C29   N4    A    
O8    S3    D    
C32   O2    S    
C45   C56   A    
H23   O10   S    
C17   O47   A    
Cu1   O23   S    
O22   S7    D    
C43   C48   S    
C32   C55   A    
C37   C46   A    
C18   C56   A    
Cu2   O49   S    
C54   H17   S    
C2    C34   A    
C40   C42   A    
Cu1   Cu2   S    
C27   C30   A    
O6    S1    D    
C41   C43   A    
C42   C44   A    
C17   O48   A    
C16   O45   A    
C51   O42   D    
C22   C53   S    
O37   S2    D    
C39   H1    S    
C38   H12   S    
O33   S10   D    
C3    C38   A    
C11   H20   S    
C50   H13   S    
C28   S5    S    
H9    O36   S    
C29   S6    S    
C22   C25   A    
C8    C18   A    
O29   S8    S    
C5    C9    A    
O5    S1    D    
C50   O41   D    
O13   S4    D    
C4    C39   A    
C32   N2    A    
C28   N3    A    
O16   S5    D    
C53   O44   D    
C31   O50   S    
Cu2   O34   S    
H7    O29   S    
Cu2   O47   S    
O9    S3    D    
C4    C17   S    
C20   C22   A    
C3    C40   A    
C7    C19   A    
C13   C15   A    
O10   S3    S    
C49   H11   S    
C9    C34   A    
C15   C58   A    
C33   O4    S    
C53   H16   S    
O39   S2    S    
C44   N1    S    
O20   S6    S    
C30   S7    S    
C48   O26   D    
C15   S2    S    
C7    C9    A    
C49   O40   D    
C21   C25   A    
C28   C29   A    
C1    O1    A    
H22   O7    S    
C52   O43   D    
O21   S7    D    
Cu2   O12   S    
C36   H19   S    
O15   S5    D    
O17   S5    S    
C5    C8    A    
O18   S6    D    
C6    C7    A    
C10   C23   A    
C37   H18   S    
O7    S1    S    
C12   C25   S    
C55   C57   A    
O19   S6    D    
C37   C39   A    
H8    O32   S    
C6    C13   A    
O28   S8    D    
C19   C50   S    
C1    C26   S    
C20   C26   A    
C36   C38   A    
C11   C14   A    
Cu1   O45   S    
C42   C47   S    
C21   C52   S    
C56   S8    S    
C27   N4    A    
C2    C14   A    
C43   C46   A    
Cu1   N3    S    
C12   O12   A    
C36   C44   A    
C6    C10   A    
C34   C55   A    
O35   S10   D    
O32   S9    S    
C8    C10   A    
C31   C45   A    
C21   C24   A    
O14   S4    S    
C48   H6    S    
H3    O20   S    
O31   S9    D    
C47   H5    S    
C12   O23   A    
C3    C16   S    
C18   C49   S    
C46   N2    S    
C35   O3    S    
