data_mof_unit_30288.cif
_audit_creation_date              2012-12-10T16:43:22-0500
_audit_creation_method            fapswitch 2.2
_symmetry_space_group_name_H-M    P1
_symmetry_Int_Tables_number       1
_space_group_crystal_system       triclinic
_cell_length_a                    10.811781
_cell_length_b                    8.6872
_cell_length_c                    7.41595
_cell_angle_alpha                 102.64705
_cell_angle_beta                  93.638617
_cell_angle_gamma                 92.781293
_cell_volume                      676.871714364

loop_
_atom_site_label
_atom_site_type_symbol
_atom_type_description
_atom_site_fract_x
_atom_site_fract_y
_atom_site_fract_z
_atom_type_partial_charge
C1    C     C_R   0.484932 0.200381 0.454817 0.884718
C2    C     C_R   0.069674 0.552333 0.679388 0.069827
C3    C     C_R   0.126564 0.489110 0.513398 -0.100126
C4    C     C_R   0.053268 0.440609 0.345776 -0.211899
C5    C     C_R   0.926814 0.456879 0.339670 -0.189249
C6    C     C_R   0.872427 0.533540 0.497872 -0.102835
C7    C     C_2   0.449617 0.035286 0.435246 -0.043145
C8    C     C_2   0.497685 0.967127 0.567417 -0.377160
C9    C     C_R   0.261572 0.492899 0.503715 0.767363
C10   C     C_R   0.496147 0.799536 0.545891 0.914954
C11   C     C_R   0.737698 0.514812 0.499121 0.858671
C12   C     C_R   0.128548 0.572080 0.860164 -0.159382
C13   C     C_R   0.076906 0.660997 0.013328 -0.222255
C14   C     C_R   0.969319 0.737058 0.989082 -0.156209
C15   C     C_R   0.905760 0.710735 0.814430 0.261810
C16   C     C_R   0.947459 0.600070 0.663237 0.049138
Cu1   Cu    Cu3+1 0.513920 0.517380 0.684380 0.978892
Cu2   Cu    Cu3+1 0.486080 0.482620 0.315620 0.947730
H1    H     H_    0.093571 0.387055 0.218697 0.169158
H2    H     H_    0.596565 0.622594 0.051408 0.244184
H3    H     H_    0.210877 0.514484 0.889386 0.170773
H4    H     H_    0.123915 0.677387 0.149997 0.171676
H5    H     H_    0.936707 0.819117 0.105601 0.173251
H6    H     H_    0.871339 0.407091 0.211379 0.181678
H7    H     H_    0.552537 0.036326 0.688737 0.191379
H8    H     H_    0.403964 0.376761 0.948505 0.217228
N1    N     N_2   0.465100 0.456430 0.038520 -0.230420
N2    N     N_2   0.534900 0.543570 0.961480 -0.208457
O1    O     O_R   0.509050 0.286130 0.619770 -0.598438
O2    O     O_R   0.485540 0.256780 0.308360 -0.574365
O3    O     O_R   0.331410 0.514680 0.655740 -0.607326
O4    O     O_R   0.307900 0.485330 0.344330 -0.608073
O5    O     O_R   0.514460 0.743220 0.691640 -0.547557
O6    O     O_R   0.490950 0.713870 0.380230 -0.597300
O7    O     O_R   0.692100 0.514670 0.655670 -0.552760
O8    O     O_R   0.668590 0.485320 0.344260 -0.587978
Br1   Br    Br    0.787344 0.860794 0.781604 -0.578693
C17   C     C_3   0.354438 0.954685 0.277024 -0.355013
C18   C     C_3   0.237879 0.047632 0.272761 -0.867189
H9    H     H_    0.197126 0.067466 0.409148 0.251419
H10   H     H_    0.258926 0.163005 0.237157 0.263304
H11   H     H_    0.167806 0.980328 0.165148 0.254875
H12   H     H_    0.397296 0.942745 0.142770 0.227127
H13   H     H_    0.320625 0.835641 0.290019 0.226673

loop_
_geom_bond_atom_site_label_1
_geom_bond_atom_site_label_2
_ccdc_geom_bond_type
C14   H5    S    
C17   H13   S    
C3    C9    S    
C10   O5    A    
Cu1   O1    S    
C4    H1    S    
C2    C12   A    
C11   O7    A    
Cu1   Cu2   S    
C7    C8    D    
C10   O6    A    
C13   C14   A    
C8    H7    S    
Cu2   O6    S    
H8    N1    S    
C5    C6    A    
C5    H6    S    
Cu1   O5    S    
Cu2   O2    S    
C1    O1    A    
C11   O8    A    
C7    C17   S    
C13   H4    S    
C2    C3    A    
C18   H11   S    
C17   C18   S    
Cu1   O3    S    
Cu2   O4    S    
C9    O3    A    
C6    C16   A    
C3    C4    A    
C18   H9    S    
C17   H12   S    
C2    C16   A    
C12   C13   A    
C18   H10   S    
C6    C11   S    
C14   C15   A    
C1    O2    A    
Cu1   O7    S    
H2    N2    S    
C9    O4    A    
C1    C7    S    
Cu1   N2    S    
Cu2   O8    S    
C12   H3    S    
C8    C10   S    
C15   Br1   S    
Cu2   N1    S    
C15   C16   A    
C4    C5    A    
N1    N2    D    
