data_mof_unit_38295.cif
_audit_creation_date              2012-12-10T19:11:19-0500
_audit_creation_method            fapswitch 2.2
_symmetry_space_group_name_H-M    P1
_symmetry_Int_Tables_number       1
_space_group_crystal_system       triclinic
_cell_length_a                    15.954273
_cell_length_b                    9.087182
_cell_length_c                    7.782323
_cell_angle_alpha                 90.029474
_cell_angle_beta                  89.927426
_cell_angle_gamma                 90.04133
_cell_volume                      1128.27503499

loop_
_atom_site_label
_atom_site_type_symbol
_atom_type_description
_atom_site_fract_x
_atom_site_fract_y
_atom_site_fract_z
_atom_type_partial_charge
C1    C     C_R   0.499998 0.220019 0.499973 0.842011
C2    C     C_1   0.824304 0.503172 0.498495 -0.025463
C3    C     C_1   0.175698 0.502838 0.500406 -0.024764
C4    C     C_R   0.339947 0.499962 0.500109 0.820705
C5    C     C_R   0.660052 0.500182 0.499877 0.820237
C6    C     C_1   0.500001 0.934623 0.500036 -0.178948
C7    C     C_1   0.499999 0.065383 0.499962 -0.178728
C8    C     C_R   0.500003 0.779988 0.500026 0.841077
C9    C     C_3   0.047605 0.486393 0.688135 -0.005377
C10   C     C_3   0.049760 0.377055 0.381064 -0.001763
C11   C     C_3   0.949973 0.465575 0.683124 -0.009349
C12   C     C_3   0.952194 0.391338 0.361913 -0.000832
C13   C     C_1   0.749162 0.501583 0.499413 -0.195937
C14   C     C_1   0.250841 0.501158 0.500368 -0.196140
C15   C     C_3   0.083372 0.505553 0.499442 0.153684
C16   C     C_3   0.916627 0.505512 0.497552 0.153715
C17   C     C_3   0.949646 0.667987 0.447657 0.286039
C18   C     C_3   0.050876 0.660284 0.422723 0.287973
Cu1   Cu    Cu3+1 0.500000 0.500010 0.669080 1.001846
Cu2   Cu    Cu3+1 0.500000 0.500010 0.330920 1.001578
H1    H     H_    0.077428 0.393099 0.251594 0.142854
H2    H     H_    0.057971 0.591534 0.756186 0.132709
H3    H     H_    0.942093 0.439055 0.233081 0.127867
H4    H     H_    0.922574 0.546299 0.774402 0.143315
N1    N     N_1   0.500000 0.499970 0.076820 -0.047314
N2    N     N_1   0.500000 0.499970 0.923180 -0.047336
O1    O     O_R   0.500000 0.288400 0.642760 -0.577427
O2    O     O_R   0.500000 0.288400 0.357240 -0.577381
O3    O     O_R   0.379440 0.500020 0.642850 -0.578162
O4    O     O_R   0.379440 0.500020 0.357150 -0.578190
O5    O     O_R   0.620560 0.500020 0.642850 -0.577419
O6    O     O_R   0.620560 0.500020 0.357150 -0.577855
O7    O     O_R   0.500000 0.711620 0.642810 -0.577353
O8    O     O_R   0.500000 0.711620 0.357190 -0.577604
C19   C     C_3   0.097266 0.793406 0.509281 -0.829856
H5    H     H_    0.092666 0.797232 0.650714 0.206092
H6    H     H_    0.165305 0.792822 0.478639 0.235583
H7    H     H_    0.072441 0.898894 0.459098 0.236048
C20   C     C_3   0.077541 0.675214 0.228912 -0.872535
H8    H     H_    0.067507 0.788958 0.180815 0.241414
H9    H     H_    0.145281 0.651332 0.211570 0.237793
H10   H     H_    0.042842 0.601927 0.140822 0.197935
C21   C     C_3   0.923197 0.781550 0.590164 -0.871637
H11   H     H_    0.957531 0.769196 0.712479 0.200757
H12   H     H_    0.933872 0.896671 0.547233 0.239963
H13   H     H_    0.855326 0.772454 0.620206 0.233671
C22   C     C_3   0.903611 0.728381 0.283926 -0.819603
H14   H     H_    0.835567 0.743950 0.308437 0.236515
H15   H     H_    0.928578 0.838376 0.248182 0.232705
H16   H     H_    0.908120 0.657240 0.169284 0.202835
C23   C     C_3   0.917301 0.319059 0.760173 -0.816265
H17   H     H_    0.953265 0.222354 0.718085 0.238855
H18   H     H_    0.922117 0.322751 0.902582 0.216330
H19   H     H_    0.850179 0.300900 0.730065 0.236896
C24   C     C_3   0.903917 0.244024 0.343883 -0.839802
H20   H     H_    0.903732 0.177051 0.461781 0.246936
H21   H     H_    0.837808 0.264371 0.306573 0.233365
H22   H     H_    0.931853 0.177168 0.238951 0.223311
C25   C     C_3   0.095524 0.378960 0.807342 -0.831700
H23   H     H_    0.096046 0.264434 0.761090 0.249727
H24   H     H_    0.161519 0.415067 0.823716 0.236586
H25   H     H_    0.066970 0.379959 0.937389 0.215755
C26   C     C_3   0.081917 0.220715 0.424584 -0.831490
H26   H     H_    0.045719 0.166753 0.526994 0.237932
H27   H     H_    0.076778 0.149141 0.309245 0.217015
H28   H     H_    0.149052 0.221569 0.461202 0.236607

loop_
_geom_bond_atom_site_label_1
_geom_bond_atom_site_label_2
_ccdc_geom_bond_type
C10   H1    S    
C5    O5    A    
C15   C18   S    
C6    C8    S    
C18   C20   S    
C26   H27   S    
C6    C7    T    
C23   H17   S    
C1    O2    A    
C2    C16   S    
C18   C19   S    
C5    C13   S    
Cu1   Cu2   S    
C24   H20   S    
C23   H19   S    
Cu2   O8    S    
C5    O6    A    
C10   C26   S    
C17   C21   S    
C17   C18   S    
C9    C15   S    
C26   H28   S    
Cu1   O5    S    
C25   H23   S    
C20   H9    S    
C24   H21   S    
C8    O8    A    
C21   H12   S    
C12   H3    S    
C3    C14   T    
C10   C12   S    
C2    C13   T    
C19   H6    S    
C22   H16   S    
C10   C15   S    
C9    C11   S    
C21   H11   S    
C4    C14   S    
C21   H13   S    
C9    H2    S    
C25   H24   S    
C12   C24   S    
C11   C23   S    
Cu2   N1    S    
C26   H26   S    
Cu1   O3    S    
C22   H14   S    
C12   C16   S    
C11   H4    S    
C19   H7    S    
Cu1   O1    S    
C22   H15   S    
Cu2   O6    S    
C24   H22   S    
C20   H8    S    
C1    O1    A    
Cu1   N2    S    
C20   H10   S    
C16   C17   S    
C3    C15   S    
Cu2   O4    S    
Cu2   O2    S    
C23   H18   S    
N1    N2    T    
C1    C7    S    
C9    C25   S    
C11   C16   S    
C4    O4    A    
C4    O3    A    
C17   C22   S    
Cu1   O7    S    
C8    O7    A    
C25   H25   S    
C19   H5    S    
