data_mof_unit_45296.cif
_audit_creation_date              2012-10-26T19:20:34-0400
_audit_creation_method            fapswitch 2.2
_symmetry_space_group_name_H-M    P1
_symmetry_Int_Tables_number       1
_space_group_crystal_system       triclinic
_cell_length_a                    10.898571
_cell_length_b                    11.081662
_cell_length_c                    9.796847
_cell_angle_alpha                 111.198243
_cell_angle_beta                  97.995165
_cell_angle_gamma                 90.436177
_cell_volume                      1090.27177554

loop_
_atom_site_label
_atom_site_type_symbol
_atom_type_description
_atom_site_fract_x
_atom_site_fract_y
_atom_site_fract_z
_atom_type_partial_charge
Br1   Br    Br    0.091100 0.120881 0.974333 -0.524559
Br2   Br    Br    0.908885 0.879106 0.025669 -0.524564
C1    C     C_R   0.490950 0.254125 0.440701 0.556564
C2    C     C_R   0.737273 0.499817 0.498293 0.533870
C3    C     C_R   0.156114 0.692342 0.738554 -0.125516
C4    C     C_R   0.843885 0.307651 0.261462 -0.125517
C5    C     C_R   0.106780 0.775683 0.859284 -0.055788
C6    C     C_R   0.893217 0.224305 0.140731 -0.055789
C7    C     C_R   0.979453 0.775023 0.856565 0.202862
C8    C     C_R   0.020539 0.224973 0.143437 0.202850
C9    C     C_R   0.902086 0.695078 0.730821 -0.063609
C10   C     C_R   0.097909 0.304927 0.269172 -0.063615
C11   C     C_R   0.949800 0.596547 0.615075 -0.016241
C12   C     C_R   0.509050 0.745875 0.559299 0.556564
C13   C     C_R   0.050198 0.403456 0.384923 -0.016239
C14   C     C_R   0.079671 0.594878 0.619204 0.003165
C15   C     C_R   0.920328 0.405122 0.380800 0.003164
C16   C     C_R   0.870850 0.501387 0.496441 -0.005473
C17   C     C_R   0.129149 0.498615 0.503559 -0.005473
C18   C     C_2   0.485850 0.115070 0.407295 -0.113582
C19   C     C_2   0.514150 0.884930 0.592705 -0.113581
C20   C     C_2   0.502465 0.069493 0.516734 -0.142298
C21   C     C_2   0.497535 0.930507 0.483266 -0.142298
C22   C     C_2   0.510317 0.509803 0.081349 -0.018832
C23   C     C_2   0.489682 0.490198 0.918651 -0.018836
C24   C     C_R   0.262726 0.500184 0.501707 0.533875
Cu1   Cu    Cu3+1 0.521920 0.521810 0.644910 0.954134
Cu2   Cu    Cu3+1 0.478080 0.478190 0.355090 0.954133
H1    H     H_    0.254627 0.706507 0.743363 0.158463
H2    H     H_    0.468410 0.049368 0.292170 0.117160
H3    H     H_    0.417452 0.419314 0.845445 0.159672
H4    H     H_    0.582547 0.580687 0.154555 0.159673
H5    H     H_    0.622999 0.621215 0.934470 0.227302
H6    H     H_    0.377001 0.378784 0.065530 0.227298
H7    H     H_    0.745377 0.293484 0.256667 0.158461
H8    H     H_    0.167826 0.842160 0.953937 0.171939
H9    H     H_    0.832171 0.157820 0.046089 0.171949
H10   H     H_    0.804907 0.712435 0.728528 0.169219
H11   H     H_    0.195087 0.287573 0.271454 0.169225
H12   H     H_    0.480117 0.865062 0.367963 0.160925
H13   H     H_    0.519883 0.134938 0.632037 0.160925
H14   H     H_    0.531590 0.950632 0.707830 0.117161
N1    N     N_2   0.445130 0.445420 0.137360 -0.351598
N2    N     N_2   0.554870 0.554580 0.862640 -0.351598
O1    O     O_R   0.511700 0.332340 0.577400 -0.492995
O2    O     O_R   0.488300 0.667660 0.422600 -0.492996
O3    O     O_R   0.474680 0.295500 0.332650 -0.497339
O4    O     O_R   0.525320 0.704500 0.667350 -0.497339
O5    O     O_R   0.338170 0.518410 0.622370 -0.511537
O6    O     O_R   0.661830 0.481590 0.377630 -0.511534
O7    O     O_R   0.301150 0.481570 0.377630 -0.495905
O8    O     O_R   0.698850 0.518430 0.622370 -0.495901

loop_
_geom_bond_atom_site_label_1
_geom_bond_atom_site_label_2
_ccdc_geom_bond_type
Cu1   O4    S    
C23   H3    S    
C9    H10   S    
C4    C6    A    
C22   H4    S    
Cu2   O3    S    
C13   C15   A    
C9    C11   A    
C5    H8    S    
Cu2   N1    S    
C10   C13   A    
C2    C16   S    
Cu1   O1    S    
C10   H11   S    
C15   C16   A    
C3    C5    A    
C1    C18   S    
C12   O2    A    
C18   H2    S    
C24   O7    A    
C22   C23   S    
C13   C17   A    
C7    C9    A    
Cu2   O2    S    
C8    C10   A    
C11   C16   A    
C2    O8    A    
C14   C17   A    
C12   C19   S    
C1    O3    A    
C18   C20   D    
C3    H1    S    
C19   C21   D    
Cu1   O8    S    
C22   N1    D    
Cu2   O7    S    
C11   C14   A    
C20   H13   S    
C6    H9    S    
H6    N1    S    
C21   H12   S    
Cu1   O5    S    
C4    H7    S    
C23   N2    D    
C6    C8    A    
C24   O5    A    
Cu1   Cu2   S    
C5    C7    A    
C4    C15   A    
C20   C21   S    
C3    C14   A    
C12   O4    A    
Br2   C7    S    
Cu2   O6    S    
Cu1   N2    S    
C1    O1    A    
Br1   C8    S    
C19   H14   S    
C2    O6    A    
H5    N2    S    
C17   C24   S    
