data_mof_unit_22110.cif
_audit_creation_date              2012-10-26T18:33:35-0400
_audit_creation_method            fapswitch 2.2
_symmetry_space_group_name_H-M    P1
_symmetry_Int_Tables_number       1
_space_group_crystal_system       triclinic
_cell_length_a                    14.999858
_cell_length_b                    13.818825
_cell_length_c                    10.72249
_cell_angle_alpha                 89.764357
_cell_angle_beta                  88.722034
_cell_angle_gamma                 89.420767
_cell_volume                      2221.87896899

loop_
_atom_site_label
_atom_site_type_symbol
_atom_type_description
_atom_site_fract_x
_atom_site_fract_y
_atom_site_fract_z
_atom_type_partial_charge
C1    C     C_R   0.328899 0.500451 0.500065 0.530807
C2    C     C_R   0.042591 0.620334 0.666631 -0.132137
C3    C     C_R   0.091518 0.562507 0.581963 0.013857
C4    C     C_R   0.497625 0.500047 0.259959 0.557206
C5    C     C_R   0.046720 0.503403 0.496925 0.061003
C6    C     C_R   0.095337 0.443944 0.412288 0.013013
C7    C     C_R   0.050291 0.387533 0.325974 -0.129876
C8    C     C_R   0.957346 0.389647 0.323612 -0.128753
C9    C     C_R   0.184515 0.562341 0.580917 -0.136899
C10   C     C_R   0.232362 0.501598 0.498957 -0.003846
C11   C     C_R   0.188209 0.442240 0.415448 -0.137660
C12   C     C_3   0.591832 0.509351 0.924466 -0.242281
C13   C     C_R   0.439392 0.793954 0.573484 0.011777
C14   C     C_R   0.437738 0.206815 0.570708 0.009384
C15   C     C_R   0.559752 0.793775 0.425169 0.205724
C16   C     C_R   0.562230 0.204694 0.429534 0.203303
C17   C     C_R   0.559966 0.896376 0.423557 -0.027063
C18   C     C_R   0.560438 0.102141 0.424783 -0.023280
C19   C     C_R   0.671069 0.499933 0.499648 0.558014
C20   C     C_R   0.498212 0.948146 0.498939 0.038584
C21   C     C_R   0.497983 0.051455 0.498703 0.038603
C22   C     C_R   0.437041 0.896819 0.574454 -0.015908
C23   C     C_R   0.815613 0.447947 0.409108 -0.122738
C24   C     C_R   0.436191 0.103850 0.573071 -0.017516
C25   C     C_R   0.620218 0.948542 0.347297 -0.127124
C26   C     C_R   0.620293 0.048954 0.347646 -0.124631
C27   C     C_R   0.374646 0.051894 0.647784 -0.133750
C28   C     C_R   0.375231 0.949680 0.648738 -0.133546
C29   C     C_R   0.496944 0.499839 0.740053 0.532839
C30   C     C_3   0.438886 0.585748 0.073138 -0.232217
C31   C     C_3   0.454575 0.404514 0.073543 -0.232655
C32   C     C_3   0.437919 0.585120 0.929559 -0.237187
C33   C     C_3   0.455380 0.403889 0.930158 -0.235838
C34   C     C_R   0.767600 0.501025 0.498840 0.012745
C35   C     C_3   0.592256 0.507782 0.068183 -0.235703
C36   C     C_3   0.495838 0.499700 0.121854 0.048267
C37   C     C_3   0.495403 0.499499 0.878022 0.050330
C38   C     C_2   0.624715 0.742132 0.343830 0.609379
C39   C     C_2   0.638482 0.252486 0.367121 0.600487
C40   C     C_R   0.811556 0.558997 0.584249 -0.112662
C41   C     C_R   0.904523 0.561147 0.583354 0.015136
C42   C     C_R   0.953251 0.503641 0.496619 0.058741
C43   C     C_R   0.908510 0.446723 0.409160 0.010871
C44   C     C_R   0.949563 0.619225 0.667817 -0.125959
Cu1   Cu    Cu3+1 0.499990 0.597420 0.500010 0.972446
Cu2   Cu    Cu3+1 0.499990 0.402580 0.500010 0.975915
H1    H     H_    0.466455 0.655720 0.104641 0.180884
H2    H     H_    0.326224 0.090269 0.706008 0.105273
H3    H     H_    0.327224 0.912000 0.707651 0.103195
H4    H     H_    0.369422 0.580927 0.111228 0.108915
H5    H     H_    0.384871 0.397428 0.110018 0.108934
H6    H     H_    0.368098 0.578831 0.897696 0.105519
H7    H     H_    0.386218 0.394933 0.896771 0.112284
H8    H     H_    0.464120 0.655313 0.893937 0.140789
H9    H     H_    0.495485 0.340579 0.896518 0.143502
H10   H     H_    0.624199 0.574508 0.102064 0.171688
H11   H     H_    0.633360 0.445470 0.100403 0.156113
H12   H     H_    0.492913 0.340449 0.106785 0.175697
H13   H     H_    0.621261 0.578243 0.889542 0.128528
H14   H     H_    0.634332 0.449034 0.887440 0.124549
H15   H     H_    0.780384 0.409903 0.337735 0.135256
H16   H     H_    0.773242 0.601740 0.651500 0.122222
H17   H     H_    0.912852 0.663815 0.734574 0.116112
H18   H     H_    0.219815 0.607665 0.645398 0.102657
H19   H     H_    0.226364 0.396386 0.351543 0.110917
H20   H     H_    0.751293 0.694562 0.318336 0.326844
H21   H     H_    0.772799 0.250066 0.349473 0.315396
H22   H     H_    0.076275 0.665848 0.732416 0.108339
H23   H     H_    0.086951 0.342112 0.260105 0.109641
H24   H     H_    0.923628 0.345782 0.256028 0.108687
H25   H     H_    0.392640 0.753867 0.631571 0.118925
H26   H     H_    0.389866 0.247495 0.627038 0.124915
H27   H     H_    0.668332 0.912556 0.286260 0.148643
H28   H     H_    0.667865 0.084160 0.285689 0.143348
N1    N     N_R   0.499930 0.743810 0.499950 -0.266788
N2    N     N_R   0.499930 0.256190 0.499950 -0.265783
O1    O     O_R   0.370250 0.582280 0.500040 -0.513246
O2    O     O_R   0.711839 0.727313 0.383890 -0.699327
O3    O     O_2   0.629173 0.295987 0.268985 -0.562031
O4    O     O_R   0.723734 0.234430 0.412540 -0.708781
O5    O     O_R   0.370250 0.417720 0.500040 -0.516915
O6    O     O_R   0.499970 0.582270 0.317700 -0.480097
O7    O     O_R   0.499970 0.417730 0.317700 -0.476927
O8    O     O_R   0.629730 0.582260 0.499980 -0.472798
O9    O     O_R   0.629730 0.417740 0.499980 -0.469936
O10   O     O_R   0.500000 0.582270 0.682320 -0.518913
O11   O     O_R   0.500000 0.417730 0.682320 -0.514352
O12   O     O_2   0.605418 0.723598 0.236632 -0.571079

loop_
_geom_bond_atom_site_label_1
_geom_bond_atom_site_label_2
_ccdc_geom_bond_type
C27   H2    S    
C33   H9    S    
C15   N1    A    
C5    C42   A    
C4    C36   S    
C9    H18   S    
C1    O1    A    
C41   C42   A    
Cu1   O6    S    
C18   C26   A    
C24   C27   A    
Cu2   N2    S    
C23   C43   A    
C7    C8    A    
Cu1   Cu2   S    
C34   C40   A    
C31   H12   S    
C2    H22   S    
C5    C6    A    
C1    O5    A    
C18   C21   A    
C17   C20   A    
C40   H16   S    
C14   C24   A    
C12   C37   S    
C32   H6    S    
C12   H13   S    
C13   N1    A    
C2    C44   A    
C31   C33   S    
C9    C10   A    
Cu2   O9    S    
C30   H4    S    
C22   C28   A    
C32   H8    S    
C44   H17   S    
C33   H7    S    
H20   O2    S    
H21   O4    S    
C30   H1    S    
C6    C11   A    
C13   H25   S    
C19   O9    A    
C25   C26   A    
C33   C37   S    
C38   O12   D    
C35   C36   S    
C14   N2    A    
C15   C38   S    
C3    C9    A    
Cu2   O5    S    
C28   H3    S    
C23   C34   A    
C32   C37   S    
C12   C35   S    
C29   O10   A    
C40   C41   A    
C20   C22   A    
C41   C44   A    
Cu1   O8    S    
C42   C43   A    
C19   O8    A    
Cu2   O11   S    
C15   C17   A    
C35   H10   S    
C16   N2    A    
C14   H26   S    
C1    C10   S    
C31   H5    S    
C3    C5    A    
C19   C34   S    
C7    H23   S    
C6    C7    A    
C38   O2    S    
C8    H24   S    
C30   C36   S    
Cu1   N1    S    
C17   C25   A    
C39   O4    S    
Cu1   O10   S    
C30   C32   S    
C4    O7    A    
C8    C43   A    
C26   H28   S    
C13   C22   A    
C2    C3    A    
C25   H27   S    
C29   O11   A    
C10   C11   A    
C16   C39   S    
Cu2   O7    S    
C12   H14   S    
C23   H15   S    
C4    O6    A    
C20   C21   A    
C16   C18   A    
C35   H11   S    
C21   C24   A    
C29   C37   S    
C27   C28   A    
C31   C36   S    
Cu1   O1    S    
C11   H19   S    
C39   O3    D    
