data_mof_unit_59273.cif
_audit_creation_date              2012-10-26T18:59:58-0400
_audit_creation_method            fapswitch 2.2
_symmetry_space_group_name_H-M    P1
_symmetry_Int_Tables_number       1
_space_group_crystal_system       triclinic
_cell_length_a                    9.536681
_cell_length_b                    10.857083
_cell_length_c                    17.10604
_cell_angle_alpha                 89.268748
_cell_angle_beta                  94.041786
_cell_angle_gamma                 89.953109
_cell_volume                      1766.61700639

loop_
_atom_site_label
_atom_site_type_symbol
_atom_type_description
_atom_site_fract_x
_atom_site_fract_y
_atom_site_fract_z
_atom_type_partial_charge
C1    C     C_R   0.499874 0.262696 0.499292 0.548963
C2    C     C_R   0.498150 0.130173 0.496875 -0.001244
C3    C     C_R   0.369928 0.064857 0.494361 -0.166375
C4    C     C_R   0.517591 0.497972 0.650926 0.553145
C5    C     C_R   0.369764 0.935697 0.494329 -0.163963
C6    C     C_R   0.497831 0.869956 0.496980 0.005050
C7    C     C_R   0.621027 0.937727 0.497313 0.004178
C8    C     C_3   0.777252 0.926835 0.503236 -0.246220
C9    C     C_3   0.778515 0.069150 0.502839 -0.124740
C10   C     C_R   0.068524 0.589532 0.460184 0.158772
C11   C     C_R   0.080299 0.419328 0.545517 -0.019607
C12   C     C_R   0.658520 0.486321 0.779375 -0.154734
C13   C     C_R   0.931364 0.419631 0.545743 -0.030526
C14   C     C_R   0.921029 0.589654 0.460269 0.158494
C15   C     C_3   0.904036 0.616024 0.374425 -0.276541
C16   C     C_R   0.499708 0.737328 0.499276 0.554198
C17   C     C_3   0.062842 0.614836 0.374231 -0.285098
C18   C     C_R   0.482541 0.501033 0.349128 0.548513
C19   C     C_R   0.527392 0.495431 0.736891 0.007072
C20   C     C_R   0.404532 0.501047 0.777216 -0.160149
C21   C     C_R   0.412372 0.498070 0.858594 -0.090394
C22   C     C_R   0.544108 0.489405 0.901391 0.227017
C23   C     C_R   0.582362 0.461116 0.142289 -0.091698
C24   C     C_R   0.666360 0.482995 0.861053 -0.112262
C25   C     C_3   0.845795 0.129446 0.432169 -0.245823
C26   C     C_3   0.766543 0.108654 0.351892 -0.276675
C27   C     C_3   0.845935 0.166043 0.286156 -0.455646
C28   C     C_R   0.588999 0.460693 0.223735 -0.163799
C29   C     C_R   0.459117 0.501315 0.098939 0.226259
C30   C     C_R   0.473408 0.499981 0.263283 0.008293
C31   C     C_R   0.350515 0.538783 0.220138 -0.155944
C32   C     C_R   0.343535 0.538882 0.138566 -0.111439
C33   C     C_R   0.621304 0.061957 0.496860 0.032062
Cu1   Cu    Cu3+1 0.640670 0.499980 0.500000 0.926104
Cu2   Cu    Cu3+1 0.359330 0.500020 0.500000 0.931801
H1    H     H_    0.684271 0.428668 0.255703 0.113955
H2    H     H_    0.101815 0.535905 0.341267 0.146521
H3    H     H_    0.673320 0.429720 0.113662 0.132084
H4    H     H_    0.108181 0.706067 0.360119 0.119841
H5    H     H_    0.768127 0.475831 0.893160 0.114398
H6    H     H_    0.754887 0.481338 0.749625 0.127881
H7    H     H_    0.260872 0.571217 0.249162 0.114659
H8    H     H_    0.315217 0.502184 0.887609 0.133403
H9    H     H_    0.248203 0.569757 0.105956 0.114906
H10   H     H_    0.301936 0.507767 0.745978 0.129610
H11   H     H_    0.270097 0.112747 0.493244 0.130185
H12   H     H_    0.269861 0.888100 0.493079 0.133636
H13   H     H_    0.862135 0.266076 0.296165 0.146163
H14   H     H_    0.949762 0.120532 0.283218 0.152553
H15   H     H_    0.784382 0.154077 0.229211 0.145793
H16   H     H_    0.753440 0.008659 0.340755 0.159491
H17   H     H_    0.660702 0.151863 0.350638 0.174633
H18   H     H_    0.852760 0.230105 0.442077 0.171532
H19   H     H_    0.955211 0.094316 0.431205 0.132120
H20   H     H_    0.817731 0.885413 0.560173 0.129930
H21   H     H_    0.817768 0.883502 0.450857 0.130260
H22   H     H_    0.820163 0.107070 0.559957 0.117726
H23   H     H_    0.140764 0.352266 0.581012 0.113941
H24   H     H_    0.879991 0.352793 0.581395 0.109104
H25   H     H_    0.854395 0.539007 0.340629 0.147559
H26   H     H_    0.856995 0.708194 0.360957 0.118225
N1    N     N_2   0.558204 0.486047 0.984490 -0.253334
N2    N     N_2   0.446246 0.504902 0.015920 -0.254274
N3    N     N_R   0.147870 0.500930 0.499500 -0.229873
N4    N     N_R   0.851960 0.500890 0.499500 -0.234188
O1    O     O_R   0.618810 0.319640 0.500000 -0.509431
O2    O     O_R   0.381230 0.319680 0.499990 -0.511520
O3    O     O_R   0.631790 0.498830 0.613930 -0.504355
O4    O     O_R   0.394210 0.498870 0.613920 -0.504853
O5    O     O_R   0.618770 0.680320 0.500010 -0.496304
O6    O     O_R   0.381190 0.680360 0.500000 -0.504852
O7    O     O_R   0.605790 0.501130 0.386080 -0.509263
O8    O     O_R   0.368210 0.501170 0.386070 -0.504908

loop_
_geom_bond_atom_site_label_1
_geom_bond_atom_site_label_2
_ccdc_geom_bond_type
C27   H13   S    
C19   C20   A    
C29   N2    S    
C6    C7    A    
C18   C30   S    
C31   H7    S    
C26   H17   S    
C2    C3    A    
C22   N1    S    
C11   H23   S    
C11   C13   A    
C15   H25   S    
Cu1   O5    S    
C3    H11   S    
C10   N3    A    
C20   H10   S    
C27   H15   S    
Cu2   O2    S    
C30   C31   A    
C18   O8    A    
C8    H21   S    
N1    N2    D    
C28   C30   A    
C1    O1    A    
C15   H26   S    
C9    C25   S    
C7    C8    S    
C17   H2    S    
C26   H16   S    
C20   C21   A    
C9    C33   S    
C5    H12   S    
Cu1   O1    S    
C26   C27   S    
Cu2   N3    S    
C16   O6    A    
C13   H24   S    
C8    H20   S    
C23   C29   A    
C12   C19   A    
C4    O4    A    
C1    O2    A    
C14   N4    A    
C25   H18   S    
C11   N3    A    
C29   C32   A    
C9    H22   S    
C32   H9    S    
C5    C6    A    
Cu1   Cu2   S    
C22   C24   A    
C23   C28   A    
C7    C33   A    
C10   C17   S    
Cu2   O6    S    
C23   H3    S    
Cu1   O7    S    
Cu2   O4    S    
C28   H1    S    
C16   O5    A    
C25   H19   S    
Cu1   N4    S    
C12   H6    S    
C4    O3    A    
C1    C2    S    
C10   C14   A    
Cu1   O3    S    
C15   C17   S    
C17   H4    S    
C14   C15   S    
Cu2   O8    S    
C13   N4    A    
C12   C24   A    
C24   H5    S    
C25   C26   S    
C21   C22   A    
C4    C19   S    
C6    C16   S    
C31   C32   A    
C21   H8    S    
C27   H14   S    
C2    C33   A    
C8    C9    S    
C3    C5    A    
C18   O7    A    
