data_mof_unit_62003.cif
_audit_creation_date              2012-12-10T18:24:45-0500
_audit_creation_method            fapswitch 2.2
_symmetry_space_group_name_H-M    P1
_symmetry_Int_Tables_number       1
_space_group_crystal_system       triclinic
_cell_length_a                    14.63208
_cell_length_b                    15.885434
_cell_length_c                    17.378499
_cell_angle_alpha                 90.005358
_cell_angle_beta                  86.019545
_cell_angle_gamma                 89.976711
_cell_volume                      4029.66088387

loop_
_atom_site_label
_atom_site_type_symbol
_atom_type_description
_atom_site_fract_x
_atom_site_fract_y
_atom_site_fract_z
_atom_type_partial_charge
C1    C     C_R   0.499993 0.660541 0.500017 0.817899
C2    C     C_R   0.500007 0.339458 0.499983 0.817901
C3    C     C_3   0.470065 0.027832 0.432735 -0.288878
C4    C     C_3   0.529935 0.972168 0.567265 -0.288879
C5    C     C_3   0.554719 0.971799 0.441917 0.723643
C6    C     C_3   0.445281 0.028201 0.558083 0.723643
C7    C     C_1   0.499895 0.750146 0.500216 -0.131677
C8    C     C_1   0.500105 0.249854 0.499784 -0.131676
C9    C     C_3   0.413876 0.972124 0.492450 -0.290717
C10   C     C_3   0.586124 0.027876 0.507549 -0.290717
C11   C     C_3   0.499426 0.917140 0.500681 -0.021089
C12   C     C_3   0.500574 0.082860 0.499319 -0.021089
C13   C     C_1   0.499710 0.825604 0.500427 0.060759
C14   C     C_1   0.500290 0.174396 0.499573 0.060760
C15   C     C_3   0.027960 0.429055 0.534046 -0.285909
C16   C     C_3   0.972040 0.570945 0.465954 -0.285909
C17   C     C_3   0.963339 0.496771 0.571594 0.745831
C18   C     C_3   0.036661 0.503229 0.428406 0.745831
C19   C     C_3   0.972530 0.432367 0.460689 -0.287383
C20   C     C_3   0.027470 0.567633 0.539311 -0.287384
C21   C     C_3   0.908445 0.500030 0.499409 -0.122067
C22   C     C_3   0.091555 0.499970 0.500591 -0.122067
C23   C     C_R   0.488258 0.501761 0.650199 0.835166
C24   C     C_R   0.511741 0.498238 0.349801 0.835168
C25   C     C_1   0.805812 0.500012 0.499814 0.272599
C26   C     C_1   0.194188 0.499988 0.500186 0.272597
C27   C     C_R   0.481978 0.506604 0.734411 -0.170197
C28   C     C_R   0.518022 0.493395 0.265589 -0.170195
C29   C     C_R   0.558571 0.530770 0.773808 0.621094
C30   C     C_R   0.441431 0.469224 0.226192 0.621093
C31   C     C_R   0.552473 0.533854 0.853749 -0.202616
C32   C     C_R   0.447530 0.466139 0.146252 -0.202617
C33   C     C_R   0.470502 0.511929 0.895538 0.078230
C34   C     C_R   0.529499 0.488068 0.104462 0.078228
C35   C     C_R   0.393213 0.491088 0.856454 -0.139938
C36   C     C_R   0.606787 0.508915 0.143546 -0.139937
C37   C     C_R   0.398890 0.488189 0.776252 -0.252588
C38   C     C_R   0.601109 0.511815 0.223748 -0.252589
C39   C     C_2   0.464026 0.510165 0.979974 -0.170585
C40   C     C_2   0.535976 0.489832 0.020026 -0.170586
Cu1   Cu    Cu3+1 0.409780 0.500000 0.499990 1.046433
Cu2   Cu    Cu3+1 0.590220 0.500000 0.500010 1.046433
H1    H     H_    0.050105 0.370992 0.563040 0.187601
H2    H     H_    0.949895 0.629008 0.436960 0.187600
H3    H     H_    0.049212 0.622880 0.572616 0.185899
H4    H     H_    0.950788 0.377120 0.427384 0.185899
H5    H     H_    0.661219 0.529728 0.252900 0.191161
H6    H     H_    0.338778 0.470280 0.747100 0.191162
H7    H     H_    0.602248 0.476291 0.990619 0.159444
H8    H     H_    0.397754 0.523706 0.009382 0.159444
H9    H     H_    0.329122 0.475153 0.888071 0.159914
H10   H     H_    0.670876 0.524854 0.111929 0.159915
H11   H     H_    0.388130 0.445860 0.117404 0.167219
H12   H     H_    0.611874 0.554129 0.882596 0.167218
H13   H     H_    0.446711 0.051397 0.377252 0.189697
H14   H     H_    0.553289 0.948603 0.622748 0.189697
H15   H     H_    0.656836 0.051478 0.512701 0.188152
H16   H     H_    0.343164 0.948522 0.487299 0.188152
N1    N     N_1   0.725810 0.500000 0.500030 -0.146298
N2    N     N_1   0.274190 0.500000 0.499970 -0.146299
O1    O     O_R   0.423830 0.620920 0.499990 -0.578368
O2    O     O_R   0.576170 0.379080 0.500010 -0.578367
O3    O     O_R   0.576200 0.620920 0.500000 -0.561257
O4    O     O_R   0.423800 0.379080 0.500000 -0.561256
O5    O     O_R   0.414980 0.500010 0.613590 -0.600189
O6    O     O_R   0.585020 0.499990 0.386410 -0.600189
O7    O     O_R   0.567350 0.500010 0.613600 -0.507262
O8    O     O_R   0.432650 0.499990 0.386400 -0.507264
F1    F     F_    0.639058 0.552677 0.735426 -0.620592
F2    F     F_    0.360946 0.447312 0.264574 -0.620594
F3    F     F_    0.611582 0.940924 0.381563 -0.634429
F4    F     F_    0.388418 0.059076 0.618437 -0.634429
F5    F     F_    0.925167 0.493394 0.646558 -0.618698
F6    F     F_    0.074833 0.506606 0.353442 -0.618700

loop_
_geom_bond_atom_site_label_1
_geom_bond_atom_site_label_2
_ccdc_geom_bond_type
C16   C21   S    
C5    F3    S    
C27   C29   A    
Cu1   Cu2   S    
Cu1   O1    S    
C6    C9    S    
C19   H4    S    
C15   C19   S    
C33   C39   S    
C34   C40   S    
C35   C37   A    
C5    C11   S    
C6    C12   S    
C40   H7    S    
C17   C20   S    
C9    H16   S    
C23   O7    A    
C3    C12   S    
C3    H13   S    
C15   C22   S    
C31   C33   A    
C23   C27   S    
C16   H2    S    
C20   H3    S    
C36   H10   S    
C24   O6    A    
Cu2   O2    S    
C18   F6    S    
C1    C7    S    
C4    H14   S    
C17   F5    S    
C1    O3    A    
C30   F2    S    
C2    O4    A    
Cu1   O8    S    
C29   F1    S    
C10   H15   S    
C4    C6    S    
C39   C40   D    
C18   C19   S    
Cu1   O5    S    
C17   C21   S    
C37   H6    S    
C32   C34   A    
C6    F4    S    
C3    C9    S    
C28   C38   A    
C16   C20   S    
C4    C11   S    
C9    C11   S    
C38   H5    S    
C10   C12   S    
C12   C14   S    
C35   H9    S    
Cu2   O7    S    
C4    C10   S    
C32   H11   S    
C15   C17   S    
C21   C25   S    
C8    C14   T    
C19   C21   S    
C18   C22   S    
C2    C8    S    
C24   C28   S    
Cu1   N2    S    
C20   C22   S    
C3    C5    S    
C1    O1    A    
Cu2   N1    S    
C23   O5    A    
C36   C38   A    
C15   H1    S    
C5    C10   S    
C29   C31   A    
C30   C32   A    
C11   C13   S    
C27   C37   A    
C28   C30   A    
C33   C35   A    
C34   C36   A    
C31   H12   S    
C24   O8    A    
C7    C13   T    
C39   H8    S    
C16   C18   S    
C22   C26   S    
Cu2   O6    S    
C25   N1    T    
Cu1   O4    S    
C26   N2    T    
Cu2   O3    S    
C2    O2    A    
