data_mof_unit_45185.cif
_audit_creation_date              2013-03-05T15:56:03-0500
_audit_creation_method            fapswitch 2.2
_symmetry_space_group_name_H-M    P1
_symmetry_Int_Tables_number       1
_space_group_crystal_system       triclinic
_cell_length_a                    12.32847
_cell_length_b                    13.208832
_cell_length_c                    17.364434
_cell_angle_alpha                 105.15499
_cell_angle_beta                  75.159665
_cell_angle_gamma                 116.470957
_cell_volume                      2411.12096634

loop_
_atom_site_label
_atom_site_type_symbol
_atom_site_description
_atom_site_fract_x
_atom_site_fract_y
_atom_site_fract_z
_atom_type_partial_charge
O1    O     O_R   0.025490 0.682370 0.523640 -0.560387
O2    O     O_R   0.194150 0.640180 0.491890 -0.618947
C1    C     C_R   0.144512 0.713086 0.504646 0.767250
O3    O     O_R   0.905900 0.523560 0.631310 -0.555333
O4    O     O_R   0.074570 0.481370 0.599560 -0.608335
C2    C     C_R   0.988293 0.503564 0.651880 0.786417
Cu1   Cu    Cu3+1 0.900140 0.524980 0.518800 0.972368
Cu2   Cu    Cu3+1 0.099860 0.475020 0.481200 0.980149
O5    O     O_R   0.805850 0.359820 0.508110 -0.601029
O6    O     O_R   0.974510 0.317630 0.476360 -0.543886
O7    O     O_R   0.925430 0.518630 0.400440 -0.553958
O8    O     O_R   0.094100 0.476440 0.368690 -0.557203
C3    C     C_R   0.855694 0.286184 0.489499 0.823304
C4    C     C_R   0.014601 0.500895 0.348178 0.838106
C5    C     C_R   0.985916 0.505827 0.736715 -0.033882
C6    C     C_R   0.092337 0.519795 0.761330 -0.186719
C7    C     C_R   0.091437 0.519275 0.841181 -0.126065
C8    C     C_R   0.984117 0.505898 0.897911 0.181336
C9    C     C_R   0.877243 0.490373 0.873206 -0.142255
C10   C     C_R   0.878078 0.490506 0.792949 -0.196649
C11   C     C_R   0.964477 0.555057 0.159111 -0.257284
C12   C     C_R   0.943421 0.536870 0.237920 0.240497
C13   C     C_R   0.137187 0.516872 0.210572 -0.267374
C14   C     C_R   0.155447 0.530620 0.130417 0.272769
C15   C     C_R   0.066676 0.547306 0.104257 0.123234
C16   C     C_2   0.979036 0.503357 0.982602 -0.244697
C17   C     C_2   0.078256 0.554761 0.019498 -0.170460
C18   C     C_R   0.029863 0.515723 0.264250 -0.102071
H1    H     H_    0.176473 0.530553 0.718807 0.157557
H2    H     H_    0.207413 0.506789 0.230530 0.207714
H3    H     H_    0.169031 0.599389 0.987335 0.181635
H4    H     H_    0.793124 0.478129 0.916096 0.133949
H5    H     H_    0.898602 0.573356 0.140403 0.152608
H6    H     H_    0.794169 0.476351 0.774666 0.149672
H7    H     H_    0.889333 0.458111 0.016098 0.161055
H8    H     H_    0.174059 0.526787 0.857417 0.138731
C19   C     C_R   0.736811 0.966247 0.419751 -0.167524
H9    H     H_    0.914989 0.099073 0.431908 0.200890
H10   H     H_    0.566748 0.763319 0.369898 0.148048
H11   H     H_    0.773219 0.901964 0.390991 0.144317
C20   C     C_R   0.773180 0.163940 0.477189 -0.062260
C21   C     C_R   0.177607 0.917733 0.535279 -0.165020
C22   C     C_R   0.253510 0.033806 0.543510 -0.117516
C23   C     C_R   0.379986 0.069717 0.522306 -0.158829
C24   C     C_R   0.433452 0.989217 0.488535 0.090227
C25   C     C_R   0.354295 0.871591 0.470429 0.085967
C26   C     C_R   0.562731 0.021275 0.471964 0.084476
C27   C     C_R   0.610252 0.937443 0.432499 0.160417
C28   C     C_R   0.531235 0.826323 0.404691 -0.224662
C29   C     C_R   0.405475 0.794802 0.421137 -0.184985
C30   C     C_R   0.646446 0.133756 0.494740 -0.241367
C31   C     C_R   0.817809 0.078748 0.442755 -0.118914
C32   C     C_R   0.226454 0.835106 0.501398 -0.105421
H12   H     H_    0.615363 0.200097 0.526265 0.151425
H13   H     H_    0.080320 0.892887 0.556503 0.155584
H14   H     H_    0.432636 0.161180 0.531677 0.126561
H15   H     H_    0.214295 0.096572 0.568978 0.149439
H16   H     H_    0.350170 0.710201 0.392606 0.179885
C33   C     C_R   0.646742 0.682484 0.626731 0.202033
H17   H     H_    0.440867 0.716888 0.649984 0.204804
N1    N     N_R   0.749710 0.562810 0.547300 -0.209110
C34   C     C_R   0.253344 0.350853 0.389625 0.404079
C35   C     C_R   0.342597 0.306441 0.376978 0.221576
C36   C     C_R   0.434916 0.358835 0.424456 -0.378038
C37   C     C_R   0.443585 0.457535 0.482038 -0.014438
C38   C     C_R   0.344238 0.492371 0.498688 0.212548
C39   C     C_R   0.546776 0.521600 0.524318 -0.034405
C40   C     C_R   0.545826 0.616406 0.585418 0.008802
C41   C     C_R   0.444778 0.645138 0.603613 -0.208147
C42   C     C_R   0.346462 0.584032 0.562026 -0.172245
C43   C     C_R   0.653295 0.498000 0.506367 -0.054676
C44   C     C_R   0.747856 0.652684 0.607333 0.331670
N2    N     N_R   0.249640 0.437820 0.453210 -0.287762
H18   H     H_    0.662915 0.429698 0.459284 0.156789
H19   H     H_    0.499222 0.320458 0.414960 0.189028
H20   H     H_    0.274072 0.612457 0.582044 0.202592
N3    N     N_2   0.262532 0.526593 0.076473 -0.440138
H21   H     H_    0.338792 0.558962 0.104216 0.261462
C45   C     C_3   0.244357 0.415726 0.026367 -0.628719
H22   H     H_    0.220153 0.350631 0.064554 0.256305
H23   H     H_    0.330371 0.421409 0.983806 0.226521
H24   H     H_    0.170326 0.387972 0.990327 0.235369
N4    N     N_2   0.849518 0.716541 0.649384 -0.375710
H25   H     H_    0.896643 0.800235 0.639890 0.254886
C46   C     C_3   0.826118 0.706896 0.733847 -0.573585
H26   H     H_    0.796932 0.774727 0.772505 0.253923
H27   H     H_    0.911930 0.718398 0.751328 0.216809
H28   H     H_    0.753934 0.621468 0.745115 0.212457
N5    N     N_2   0.834964 0.540777 0.289667 -0.418050
H29   H     H_    0.818142 0.609141 0.286089 0.248475
C47   C     C_3   0.728123 0.433716 0.280756 -0.597723
H30   H     H_    0.646952 0.445131 0.320329 0.226036
H31   H     H_    0.741104 0.365317 0.298416 0.241612
H32   H     H_    0.710450 0.407437 0.217340 0.231265
N6    N     N_R   0.647545 0.779835 0.687823 0.106340
O9    O     O_R   0.727992 0.882432 0.677292 -0.372228
O10   O     O_R   0.571792 0.765377 0.755711 -0.371475
N7    N     N_R   0.176639 0.313177 0.329553 0.167455
O11   O     O_R   0.227772 0.337764 0.257571 -0.374539
O12   O     O_R   0.069274 0.228894 0.337877 -0.342766
N8    N     N_R   0.341541 0.209074 0.315104 0.157519
O13   O     O_R   0.238420 0.127493 0.296225 -0.288461
O14   O     O_R   0.443012 0.195785 0.282905 -0.360697

loop_
_geom_bond_atom_site_label_1
_geom_bond_atom_site_label_2
_geom_bond_distance
_ccdc_geom_bond_type
N8    O13   1.300933 A    
N6    O9    1.300798 A    
C8    C16   1.464400 S    
C35   N8    1.441633 S    
C45   H24   1.110585 S    
C3    C20   1.467778 S    
Cu1   Cu2   2.706321 S    
N3    H21   1.031869 S    
Cu1   O7    1.983239 S    
C16   C17   1.342151 D    
C19   H11   1.084011 S    
C21   C32   1.403100 A    
O4    C2    1.298615 A    
C21   H13   1.080730 S    
O7    C4    1.301675 A    
C11   H5    1.083841 S    
C5    C6    1.402969 A    
C8    C9    1.401703 A    
C28   C29   1.385133 A    
O5    C3    1.301855 A    
Cu1   N1    2.039791 S    
C2    C5    1.458575 S    
C34   N7    1.429801 S    
C36   H19   1.077171 S    
N4    H25   1.029811 S    
C40   C41   1.397482 A    
C37   C39   1.437846 A    
C13   C14   1.398608 A    
C34   N2    1.377861 A    
C7    H8    1.081322 S    
N5    C47   1.445042 S    
C20   C31   1.399337 A    
C33   C44   1.405476 A    
C10   H6    1.081959 S    
N1    C43   1.363248 A    
C24   C26   1.424594 A    
N8    O14   1.301737 A    
C12   C18   1.415808 A    
C11   C12   1.390021 A    
C33   N6    1.435176 S    
O3    Cu1   1.978293 S    
C9    H4    1.083573 S    
N3    C45   1.446677 S    
C5    C10   1.400159 A    
C46   H27   1.109732 S    
C17   H3    1.084287 S    
C39   C40   1.416333 A    
C29   H16   1.078623 S    
C13   H2    1.080764 S    
C14   C15   1.405244 A    
O3    C2    1.305195 A    
C47   H30   1.106551 S    
C45   H23   1.110362 S    
C19   C31   1.391409 A    
C6    C7    1.385554 A    
C26   C30   1.401385 A    
C6    H1    1.082798 S    
C46   H26   1.109976 S    
C38   N2    1.388551 A    
C47   H31   1.111226 S    
C45   H22   1.111781 S    
O1    C1    1.310668 A    
C22   C23   1.389135 A    
C34   C35   1.409778 A    
C33   C40   1.409288 A    
O4    Cu2   1.983239 S    
C23   H14   1.076839 S    
C26   C27   1.419485 A    
Cu2   O8    1.978294 S    
C7    C8    1.402551 A    
C13   C18   1.406219 A    
C19   C27   1.402185 A    
N1    C44   1.364335 A    
C27   C28   1.390027 A    
N4    C46   1.448698 S    
O8    C4    1.308820 A    
N7    O11   1.300502 A    
N7    O12   1.297990 A    
C42   H20   1.062943 S    
C21   C22   1.386244 A    
C23   C24   1.417682 A    
C46   H28   1.111103 S    
Cu1   O5    1.944998 S    
C11   C15   1.398032 A    
H10   C28   1.084305 S    
O1    Cu1   1.956599 S    
O2    Cu2   1.944997 S    
O6    C3    1.306226 A    
C43   H18   1.075400 S    
N6    O10   1.301200 A    
C15   C17   1.466918 S    
C25   C29   1.414036 A    
C30   H12   1.074925 S    
C36   C37   1.399935 A    
C9    C10   1.391480 A    
O2    C1    1.302050 A    
C47   H32   1.111845 S    
C1    C32   1.479278 S    
C38   C42   1.402094 A    
H17   C41   1.081998 S    
C25   C32   1.424664 A    
Cu2   N2    2.027737 S    
C12   N5    1.421177 S    
C39   C43   1.422439 A    
C41   C42   1.383302 A    
C44   N4    1.421213 S    
C22   H15   1.082939 S    
C35   C36   1.390738 A    
C24   C25   1.419591 A    
C16   H7    1.086991 S    
H9    C31   1.080303 S    
Cu2   O6    1.956600 S    
C37   C38   1.430708 A    
C14   N3    1.423467 S    
C4    C18   1.474317 S    
N5    H29   1.032072 S    
C20   C30   1.399040 A    
