data_mof_unit_63769.cif
_audit_creation_date              2012-12-10T18:37:13-0500
_audit_creation_method            fapswitch 2.2
_symmetry_space_group_name_H-M    P1
_symmetry_Int_Tables_number       1
_space_group_crystal_system       triclinic
_cell_length_a                    25.549397
_cell_length_b                    25.564473
_cell_length_c                    25.55596
_cell_angle_alpha                 119.97535
_cell_angle_beta                  90.030779
_cell_angle_gamma                 119.982873
_cell_volume                      11807.3434186

loop_
_atom_site_label
_atom_site_type_symbol
_atom_type_description
_atom_site_fract_x
_atom_site_fract_y
_atom_site_fract_z
_atom_type_partial_charge
C1    C     C_R   0.599606 0.699206 0.599639 0.519548
C2    C     C_1   0.827160 0.499812 0.826942 0.025232
C3    C     C_3   0.276315 0.044115 0.328182 -0.231120
C4    C     C_R   0.400332 0.300736 0.400304 0.524222
C5    C     C_3   0.321274 0.041232 0.237498 0.419175
C6    C     C_3   0.273410 0.954706 0.193788 -0.204279
C7    C     C_1   0.139092 0.778331 0.139053 0.087646
C8    C     C_3   0.289007 0.073299 0.285494 -0.048541
C9    C     C_3   0.236692 0.957994 0.286025 0.076625
C10   C     C_3   0.212467 0.926547 0.213535 -0.061642
C11   C     C_3   0.175926 0.958477 0.207496 0.112445
C12   C     C_1   0.860405 0.499807 0.860340 0.061604
C13   C     C_3   0.221788 0.044326 0.247980 -0.232741
C14   C     C_1   0.171945 0.844972 0.172625 0.048971
C15   C     C_1   0.328771 0.154871 0.326831 0.037801
C16   C     C_R   0.400274 0.499882 0.599519 0.517173
C17   C     C_1   0.361260 0.221503 0.360553 0.088604
C18   C     C_3   0.763652 0.579221 0.306606 -0.215462
C19   C     C_3   0.673494 0.449842 0.215830 -0.231349
C20   C     C_3   0.716897 0.449109 0.173405 -0.269589
C21   C     C_1   0.860955 0.499959 0.139594 0.075076
C22   C     C_3   0.714307 0.499698 0.287440 0.004328
C23   C     C_3   0.786714 0.538041 0.727286 0.024043
C24   C     C_3   0.805174 0.578982 0.262344 -0.197955
C25   C     C_3   0.788518 0.500171 0.215381 0.030260
C26   C     C_3   0.795566 0.470163 0.253571 0.159535
C27   C     C_3   0.751435 0.470017 0.295742 -0.179501
C28   C     C_R   0.599739 0.500109 0.400409 0.516118
C29   C     C_1   0.828306 0.499983 0.173635 0.012380
C30   C     C_1   0.673057 0.499785 0.327688 -0.047959
C31   C     C_1   0.639487 0.499916 0.360813 0.031845
C32   C     C_3   0.777695 0.957288 0.761658 0.139185
C33   C     C_3   0.677434 0.956554 0.751929 -0.245002
C34   C     C_3   0.714305 0.500909 0.713408 0.019409
C35   C     C_3   0.722699 0.042119 0.800284 -0.114713
C36   C     C_1   0.860590 0.221562 0.860559 0.125229
C37   C     C_3   0.714512 0.926376 0.714569 -0.058037
C38   C     C_3   0.821343 0.043945 0.802725 0.067257
C39   C     C_3   0.787226 0.073219 0.784819 -0.049966
C40   C     C_R   0.400196 0.500070 0.400186 0.510832
C41   C     C_3   0.772202 0.040658 0.710397 0.181789
C42   C     C_3   0.733837 0.954040 0.671053 -0.215949
C43   C     C_1   0.827567 0.154967 0.826646 0.058797
C44   C     C_1   0.673062 0.844915 0.673507 0.015651
C45   C     C_3   0.795881 0.569449 0.798377 0.265933
C46   C     C_1   0.639291 0.778339 0.639632 0.078703
C47   C     C_3   0.250691 0.536666 0.328505 0.032844
C48   C     C_3   0.232983 0.420457 0.230383 -0.221155
C49   C     C_3   0.189175 0.420288 0.188240 -0.207832
C50   C     C_1   0.139159 0.499750 0.139457 0.030863
C51   C     C_3   0.284938 0.500829 0.288830 0.008250
C52   C     C_R   0.599869 0.499986 0.599878 0.521368
C53   C     C_3   0.209275 0.537586 0.283465 -0.181949
C54   C     C_3   0.212472 0.500393 0.214765 0.014785
C55   C     C_3   0.283135 0.544262 0.218447 -0.229815
C56   C     C_3   0.786938 0.500107 0.786422 0.013082
C57   C     C_3   0.325607 0.543655 0.261067 -0.236481
C58   C     C_1   0.172207 0.499902 0.173171 -0.052452
C59   C     C_1   0.326498 0.500072 0.328122 -0.066393
C60   C     C_1   0.360265 0.499868 0.360750 0.026529
C61   C     C_3   0.296700 0.580021 0.754174 0.172208
C62   C     C_3   0.304464 0.487581 0.761388 -0.213509
C63   C     C_3   0.257733 0.480612 0.800054 -0.216341
C64   C     C_3   0.778125 0.468087 0.714957 -0.158497
C65   C     C_1   0.139225 0.499809 0.860779 0.039918
C66   C     C_3   0.288634 0.504187 0.715152 0.006960
C67   C     C_3   0.723217 0.533018 0.784942 -0.092962
C68   C     C_3   0.257284 0.580973 0.801750 -0.076208
C69   C     C_3   0.214194 0.501902 0.787433 -0.010735
C70   C     C_3   0.172730 0.445965 0.714558 -0.105836
C71   C     C_3   0.216962 0.442636 0.672792 -0.284775
C72   C     C_1   0.172835 0.500483 0.827775 -0.037426
C73   C     C_1   0.328497 0.502026 0.673544 0.018067
C74   C     C_1   0.361121 0.500504 0.639556 0.069275
C75   C     C_R   0.900420 0.500209 0.099741 0.523537
C76   C     C_3   0.704785 0.430596 0.700779 -0.122561
C77   C     C_R   0.099402 0.499557 0.900158 0.518577
C78   C     C_3   0.714266 0.462653 0.772799 -0.137985
C79   C     C_R   0.099760 0.699117 0.099408 0.518983
C80   C     C_R   0.900155 0.300668 0.900519 0.527889
C81   C     C_R   0.099770 0.499851 0.099766 0.514751
C82   C     C_R   0.900061 0.499891 0.900075 0.523582
C83   C     C_1   0.639612 0.500121 0.639587 0.059307
C84   C     C_2   0.688111 0.077891 0.807051 0.326882
C85   C     C_2   0.833778 0.073524 0.695639 0.381506
C86   C     C_2   0.209514 0.492318 0.353821 0.291565
C87   C     C_2   0.300493 0.616305 0.385601 0.222737
C88   C     C_2   0.296147 0.641568 0.872328 0.315888
C89   C     C_1   0.673216 0.500412 0.672932 0.029796
C90   C     C_2   0.829032 0.580702 0.702983 0.307885
C91   C     C_2   0.121375 0.369300 0.696060 0.249179
H1    H     H_    0.666647 0.373075 0.660075 0.151353
H2    H     H_    0.738359 0.602998 0.303259 0.133559
H3    H     H_    0.637410 0.392412 0.200944 0.147810
H4    H     H_    0.646802 0.470499 0.208447 0.144198
H5    H     H_    0.709631 0.467603 0.144511 0.142463
H6    H     H_    0.702346 0.391485 0.139028 0.135422
H7    H     H_    0.779567 0.504102 0.347311 0.192137
H8    H     H_    0.716920 0.412606 0.281650 0.119346
H9    H     H_    0.795231 0.615414 0.357259 0.169628
H10   H     H_    0.856847 0.619424 0.291455 0.201942
H11   H     H_    0.684684 0.431334 0.791800 0.147438
H12   H     H_    0.297268 0.929065 0.195867 0.157892
H13   H     H_    0.778904 0.411870 0.218067 0.128960
H14   H     H_    0.827144 0.065650 0.854011 0.182576
H15   H     H_    0.636347 0.939243 0.716991 0.157942
H16   H     H_    0.655838 0.931095 0.777751 0.189627
H17   H     H_    0.734636 0.053710 0.848433 0.159577
H18   H     H_    0.762308 0.934252 0.646112 0.171159
H19   H     H_    0.690311 0.926134 0.632018 0.158769
H20   H     H_    0.700935 0.560206 0.813675 0.156304
H21   H     H_    0.802615 0.935358 0.731674 0.196789
H22   H     H_    0.158221 0.509787 0.280596 0.191023
H23   H     H_    0.259462 0.933313 0.142673 0.210038
H24   H     H_    0.256282 0.395027 0.201026 0.140047
H25   H     H_    0.203448 0.385153 0.246318 0.151201
H26   H     H_    0.139011 0.388555 0.187108 0.163543
H27   H     H_    0.189271 0.391712 0.138165 0.142630
H28   H     H_    0.365766 0.601218 0.299938 0.121529
H29   H     H_    0.348084 0.516864 0.231799 0.140950
H30   H     H_    0.301154 0.602403 0.238459 0.132517
H31   H     H_    0.226278 0.595236 0.302420 0.111582
H32   H     H_    0.286682 0.519500 0.169515 0.141856
H33   H     H_    0.300836 0.435036 0.733640 0.117619
H34   H     H_    0.200154 0.067268 0.282705 0.114083
H35   H     H_    0.354462 0.531560 0.794821 0.208161
H36   H     H_    0.284989 0.515261 0.851816 0.189136
H37   H     H_    0.227986 0.422956 0.786205 0.114381
H38   H     H_    0.204296 0.449245 0.635819 0.134344
H39   H     H_    0.209346 0.387764 0.646370 0.136857
H40   H     H_    0.148040 0.467093 0.704186 0.161833
H41   H     H_    0.273486 0.581762 0.718708 0.120282
H42   H     H_    0.224278 0.593306 0.790791 0.062213
H43   H     H_    0.268850 0.942169 0.290650 0.195028
H44   H     H_    0.321688 0.068647 0.362543 0.201749
H45   H     H_    0.225481 0.065582 0.218742 0.229126
H46   H     H_    0.428944 0.042434 0.337458 0.388989
H47   H     H_    0.145628 0.993306 0.366174 0.355928
H48   H     H_    0.074604 0.798964 0.057750 0.370860
H49   H     H_    0.968012 0.547075 0.287061 0.388422
H50   H     H_    0.714756 0.819492 0.799519 0.387213
H51   H     H_    0.639318 0.045513 0.776266 0.178693
H52   H     H_    0.872469 0.131612 0.728808 0.150515
H53   H     H_    0.950150 0.050426 0.733441 0.394104
H54   H     H_    0.628464 0.970471 0.620272 0.364714
H55   H     H_    0.232542 0.488737 0.386442 0.146977
H56   H     H_    0.137423 0.944128 0.228405 0.216329
H57   H     H_    0.884441 0.770462 0.894338 0.395630
H58   H     H_    0.330340 0.658246 0.377539 0.113717
H59   H     H_    0.285195 0.681481 0.899374 0.127504
H60   H     H_    0.450486 0.707092 0.750293 0.380934
H61   H     H_    0.879735 0.603920 0.716519 0.145885
H62   H     H_    0.134307 0.335915 0.698499 0.122550
H63   H     H_    0.384591 0.058953 0.113303 0.382565
H64   H     H_    0.250347 0.063410 0.358778 0.142327
H65   H     H_    0.796107 0.597869 0.234679 0.124971
H66   H     H_    0.800951 0.441530 0.686511 0.143842
O1    O     O_3   0.500000 0.500000 0.500000 -0.461222
O2    O     O_R   0.960830 0.335840 0.918110 -0.519017
O3    O     O_R   0.082190 0.542890 0.125100 -0.527804
O4    O     O_R   0.625020 0.663960 0.582080 -0.517525
O5    O     O_R   0.874750 0.456980 0.917820 -0.529527
O6    O     O_R   0.082060 0.456790 0.039130 -0.529951
O7    O     O_R   0.960740 0.542810 0.917680 -0.517531
O8    O     O_R   0.081970 0.663760 0.038700 -0.539639
O9    O     O_R   0.874800 0.335990 0.918070 -0.510045
O10   O     O_R   0.961140 0.543090 0.125040 -0.506764
O11   O     O_R   0.081820 0.456620 0.917920 -0.526690
O12   O     O_R   0.418020 0.456930 0.581980 -0.544592
O13   O     O_R   0.418070 0.336020 0.461010 -0.539586
O14   O     O_R   0.417900 0.542920 0.581890 -0.509579
O15   O     O_R   0.539010 0.457110 0.375020 -0.527005
O16   O     O_R   0.417800 0.543010 0.460800 -0.524181
O17   O     O_R   0.625170 0.542960 0.582200 -0.505760
O18   O     O_R   0.417840 0.457080 0.374840 -0.536802
O19   O     O_R   0.539180 0.456950 0.582160 -0.536823
O20   O     O_2   0.431195 0.047880 0.233788 -0.177475
O21   O     O_2   0.439421 0.149176 0.331115 -0.254747
O22   O     O_3   0.385359 0.022492 0.314279 -0.587129
O23   O     O_R   0.625070 0.543050 0.461120 -0.526766
O24   O     O_2   0.137127 0.837835 0.277411 -0.208598
O25   O     O_2   0.209089 0.948990 0.384110 -0.247146
O26   O     O_3   0.126203 0.946757 0.322855 -0.506080
O27   O     O_2   0.109104 0.962806 0.129402 -0.192105
O28   O     O_2   0.173158 0.916796 0.084535 -0.238742
O29   O     O_3   0.068089 0.831592 0.095216 -0.474824
O30   O     O_2   0.901945 0.595495 0.356601 -0.270257
O31   O     O_2   0.876532 0.476731 0.327848 -0.234494
O32   O     O_3   0.925195 0.520450 0.257070 -0.509309
O33   O     O_2   0.829172 0.952256 0.849906 -0.182183
O34   O     O_R   0.538910 0.663940 0.581950 -0.533723
O35   O     O_2   0.734674 0.953900 0.858644 -0.292521
O36   O     O_3   0.718749 0.832005 0.768110 -0.510369
O37   O     O_2   0.713410 0.143146 0.849472 -0.458464
O38   O     O_2   0.839281 0.037598 0.644674 -0.434681
O39   O     O_2   0.941069 0.158135 0.826357 -0.299084
O40   O     O_2   0.934431 0.071577 0.846323 -0.186872
O41   O     O_3   0.904138 0.027856 0.728620 -0.515759
O42   O     O_2   0.748766 0.142341 0.732272 -0.224385
O43   O     O_2   0.735892 0.056923 0.622412 -0.233375
O44   O     O_3   0.647156 0.007238 0.667379 -0.553037
O45   O     O_R   0.418000 0.336080 0.374960 -0.510767
O46   O     O_2   0.151396 0.460162 0.338420 -0.486947
O47   O     O_2   0.848655 0.671612 0.925646 -0.239663
O48   O     O_2   0.921299 0.677512 0.862560 -0.258076
O49   O     O_3   0.849236 0.720472 0.857206 -0.478080
O50   O     O_2   0.307650 0.634931 0.440847 -0.466381
O51   O     O_2   0.339133 0.646389 0.899722 -0.439209
O52   O     O_2   0.380573 0.729905 0.830172 -0.235594
O53   O     O_2   0.422050 0.660504 0.827126 -0.231910
O54   O     O_3   0.405191 0.663528 0.728758 -0.516009
O55   O     O_2   0.807044 0.589635 0.668209 -0.447934
O56   O     O_3   0.999930 0.499860 0.999930 -0.466376
O57   O     O_2   0.064777 0.343958 0.677666 -0.455462
O58   O     O_2   0.283898 0.059359 0.149140 -0.247652
O59   O     O_2   0.391384 0.157538 0.228453 -0.235600
O60   O     O_3   0.370186 0.034034 0.135302 -0.454521
O61   O     O_R   0.874990 0.457140 0.039030 -0.538291
O62   O     O_R   0.081780 0.542610 0.917740 -0.533358
O63   O     O_R   0.082140 0.663870 0.124840 -0.508416
S1    S     S_3+6 0.396963 0.067320 0.280078 0.048385
S2    S     S_3+6 0.341006 0.075444 0.187394 0.081236
S3    S     S_3+6 0.175971 0.920806 0.318015 0.019522
S4    S     S_3+6 0.132435 0.918310 0.126904 0.055328
S5    S     S_3+6 0.876764 0.517948 0.301617 0.013630
S6    S     S_3+6 0.765282 0.924928 0.812489 0.028449
S7    S     S_3+6 0.902994 0.078251 0.802454 0.000108
S8    S     S_3+6 0.726225 0.063919 0.683105 0.016306
S9    S     S_3+6 0.856472 0.662012 0.863827 0.045093
S10   S     S_3+6 0.378631 0.661315 0.788307 0.043863
Zn1   Zn    Zn3+2 0.469350 0.438540 0.530750 0.969060
Zn2   Zn    Zn3+2 0.469190 0.561400 0.530630 0.985189
Zn3   Zn    Zn3+2 0.469250 0.438630 0.407810 0.982916
Zn4   Zn    Zn3+2 0.592210 0.561430 0.530810 1.002779
Zn5   Zn    Zn3+2 0.030570 0.561190 0.969050 0.984502
Zn6   Zn    Zn3+2 0.030810 0.561360 0.092130 1.004177
Zn7   Zn    Zn3+2 0.030630 0.438350 0.969310 0.989502
Zn8   Zn    Zn3+2 0.907720 0.438560 0.969250 0.998168

loop_
_geom_bond_atom_site_label_1
_geom_bond_atom_site_label_2
_ccdc_geom_bond_type
O44   S8    S    
C5    S1    S    
C55   H30   S    
C27   H7    S    
C8    C13   S    
C23   C45   S    
O54   S10   S    
C52   O17   A    
O24   S3    D    
C73   C74   T    
O48   S9    D    
C70   C91   S    
C33   H16   S    
C2    C12   T    
C85   H52   S    
C62   H33   S    
C61   C68   S    
C39   C41   S    
C53   C54   S    
C77   O11   A    
C27   H8    S    
O25   S3    D    
C45   S9    S    
O22   S1    S    
C18   C24   S    
O42   S8    D    
C68   H42   S    
C42   H18   S    
C76   C78   S    
O36   S6    S    
C91   H62   S    
C91   O57   D    
O56   Zn7   S    
C53   H31   S    
O1    Zn3   S    
O34   Zn2   S    
C30   C31   T    
O30   S5    D    
C1    C46   S    
C78   H11   S    
C20   C25   S    
C26   S5    S    
C49   C54   S    
C86   H55   S    
C37   C42   S    
C56   C78   S    
C15   C17   T    
C24   H10   S    
O43   S8    D    
O47   S9    D    
C40   O16   A    
C6    H23   S    
C35   H17   S    
C61   H41   S    
C26   H13   S    
O14   Zn2   S    
C61   C66   S    
C28   O15   A    
C7    C14   T    
C49   H26   S    
C20   H6    S    
C63   C69   S    
C45   C56   S    
C84   O37   D    
C68   C69   S    
O18   Zn3   S    
O28   S4    D    
C64   H66   S    
C45   C67   S    
C56   C64   S    
O21   S1    D    
C70   C71   S    
C51   C57   S    
C32   C38   S    
H48   O29   S    
C22   C30   S    
C9    C10   S    
C52   O19   A    
O1    Zn1   S    
C63   H37   S    
O6    Zn7   S    
H57   O49   S    
C57   H28   S    
C13   H34   S    
C9    H43   S    
C64   C76   S    
O35   S6    D    
C5    S2    S    
C20   H5    S    
O39   S7    D    
O23   Zn4   S    
C59   C60   T    
C81   O3    A    
O33   S6    D    
O49   S9    S    
H49   O32   S    
C81   O6    A    
C67   C78   S    
C18   H9    S    
C88   O51   D    
O17   Zn4   S    
C80   O9    A    
C53   H22   S    
C48   C51   S    
C25   C29   S    
O10   Zn6   S    
C83   C89   T    
C55   H32   S    
O32   S5    S    
H54   O44   S    
C65   C77   S    
C62   C66   S    
C50   C58   T    
C47   C86   S    
O62   Zn5   S    
C19   C22   S    
C38   C39   S    
C24   C25   S    
O2    Zn7   S    
C90   H61   S    
C3    C8    S    
C36   C80   S    
O1    Zn2   S    
C62   H35   S    
C77   O62   A    
C80   O2    A    
C39   C43   S    
C44   C46   T    
C75   O61   A    
C25   C26   S    
O15   Zn3   S    
C66   C73   S    
C21   C29   T    
C33   C37   S    
O12   Zn1   S    
C48   H25   S    
C47   C87   S    
C34   C67   S    
C52   C83   S    
C35   C39   S    
C41   C42   S    
C6    H12   S    
C62   C63   S    
C3    C9    S    
O16   Zn2   S    
C71   H38   S    
C9    S3    S    
C4    O45   A    
C66   C71   S    
H46   O22   S    
C84   H51   S    
O5    Zn8   S    
C23   C34   S    
O13   Zn1   S    
C3    H64   S    
C61   S10   S    
C26   C27   S    
C23   C90   S    
C12   C82   S    
H50   O36   S    
C32   C37   S    
C79   O8    A    
H63   O60   S    
H47   O26   S    
C28   O23   A    
C87   O50   D    
H60   O54   S    
C19   H3    S    
C4    O13   A    
C76   H1    S    
C48   H24   S    
C4    C17   S    
O40   S7    D    
C67   H20   S    
C48   C49   S    
O31   S5    D    
C32   S6    S    
O56   Zn8   S    
C8    C15   S    
C22   C27   S    
C57   H29   S    
C10   C14   S    
C68   C88   S    
C13   H45   S    
C16   C74   S    
C51   C59   S    
O61   Zn8   S    
O56   Zn6   S    
O58   S2    D    
C1    O34   A    
C69   C72   S    
C19   H4    S    
O41   S7    S    
C7    C79   S    
C54   C58   S    
O60   S2    S    
O27   S4    D    
O29   S4    S    
C54   C55   S    
C23   C64   S    
C37   C44   S    
C32   H21   S    
C16   O12   A    
C88   H59   S    
O63   Zn6   S    
C28   C31   S    
C85   O38   D    
C33   H15   S    
C40   O18   A    
C71   H39   S    
C11   S4    S    
C6    C10   S    
C5    C8    S    
C47   C51   S    
C35   C84   S    
O8    Zn5   S    
O11   Zn7   S    
C18   C22   S    
O9    Zn8   S    
C65   C72   T    
C82   O5    A    
C21   C75   S    
C47   C53   S    
C10   C11   S    
C19   C20   S    
C55   C57   S    
C42   H19   S    
C34   C89   S    
C2    C56   S    
O1    Zn4   S    
O45   Zn3   S    
C90   O55   D    
C11   C13   S    
C16   O14   A    
C11   H56   S    
C79   O63   A    
C5    C6    S    
C82   O7    A    
C38   H14   S    
O4    Zn4   S    
C70   H40   S    
C33   C35   S    
C3    H44   S    
O52   S10   D    
C69   C70   S    
O59   S2    D    
O53   S10   D    
C41   S8    S    
C1    O4    A    
C49   H27   S    
O19   Zn1   S    
H53   O41   S    
O26   S3    S    
C87   H58   S    
C40   C60   S    
C18   H2    S    
C36   C43   T    
C75   O10   A    
O20   S1    D    
O56   Zn5   S    
O3    Zn6   S    
C86   O46   D    
C63   H36   S    
C41   C85   S    
C24   H65   S    
C50   C81   S    
C34   C76   S    
C38   S7    S    
O7    Zn5   S    
