data_mof_unit_12372.cif
_audit_creation_date              2012-12-10T20:52:11-0500
_audit_creation_method            fapswitch 2.2
_symmetry_space_group_name_H-M    P1
_symmetry_Int_Tables_number       1
_space_group_crystal_system       triclinic
_cell_length_a                    10.905768
_cell_length_b                    8.889953
_cell_length_c                    8.293176
_cell_angle_alpha                 89.983571
_cell_angle_beta                  91.702383
_cell_angle_gamma                 90.011542
_cell_volume                      803.68312025

loop_
_atom_site_label
_atom_site_type_symbol
_atom_type_description
_atom_site_fract_x
_atom_site_fract_y
_atom_site_fract_z
_atom_type_partial_charge
C1    C     C_R   0.500024 0.218860 0.499978 0.919083
C2    C     C_R   0.739719 0.490609 0.502563 0.862059
C3    C     C_R   0.227363 0.505171 0.994020 0.572589
C4    C     C_R   0.803245 0.247261 0.947470 0.575137
C5    C     C_R   0.144436 0.526798 0.117185 -0.239992
C6    C     C_R   0.878021 0.298805 0.826053 -0.198229
C7    C     C_R   0.108663 0.405020 0.209606 0.093939
C8    C     C_R   0.896410 0.453677 0.802906 0.062816
C9    C     C_R   0.136221 0.257614 0.165653 -0.153490
C10   C     C_R   0.847531 0.558278 0.907556 -0.150728
C11   C     C_R   0.206636 0.233014 0.031486 -0.237183
C12   C     C_R   0.500017 0.781145 0.500002 0.934661
C13   C     C_R   0.769056 0.508902 0.024608 -0.174484
C14   C     C_R   0.253592 0.355504 0.948130 -0.167337
C15   C     C_R   0.742510 0.354640 0.040515 -0.240941
C16   C     C_R   0.930435 0.430918 0.370547 -0.275230
C17   C     C_R   0.065866 0.526452 0.637403 -0.251740
C18   C     C_3   0.283127 0.762082 0.994030 -0.330734
C19   C     C_3   0.779772 0.045135 0.120229 -0.343536
C20   C     C_R   0.872094 0.475265 0.507950 -0.083352
C21   C     C_R   0.125501 0.492795 0.495855 -0.098796
C22   C     C_R   0.942090 0.502330 0.648502 0.026247
C23   C     C_R   0.055779 0.437750 0.363211 0.029507
C24   C     C_1   0.500072 0.065477 0.499962 -0.196662
C25   C     C_1   0.500063 0.934549 0.499950 -0.205027
C26   C     C_R   0.259281 0.499872 0.497894 0.860143
H1    H     H_    0.314221 0.330882 0.851713 0.186095
H2    H     H_    0.114604 0.564849 0.741690 0.208642
H3    H     H_    0.316758 0.749021 0.121240 0.187237
H4    H     H_    0.191290 0.816170 0.986788 0.147290
H5    H     H_    0.347843 0.838606 0.933839 0.204300
H6    H     H_    0.688172 0.065515 0.171089 0.182495
H7    H     H_    0.853521 0.098286 0.196731 0.145475
H8    H     H_    0.795709 0.921882 0.123361 0.193128
H9    H     H_    0.678224 0.318737 0.129036 0.178787
H10   H     H_    0.116326 0.638185 0.153549 0.122970
H11   H     H_    0.916464 0.218387 0.743294 0.144949
H12   H     H_    0.106748 0.163353 0.237673 0.129359
H13   H     H_    0.860901 0.677751 0.889103 0.150551
H14   H     H_    0.229619 0.119476 0.996302 0.149167
H15   H     H_    0.725868 0.592275 0.098453 0.189142
H16   H     H_    0.879344 0.387429 0.270396 0.173203
N1    N     N_1   0.500020 0.500030 0.073640 -0.059504
N2    N     N_1   0.499980 0.499970 0.926360 -0.005278
O1    O     O_R   0.499990 0.285340 0.636850 -0.625297
O2    O     O_3   0.781934 0.093485 0.958103 -0.612748
O3    O     O_R   0.500010 0.714660 0.363150 -0.636031
O4    O     O_R   0.500010 0.285350 0.363100 -0.631946
O5    O     O_R   0.499990 0.714650 0.636900 -0.583130
O6    O     O_R   0.316750 0.500000 0.636870 -0.591655
O7    O     O_R   0.683250 0.500000 0.363130 -0.657635
O8    O     O_R   0.316770 0.500020 0.363120 -0.621853
O9    O     O_R   0.683230 0.499980 0.636880 -0.603354
O10   O     O_3   0.281171 0.623631 0.910655 -0.603360
Zn1   Zn    Zn3+2 0.499990 0.499990 0.682780 1.008045
Zn2   Zn    Zn3+2 0.500010 0.500010 0.317220 0.942233

loop_
_geom_bond_atom_site_label_1
_geom_bond_atom_site_label_2
_ccdc_geom_bond_type
C8    C22   S    
N1    N2    T    
C1    O4    A    
C18   H4    S    
C26   O8    A    
C14   H1    S    
C5    C7    A    
C17   C22   A    
C13   C15   A    
C12   C25   S    
C16   C20   A    
C4    C15   A    
C26   O6    A    
C12   O5    A    
C6    H11   S    
C18   H3    S    
C4    O2    S    
C9    C11   A    
N2    Zn1   S    
C1    O1    A    
C3    C14   A    
O8    Zn2   S    
C12   O3    A    
C7    C23   S    
C19   H6    S    
C13   H15   S    
C9    H12   S    
C11   C14   A    
C21   C26   S    
C20   C22   A    
C16   C23   A    
C7    C9    A    
O9    Zn1   S    
C21   C23   A    
C11   H14   S    
C3    O10   S    
C19   O2    S    
C4    C6    A    
C2    O7    A    
C18   O10   S    
C2    C20   S    
C2    O9    A    
C5    H10   S    
C16   H16   S    
N1    Zn2   S    
C24   C25   T    
O1    Zn1   S    
C1    C24   S    
C8    C10   A    
O7    Zn2   S    
C19   H7    S    
C15   H9    S    
O4    Zn2   S    
C10   H13   S    
C6    C8    A    
C18   H5    S    
O5    Zn1   S    
C17   H2    S    
C19   H8    S    
C17   C21   A    
O6    Zn1   S    
O3    Zn2   S    
C3    C5    A    
C10   C13   A    
