data_mof_unit_41964.cif
_audit_creation_date              2012-12-10T20:48:18-0500
_audit_creation_method            fapswitch 2.2
_symmetry_space_group_name_H-M    P1
_symmetry_Int_Tables_number       1
_space_group_crystal_system       triclinic
_cell_length_a                    10.876522
_cell_length_b                    8.98513
_cell_length_c                    8.100355
_cell_angle_alpha                 89.882005
_cell_angle_beta                  89.748416
_cell_angle_gamma                 89.749339
_cell_volume                      791.606247892

loop_
_atom_site_label
_atom_site_type_symbol
_atom_type_description
_atom_site_fract_x
_atom_site_fract_y
_atom_site_fract_z
_atom_type_partial_charge
C1    C     C_R   0.498117 0.217995 0.500325 0.971053
C2    C     C_R   0.257254 0.511815 0.499713 1.134363
C3    C     C_R   0.742755 0.509740 0.498189 1.111497
C4    C     C_R   0.501076 0.782054 0.500722 1.052295
C5    C     C_1   0.496223 0.065361 0.501558 -0.070682
C6    C     C_3   0.068948 0.474165 0.667206 0.464411
C7    C     C_3   0.071457 0.414198 0.365957 0.448984
C8    C     C_3   0.929658 0.494266 0.669338 0.415290
C9    C     C_3   0.931052 0.399039 0.380080 0.472263
C10   C     C_1   0.496800 0.935268 0.502363 0.030361
C11   C     C_3   0.072816 0.695107 0.460186 0.345031
C12   C     C_3   0.924415 0.684769 0.419851 0.316008
C13   C     C_3   0.120770 0.526708 0.497015 -0.575485
C14   C     C_3   0.878914 0.524940 0.491491 -0.562475
H1    H     H_    0.107870 0.536488 0.772506 0.172558
H2    H     H_    0.097031 0.452088 0.241162 0.168933
H3    H     H_    0.904913 0.587998 0.750066 0.161891
H4    H     H_    0.889187 0.399405 0.256514 0.119667
N1    N     N_1   0.500000 0.500030 0.073640 0.013621
N2    N     N_1   0.500000 0.500030 0.926360 0.008408
O1    O     O_R   0.500000 0.285340 0.636850 -0.619952
O2    O     O_R   0.500000 0.285340 0.363150 -0.609796
O3    O     O_R   0.314790 0.499970 0.636880 -0.596676
O4    O     O_R   0.314790 0.499970 0.363120 -0.601418
O5    O     O_R   0.685210 0.499970 0.636880 -0.564789
O6    O     O_R   0.685210 0.499970 0.363120 -0.613348
O7    O     O_R   0.500000 0.714650 0.636900 -0.615432
O8    O     O_R   0.500000 0.714650 0.363100 -0.580859
Zn1   Zn    Zn3+2 0.500000 0.499990 0.682780 1.129809
Zn2   Zn    Zn3+2 0.500000 0.499990 0.317220 1.132492
F1    F     F_    0.099687 0.326202 0.696341 -0.522233
F2    F     F_    0.126147 0.275028 0.383530 -0.502862
F3    F     F_    0.877362 0.368181 0.740195 -0.549062
F4    F     F_    0.900508 0.261998 0.444473 -0.501261
S1    S     S_3+6 0.115497 0.812697 0.641781 0.081906
O9    O     O_2   0.020559 0.811540 0.776775 -0.236970
O10   O     O_2   0.234375 0.760889 0.715928 -0.365171
O11   O     O_3   0.140826 0.990649 0.585504 -0.339901
H5    H     H_    0.177759 0.038266 0.683564 0.414877
S2    S     S_3+6 0.158798 0.786145 0.292506 0.149460
O12   O     O_2   0.103638 0.934892 0.251020 -0.076863
O13   O     O_2   0.284068 0.819684 0.352746 -0.335686
O14   O     O_3   0.176000 0.684200 0.120408 -0.501090
H6    H     H_    0.239412 0.736520 0.054464 0.403500
S3    S     S_3+6 0.833242 0.837571 0.511380 0.110721
O15   O     O_2   0.731857 0.879975 0.396107 -0.278020
O16   O     O_2   0.776669 0.794355 0.674126 -0.339724
O17   O     O_3   0.912535 0.994269 0.537285 -0.310231
H7    H     H_    0.877400 0.041023 0.637773 0.441919
S4    S     S_3+6 0.886154 0.701753 0.192534 0.126621
O18   O     O_2   0.752077 0.678067 0.159478 -0.266853
O19   O     O_2   0.909090 0.856572 0.130667 -0.067982
O20   O     O_3   0.963115 0.584479 0.067921 -0.569752
H8    H     H_    0.900253 0.519043 0.018835 0.376636

loop_
_geom_bond_atom_site_label_1
_geom_bond_atom_site_label_2
_ccdc_geom_bond_type
S4    O19   D    
C9    C14   S    
C1    O1    A    
C12   S3    S    
O7    Zn1   S    
C3    O6    A    
O2    Zn2   S    
C12   S4    S    
C8    H3    S    
C3    O5    A    
C11   C12   S    
S1    O11   S    
S2    O12   D    
O8    Zn2   S    
S4    O18   D    
C1    O2    A    
O20   H8    S    
C6    C13   S    
O5    Zn1   S    
C11   C13   S    
C9    F4    S    
C3    C14   S    
C1    C5    S    
O3    Zn1   S    
S2    O13   D    
O17   H7    S    
S1    O10   D    
C12   C14   S    
O6    Zn2   S    
N2    Zn1   S    
S3    O16   D    
O14   H6    S    
C2    O4    A    
O11   H5    S    
O4    Zn2   S    
S4    O20   S    
C5    C10   T    
C11   S2    S    
C6    F1    S    
C9    H4    S    
C7    C13   S    
C4    O7    A    
S3    O17   S    
C2    O3    A    
C7    C9    S    
C2    C13   S    
C7    H2    S    
C6    C8    S    
C7    F2    S    
C8    C14   S    
C4    O8    A    
C6    H1    S    
S3    O15   D    
N1    Zn2   S    
O1    Zn1   S    
C11   S1    S    
S2    O14   S    
N1    N2    T    
C4    C10   S    
C8    F3    S    
S1    O9    D    
