data_mof_unit_28367.cif
_audit_creation_date              2012-12-11T16:56:14-0500
_audit_creation_method            fapswitch 2.2
_symmetry_space_group_name_H-M    P1
_symmetry_Int_Tables_number       1
_space_group_crystal_system       triclinic
_cell_length_a                    6.983955
_cell_length_b                    14.520098
_cell_length_c                    16.209951
_cell_angle_alpha                 90.514228
_cell_angle_beta                  90.037667
_cell_angle_gamma                 89.947419
_cell_volume                      1643.74678395

loop_
_atom_site_label
_atom_site_type_symbol
_atom_type_description
_atom_site_fract_x
_atom_site_fract_y
_atom_site_fract_z
_atom_type_partial_charge
O1    O     O_R   0.505830 0.583360 0.413880 -0.532292
O2    O     O_R   0.175830 0.595460 0.585520 -0.545403
O3    O     O_R   0.005520 0.416640 0.586120 -0.542704
C1    C     C_R   0.344628 0.617386 0.614369 0.692630
O4    O     O_R   0.176120 0.594390 0.414490 -0.549230
O5    O     O_R   0.005810 0.415570 0.413870 -0.535129
C2    C     C_R   0.345187 0.616711 0.386377 0.726625
O6    O     O_R   0.505540 0.584430 0.586130 -0.538068
O7    O     O_3   0.339200 0.441330 0.500000 -0.368504
V1    V     V_3+5 0.064350 0.510880 0.500000 1.389287
O8    O     O_R   0.676100 0.404540 0.414480 -0.534279
C3    C     C_R   0.845104 0.382227 0.386181 0.706624
O9    O     O_R   0.675810 0.405610 0.585510 -0.541686
C4    C     C_R   0.845287 0.383731 0.613412 0.754894
V2    V     V_3+5 0.564340 0.489120 0.500000 1.417200
O10   O     O_3   0.839360 0.558670 0.500000 -0.382864
C5    C     C_2   0.715765 0.206935 0.782987 0.228137
C6    C     C_2   0.880066 0.182298 0.822490 -0.299172
H1    H     H_    0.014888 0.214260 0.806635 0.089444
C7    C     C_2   0.708793 0.277927 0.716755 -0.200283
C8    C     C_2   0.862159 0.314760 0.679448 -0.341209
H2    H     H_    0.566999 0.299111 0.696784 0.143623
H3    H     H_    0.005886 0.294174 0.696313 0.129324
C9    C     C_R   0.725095 0.244363 0.192360 0.043834
C10   C     C_R   0.880838 0.184220 0.184504 -0.050270
C11   C     C_R   0.025863 0.190872 0.244037 -0.195057
H4    H     H_    0.140487 0.141903 0.242404 0.124469
C12   C     C_R   0.014939 0.255020 0.309556 -0.183927
H5    H     H_    0.126445 0.255408 0.355944 0.130115
C13   C     C_R   0.857489 0.315149 0.317034 -0.115276
C14   C     C_R   0.716751 0.310711 0.255552 0.063808
C15   C     C_3   0.506718 0.298089 0.266595 0.011344
C16   C     C_3   0.518798 0.219869 0.202756 -0.011159
H6    H     H_    0.465830 0.278251 0.330264 0.142662
H7    H     H_    0.431323 0.229476 0.146008 0.123285
C17   C     C_R   0.508387 0.682217 0.740693 0.105158
C18   C     C_R   0.353094 0.682142 0.685806 -0.110338
C19   C     C_R   0.201032 0.742891 0.703683 -0.178816
C20   C     C_R   0.212359 0.805764 0.770358 -0.174735
H8    H     H_    0.096847 0.854409 0.779489 0.128904
C21   C     C_R   0.376437 0.810145 0.821128 -0.114231
C22   C     C_R   0.520074 0.744693 0.806415 0.100919
C23   C     C_3   0.729397 0.758352 0.794072 -0.413300
C24   C     C_3   0.716843 0.689971 0.722777 -0.398372
H9    H     H_    0.815095 0.732623 0.846894 0.175178
H10   H     H_    0.763333 0.829556 0.774203 0.168994
H11   H     H_    0.794689 0.624566 0.734517 0.168965
H12   H     H_    0.744215 0.721310 0.661584 0.170881
C25   C     C_R   0.516671 0.687937 0.266085 0.072451
C26   C     C_R   0.355212 0.682838 0.316978 -0.070841
C27   C     C_R   0.203757 0.743121 0.299972 -0.165864
C28   C     C_R   0.214693 0.806938 0.235157 -0.099565
H13   H     H_    0.099432 0.855876 0.227482 0.129843
C29   C     C_R   0.377082 0.811095 0.183792 -0.111574
C30   C     C_R   0.524753 0.748143 0.198919 0.012476
C31   C     C_3   0.729981 0.770065 0.214732 0.007233
C32   C     C_3   0.717284 0.710142 0.291378 0.020082
H14   H     H_    0.757035 0.844593 0.226265 0.140053
O11   O     O_R   0.229930 0.912420 0.917160 -0.539364
O12   O     O_R   0.559420 0.902500 0.088780 -0.546000
O13   O     O_R   0.729660 0.081330 0.089380 -0.529350
C33   C     C_R   0.390417 0.880697 0.117329 0.683931
O14   O     O_R   0.559650 0.901420 0.917750 -0.538960
O15   O     O_R   0.729880 0.080250 0.917130 -0.506107
C34   C     C_R   0.390609 0.879654 0.888750 0.709481
O16   O     O_R   0.229700 0.913500 0.089410 -0.538625
O17   O     O_3   0.396250 0.055540 0.003280 -0.364789
V3    V     V_3+5 0.671130 0.986010 0.003260 1.420819
O18   O     O_R   0.059600 0.091310 0.917720 -0.547889
C35   C     C_R   0.890027 0.112989 0.889315 0.763114
O19   O     O_R   0.059370 0.092380 0.088750 -0.554327
C36   C     C_R   0.890428 0.114156 0.117541 0.695176
V4    V     V_3+5 0.171120 0.007820 0.003230 1.395129
O20   O     O_3   0.896130 0.938240 0.003240 -0.378617
N1    N     N_3   0.537055 0.164889 0.804902 -0.629328
H15   H     H_    0.442962 0.216879 0.824061 0.213213
H16   H     H_    0.479612 0.133973 0.751918 0.211605
N2    N     N_3   0.504580 0.127578 0.238759 -0.656443
H17   H     H_    0.429031 0.128851 0.294347 0.213876
H18   H     H_    0.431721 0.084438 0.197422 0.235301
H19   H     H_    0.077784 0.745272 0.663478 0.134413
H20   H     H_    0.082417 0.744137 0.340371 0.124170
N3    N     N_3   0.855379 0.730501 0.151165 -0.671555
H21   H     H_    0.814129 0.662847 0.137096 0.225763
H22   H     H_    0.838439 0.768925 0.097429 0.250397
N4    N     N_3   0.717171 0.764158 0.368432 -0.671038
H23   H     H_    0.765517 0.721853 0.415931 0.242547
H24   H     H_    0.812962 0.819176 0.364613 0.215428
H25   H     H_    0.813711 0.649007 0.291952 0.131384
N5    N     N_3   0.401714 0.378961 0.237246 -0.669136
H26   H     H_    0.258543 0.360735 0.229043 0.241322
H27   H     H_    0.452356 0.398557 0.179208 0.220164

loop_
_geom_bond_atom_site_label_1
_geom_bond_atom_site_label_2
_ccdc_geom_bond_type
C6    C35   S    
C30   C31   S    
O14   C34   A    
N1    H15   S    
C21   C22   A    
C17   C22   A    
C1    O6    A    
C20   C21   A    
C32   N4    S    
C11   H4    S    
C32   H25   S    
O15   V3    S    
C4    C8    S    
C17   C18   A    
O5    C3    A    
C13   C14   A    
N4    H24   S    
C16   N2    S    
V3    O20   S    
V2    O10   S    
C5    C7    S    
C25   C32   S    
C31   C32   S    
O12   C33   A    
C6    H1    S    
V4    O20   S    
C29   C30   A    
O8    V2    S    
C15   N5    S    
N3    H21   S    
O18   V4    S    
O17   V4    S    
O15   C35   A    
O7    V1    S    
O11   V4    S    
C24   H11   S    
O1    C2    A    
O9    C4    A    
C28   C29   A    
C26   C27   A    
C33   O16   A    
C27   C28   A    
C9    C10   A    
C20   H8    S    
O4    C2    A    
N2    H17   S    
C21   C34   S    
C29   C33   S    
C10   C11   A    
C25   C30   A    
O16   V4    S    
O17   V3    S    
C15   H6    S    
O2    C1    A    
C23   C24   S    
C18   C19   A    
C23   H9    S    
N5    H27   S    
C14   C15   S    
C5    C6    D    
C10   C36   S    
C7    C8    D    
N1    H16   S    
C27   H20   S    
O3    C4    A    
O1    V2    S    
O13   C36   A    
N3    H22   S    
C7    H2    S    
O6    V2    S    
O9    V2    S    
C19   H19   S    
C17   C24   S    
C22   C23   S    
O2    V1    S    
C28   H13   S    
C31   N3    S    
O19   V4    S    
O14   V3    S    
C12   H5    S    
C3    C13   S    
N4    H23   S    
C2    C26   S    
O5    V1    S    
O8    C3    A    
C11   C12   A    
C9    C16   S    
C15   C16   S    
C8    H3    S    
O7    V2    S    
C9    C14   A    
O4    V1    S    
O3    V1    S    
V1    O10   S    
O11   C34   A    
O13   V3    S    
N5    H26   S    
C19   C20   A    
C12   C13   A    
C16   H7    S    
C31   H14   S    
N2    H18   S    
O18   C35   A    
C23   H10   S    
O19   C36   A    
C1    C18   S    
O12   V3    S    
C25   C26   A    
C5    N1    S    
C24   H12   S    
