data_mof_unit_43082.cif
_audit_creation_date              2012-12-10T19:10:38-0500
_audit_creation_method            fapswitch 2.2
_symmetry_space_group_name_H-M    P1
_symmetry_Int_Tables_number       1
_space_group_crystal_system       triclinic
_cell_length_a                    13.025787
_cell_length_b                    9.097951
_cell_length_c                    7.782761
_cell_angle_alpha                 89.991411
_cell_angle_beta                  96.477352
_cell_angle_gamma                 89.993932
_cell_volume                      916.431602854

loop_
_atom_site_label
_atom_site_type_symbol
_atom_type_description
_atom_site_fract_x
_atom_site_fract_y
_atom_site_fract_z
_atom_type_partial_charge
C1    C     C_R   0.499990 0.220014 0.500004 0.836887
C2    C     C_R   0.870194 0.551160 0.710321 0.145622
C3    C     C_R   0.135543 0.525994 0.589591 -0.297089
C4    C     C_R   0.864418 0.470266 0.410837 -0.304977
C5    C     C_R   0.028554 0.519485 0.578535 0.144465
C6    C     C_R   0.971489 0.476348 0.422129 0.142047
C7    C     C_1   0.499982 0.065364 0.500003 -0.175609
C8    C     C_1   0.499985 0.934638 0.499986 -0.174272
C9    C     C_R   0.499988 0.779986 0.499991 0.845542
C10   C     C_R   0.299887 0.496755 0.467266 0.806610
C11   C     C_R   0.700106 0.502516 0.532720 0.819235
C12   C     C_R   0.813031 0.507474 0.553402 -0.047653
C13   C     C_R   0.186943 0.489832 0.446609 -0.066597
C14   C     C_R   0.022068 0.439618 0.278951 -0.242858
C15   C     C_R   0.977907 0.556091 0.721747 -0.264094
C16   C     C_R   0.129901 0.445476 0.289386 0.155972
Cu1   Cu    Cu3+1 0.500010 0.500000 0.669080 1.014477
Cu2   Cu    Cu3+1 0.499990 0.500000 0.330920 1.009964
H1    H     H_    0.820999 0.436184 0.290274 0.165302
H2    H     H_    0.178870 0.560147 0.710219 0.175362
H3    H     H_    0.977778 0.404688 0.159719 0.127074
H4    H     H_    0.021634 0.590018 0.842059 0.145786
H5    H     H_    0.842271 0.701530 0.890487 0.218823
H6    H     H_    0.845200 0.525391 0.960018 0.210841
H7    H     H_    0.127711 0.387080 0.033754 0.207616
H8    H     H_    0.216461 0.301642 0.171540 0.219384
N1    N     N_1   0.499980 0.500000 0.076820 -0.043120
N2    N     N_1   0.500020 0.500000 0.923180 -0.042439
N3    N     N_3   0.819521 0.594217 0.856528 -0.559885
N4    N     N_3   0.181201 0.403309 0.142764 -0.560332
O1    O     O_R   0.500000 0.288400 0.642760 -0.578894
O2    O     O_R   0.500000 0.711600 0.357240 -0.577448
O3    O     O_R   0.500000 0.288400 0.357240 -0.581318
O4    O     O_R   0.500000 0.711600 0.642760 -0.575747
O5    O     O_R   0.349000 0.500000 0.619590 -0.592735
O6    O     O_R   0.651000 0.500000 0.380410 -0.596457
O7    O     O_R   0.348990 0.500000 0.334020 -0.557530
O8    O     O_R   0.651010 0.500000 0.665980 -0.551955

loop_
_geom_bond_atom_site_label_1
_geom_bond_atom_site_label_2
_ccdc_geom_bond_type
C11   O8    A    
C11   C12   S    
C10   O5    A    
C4    C12   A    
C3    C13   A    
C1    O1    A    
C2    C12   A    
Cu1   Cu2   S    
C1    O3    A    
C3    H2    S    
C2    C15   A    
Cu1   N2    S    
C5    C6    A    
C2    N3    S    
H5    N3    S    
C14   H3    S    
C11   O6    A    
Cu2   O7    S    
H8    N4    S    
Cu1   O8    S    
C10   O7    A    
C9    O4    A    
Cu1   O1    S    
Cu2   O3    S    
C14   C16   A    
C5    C15   A    
C6    C14   A    
Cu1   O4    S    
C16   N4    S    
C7    C8    T    
Cu2   O2    S    
C4    C6    A    
C13   C16   A    
N1    N2    T    
H6    N3    S    
H7    N4    S    
Cu1   O5    S    
C9    O2    A    
C1    C7    S    
C4    H1    S    
Cu2   O6    S    
C15   H4    S    
Cu2   N1    S    
C8    C9    S    
C3    C5    A    
C10   C13   S    
