data_mof_unit_36243.cif
_audit_creation_date              2012-12-10T18:03:58-0500
_audit_creation_method            fapswitch 2.2
_symmetry_space_group_name_H-M    P1
_symmetry_Int_Tables_number       1
_space_group_crystal_system       triclinic
_cell_length_a                    10.881898
_cell_length_b                    9.816118
_cell_length_c                    10.95724
_cell_angle_alpha                 90.499225
_cell_angle_beta                  96.506717
_cell_angle_gamma                 90.425262
_cell_volume                      1162.80536992

loop_
_atom_site_label
_atom_site_type_symbol
_atom_type_description
_atom_site_fract_x
_atom_site_fract_y
_atom_site_fract_z
_atom_type_partial_charge
C1    C     C_R   0.263609 0.498723 0.507362 0.790008
C2    C     C_R   0.735436 0.499815 0.489110 0.773170
C3    C     C_R   0.443042 0.069234 0.402736 0.230986
C4    C     C_R   0.565506 0.072942 0.593544 0.213280
C5    C     C_R   0.424063 0.925172 0.414976 0.200749
C6    C     C_R   0.578921 0.926847 0.583262 0.178010
C7    C     C_R   0.501681 0.499665 0.263781 0.770924
C8    C     C_R   0.501346 0.500837 0.737555 0.761233
C9    C     C_R   0.467951 0.615078 0.063614 0.071556
C10   C     C_R   0.460549 0.615429 0.935327 0.098547
C11   C     C_R   0.501935 0.499243 0.130967 -0.073031
C12   C     C_R   0.500741 0.501855 0.872190 -0.113013
C13   C     C_R   0.541685 0.385942 0.068591 -0.227564
C14   C     C_R   0.543080 0.388427 0.941920 -0.221959
C15   C     C_3   0.513526 0.756964 0.938258 -0.088467
C16   C     C_3   0.524177 0.754854 0.077038 -0.073953
C17   C     C_R   0.060894 0.370294 0.495837 -0.082038
C18   C     C_R   0.932126 0.372859 0.469986 -0.074479
C19   C     C_R   0.868983 0.497818 0.476000 -0.148753
C20   C     C_R   0.128568 0.494078 0.513366 -0.149604
C21   C     C_R   0.937790 0.619702 0.486545 -0.081547
C22   C     C_R   0.063945 0.615833 0.523394 -0.067480
Cu1   Cu    Cu3+1 0.500000 0.640660 0.500000 0.924634
Cu2   Cu    Cu3+1 0.500000 0.359340 0.500000 0.953280
H1    H     H_    0.580025 0.298645 0.117638 0.154054
H2    H     H_    0.585971 0.304436 0.902065 0.161857
H3    H     H_    0.605025 0.754978 0.905464 0.139704
H4    H     H_    0.462860 0.826648 0.116230 0.134116
N1    N     N_R   0.500000 0.852070 0.500000 -0.229321
N2    N     N_R   0.500000 0.147940 0.500000 -0.201140
O1    O     O_R   0.319640 0.618740 0.499990 -0.575828
O2    O     O_R   0.680360 0.618740 0.500010 -0.586921
O3    O     O_R   0.319620 0.381170 0.499990 -0.570625
O4    O     O_R   0.680380 0.381170 0.500010 -0.567987
O5    O     O_R   0.499990 0.618810 0.319660 -0.607582
O6    O     O_R   0.500010 0.618810 0.680340 -0.603985
O7    O     O_R   0.499960 0.381240 0.319650 -0.580253
O8    O     O_R   0.500040 0.381240 0.680350 -0.576885
C23   C     C_3   0.426674 0.867013 0.876745 -0.394802
C24   C     C_3   0.296019 0.870796 0.916635 -0.763280
H5    H     H_    0.250002 0.769558 0.904072 0.256986
H6    H     H_    0.296789 0.905044 0.013144 0.216785
H7    H     H_    0.240320 0.946442 0.860204 0.260270
H8    H     H_    0.470600 0.968326 0.896942 0.182975
H9    H     H_    0.418283 0.851073 0.775721 0.243854
C25   C     C_3   0.658084 0.772486 0.141040 -0.362221
C26   C     C_3   0.751049 0.660766 0.118119 -0.781871
H10   H     H_    0.738971 0.571229 0.176671 0.240070
H11   H     H_    0.743236 0.627975 0.020516 0.240865
H12   H     H_    0.846393 0.700317 0.143961 0.234977
H13   H     H_    0.694573 0.871420 0.111320 0.196490
H14   H     H_    0.653877 0.781932 0.241307 0.248655
C27   C     C_1   0.119293 0.240287 0.523159 0.282383
N3    N     N_1   0.166228 0.137407 0.547917 -0.288173
C28   C     C_1   0.867868 0.248940 0.425036 0.254906
N4    N     N_1   0.816420 0.150764 0.388237 -0.290445
C29   C     C_1   0.886872 0.745215 0.435717 0.274019
N5    N     N_1   0.847898 0.845184 0.392429 -0.287554
C30   C     C_1   0.118725 0.727171 0.597822 0.258141
N6    N     N_1   0.161288 0.815657 0.659235 -0.304347
C31   C     C_3   0.440194 0.117121 0.271763 -0.317918
C32   C     C_3   0.321578 0.191476 0.223065 -0.757796
H15   H     H_    0.282556 0.249288 0.296753 0.268370
H16   H     H_    0.340406 0.262481 0.149369 0.236118
H17   H     H_    0.251458 0.118010 0.180396 0.214716
H18   H     H_    0.527383 0.170693 0.263190 0.212993
H19   H     H_    0.453562 0.033026 0.207227 0.129977
C33   C     C_3   0.610296 0.137112 0.717098 -0.304149
C34   C     C_3   0.728813 0.224589 0.721682 -0.720334
H20   H     H_    0.783305 0.197409 0.645938 0.253476
H21   H     H_    0.711114 0.334969 0.720195 0.247162
H22   H     H_    0.788479 0.206849 0.809225 0.190309
H23   H     H_    0.528799 0.178897 0.753009 0.194395
H24   H     H_    0.630086 0.064437 0.791698 0.135137
C35   C     C_3   0.320967 0.855671 0.329164 -0.373966
C36   C     C_3   0.192776 0.898173 0.356959 -0.789909
H25   H     H_    0.122422 0.822675 0.317440 0.231751
H26   H     H_    0.191031 0.905344 0.456318 0.293410
H27   H     H_    0.167219 0.999126 0.318749 0.251149
H28   H     H_    0.325221 0.877819 0.231927 0.158478
H29   H     H_    0.325159 0.745131 0.331826 0.259308
C37   C     C_3   0.676051 0.855139 0.671299 -0.338492
C38   C     C_3   0.808667 0.908184 0.670256 -0.805632
H30   H     H_    0.873941 0.821686 0.673728 0.240101
H31   H     H_    0.818718 0.970269 0.588173 0.283899
H32   H     H_    0.836800 0.971281 0.753312 0.238188
H33   H     H_    0.652551 0.864963 0.764033 0.139474
H34   H     H_    0.676427 0.745685 0.662091 0.257407

loop_
_geom_bond_atom_site_label_1
_geom_bond_atom_site_label_2
_ccdc_geom_bond_type
C16   H4    S    
C28   N4    T    
C6    C37   S    
C34   H22   S    
C36   H27   S    
C1    O3    A    
C26   H11   S    
C27   N3    T    
C7    C11   S    
Cu1   N1    S    
C19   C21   A    
C9    C16   S    
C36   H26   S    
C10   C15   S    
C33   H24   S    
C15   C16   S    
C25   H14   S    
C1    O1    A    
C17   C20   A    
C2    O2    A    
C18   C19   A    
C8    O6    A    
C34   H21   S    
C32   H16   S    
C31   H18   S    
C24   H7    S    
C26   H10   S    
C33   C34   S    
Cu2   O8    S    
Cu1   Cu2   S    
C35   H28   S    
C23   H9    S    
C2    O4    A    
C24   H6    S    
C30   N6    T    
C13   C14   A    
C13   H1    S    
C34   H20   S    
C8    O8    A    
C17   C18   A    
C26   H12   S    
C5    N1    A    
C3    C31   S    
C36   H25   S    
C4    C6    A    
C16   C25   S    
C22   C30   S    
C4    C33   S    
C35   H29   S    
C33   H23   S    
C25   H13   S    
Cu2   O4    S    
Cu1   O1    S    
C5    C35   S    
C3    N2    A    
C35   C36   S    
C21   C29   S    
C32   H15   S    
C31   H19   S    
C15   H3    S    
C38   H30   S    
C8    C12   S    
C6    N1    A    
Cu2   O7    S    
C7    O7    A    
C14   H2    S    
C9    C11   A    
C15   C23   S    
C10   C12   A    
C18   C28   S    
C24   H5    S    
C38   H31   S    
C20   C22   A    
Cu1   O6    S    
Cu1   O5    S    
C17   C27   S    
C23   C24   S    
C9    C10   A    
C25   C26   S    
C1    C20   S    
C32   H17   S    
C2    C19   S    
C7    O5    A    
C12   C14   A    
C3    C5    A    
C23   H8    S    
Cu2   O3    S    
Cu1   O2    S    
C11   C13   A    
C29   N5    T    
C37   H34   S    
C31   C32   S    
Cu2   N2    S    
C38   H32   S    
C37   C38   S    
C21   C22   A    
C4    N2    A    
C37   H33   S    
