data_mof_unit_18316.cif
_audit_creation_date              2012-12-10T18:57:39-0500
_audit_creation_method            fapswitch 2.2
_symmetry_space_group_name_H-M    P1
_symmetry_Int_Tables_number       1
_space_group_crystal_system       triclinic
_cell_length_a                    10.93775
_cell_length_b                    10.835217
_cell_length_c                    9.569943
_cell_angle_alpha                 90.916902
_cell_angle_beta                  89.777524
_cell_angle_gamma                 90.635994
_cell_volume                      1133.93877429

loop_
_atom_site_label
_atom_site_type_symbol
_atom_type_description
_atom_site_fract_x
_atom_site_fract_y
_atom_site_fract_z
_atom_type_partial_charge
C1    C     C_R   0.499930 0.262604 0.498658 0.859172
C2    C     C_R   0.495027 0.129336 0.493088 -0.164948
C3    C     C_R   0.550843 0.063338 0.381562 0.470411
C4    C     C_R   0.552036 0.933352 0.386207 -0.325458
C5    C     C_R   0.499460 0.870875 0.499375 -0.173342
C6    C     C_R   0.435452 0.938463 0.600116 0.049134
C7    C     C_3   0.438577 0.941067 0.757176 0.962093
C8    C     C_3   0.424444 0.081994 0.749934 -0.564399
C9    C     C_R   0.605198 0.521969 0.073414 0.229262
C10   C     C_R   0.401621 0.456139 0.073032 0.551688
C11   C     C_R   0.400546 0.461233 0.924330 -0.164244
C12   C     C_R   0.265785 0.493403 0.500446 0.879321
C13   C     C_R   0.606015 0.518864 0.926582 0.221953
C14   C     C_3   0.690309 0.627311 0.920779 -0.487199
C15   C     C_3   0.685957 0.633403 0.079613 -0.471217
C16   C     C_R   0.501217 0.737540 0.500787 0.829044
C17   C     C_R   0.734546 0.501603 0.499317 0.877962
C18   C     C_2   0.934314 0.473502 0.388381 0.512980
C19   C     C_2   0.866349 0.513486 0.496993 -0.413470
C20   C     C_2   0.066722 0.498714 0.394204 -0.314761
C21   C     C_2   0.135984 0.466760 0.503341 -0.018829
C22   C     C_R   0.429609 0.065142 0.594623 -0.097738
Cu1   Cu    Cu3+1 0.499990 0.499980 0.640670 0.967725
Cu2   Cu    Cu3+1 0.500010 0.500020 0.359330 1.006065
H1    H     H_    0.500453 0.139004 0.793140 0.186367
H2    H     H_    0.319276 0.432581 0.868186 0.174811
H3    H     H_    0.781717 0.602116 0.878656 0.190079
H4    H     H_    0.647675 0.706299 0.870001 0.270757
H5    H     H_    0.775653 0.614601 0.128489 0.230845
H6    H     H_    0.638103 0.716184 0.121396 0.197070
H7    H     H_    0.907981 0.560763 0.585813 0.109455
H8    H     H_    0.107912 0.544294 0.304997 0.177925
H9    H     H_    0.600929 0.881299 0.306879 0.163157
H10   H     H_    0.332806 0.114825 0.783483 0.187799
N1    N     N_R   0.500780 0.500930 0.147930 -0.234619
N2    N     N_R   0.500780 0.500890 0.852020 -0.206391
O1    O     O_R   0.500000 0.319640 0.618810 -0.596480
O2    O     O_R   0.500010 0.319680 0.381230 -0.535942
O3    O     O_R   0.321940 0.499980 0.618760 -0.575823
O4    O     O_R   0.321950 0.500020 0.381180 -0.545266
O5    O     O_R   0.499990 0.680320 0.618770 -0.540281
O6    O     O_R   0.500000 0.680360 0.381190 -0.605033
O7    O     O_R   0.678050 0.499980 0.618820 -0.602338
O8    O     O_R   0.678060 0.500020 0.381240 -0.524507
O9    O     O_3   0.877407 0.421687 0.270479 -0.558780
C23   C     C_3   0.956708 0.345335 0.192224 -0.280453
H11   H     H_    0.002384 0.276951 0.259532 0.161111
H12   H     H_    0.024964 0.401499 0.134096 0.182189
H13   H     H_    0.901789 0.292760 0.113808 0.182129
O10   O     O_3   0.300283 0.410032 0.141527 -0.562702
C24   C     C_3   0.294310 0.280960 0.120348 -0.373281
H14   H     H_    0.225090 0.242286 0.192908 0.183115
H15   H     H_    0.382755 0.236147 0.143920 0.185171
H16   H     H_    0.264906 0.257130 0.012094 0.143786
N3    N     N_3   0.090395 0.393614 0.617105 -0.604628
H17   H     H_    0.032982 0.322983 0.579234 0.229283
H18   H     H_    0.043705 0.449374 0.688838 0.223103
O11   O     O_3   0.618679 0.128110 0.282953 -0.558662
C25   C     C_3   0.602176 0.078935 0.146826 -0.309897
H19   H     H_    0.506964 0.045836 0.127671 0.140552
H20   H     H_    0.668243 0.003701 0.125969 0.174222
H21   H     H_    0.621390 0.153271 0.071195 0.176829
O12   O     O_3   0.333310 0.879869 0.809619 -0.590509
C26   C     C_3   0.328357 0.890328 0.956749 -0.288409
H22   H     H_    0.327877 0.988410 0.992587 0.124619
H23   H     H_    0.404582 0.839917 0.006018 0.196885
H24   H     H_    0.241778 0.847138 0.993202 0.179190
O13   O     O_3   0.548910 0.893955 0.814680 -0.606829
C27   C     C_3   0.657082 0.960793 0.781691 -0.440965
H25   H     H_    0.661551 0.991470 0.671896 0.184908
H26   H     H_    0.736448 0.899803 0.797091 0.197759
H27   H     H_    0.669329 0.040519 0.854314 0.167476

loop_
_geom_bond_atom_site_label_1
_geom_bond_atom_site_label_2
_ccdc_geom_bond_type
C2    C22   A    
C27   H27   S    
C8    C22   S    
Cu1   Cu2   S    
C17   O7    A    
C12   O4    A    
C6    C7    S    
C15   H5    S    
Cu1   O1    S    
C14   H3    S    
Cu2   O6    S    
Cu2   O2    S    
Cu1   O5    S    
C1    O1    A    
N3    H17   S    
C24   H16   S    
C19   H7    S    
C26   H22   S    
C12   O3    A    
C14   C15   S    
O10   C24   S    
C9    C15   S    
C17   O8    A    
C7    C8    S    
C8    H10   S    
O9    C23   S    
C7    O13   S    
C8    H1    S    
C18   O9    S    
C23   H13   S    
C7    O12   S    
C5    C6    A    
C1    O2    A    
C15   H6    S    
Cu1   O3    S    
C16   O5    A    
C11   N2    A    
C17   C19   S    
C1    C2    S    
C18   C20   S    
N3    H18   S    
C27   H25   S    
Cu2   O8    S    
C10   N1    A    
C23   H12   S    
C25   H20   S    
Cu2   N1    S    
C27   H26   S    
C10   C11   A    
C4    H9    S    
O12   C26   S    
C14   H4    S    
C24   H14   S    
C10   O10   S    
C3    O11   S    
C16   O6    A    
C25   H19   S    
Cu1   O7    S    
C20   C21   D    
C13   N2    A    
C21   N3    S    
Cu1   N2    S    
C20   H8    S    
C9    N1    A    
C9    C13   A    
C23   H11   S    
C18   C19   D    
C5    C16   S    
C2    C3    A    
C6    C22   A    
C25   H21   S    
C11   H2    S    
Cu2   O4    S    
O11   C25   S    
C13   C14   S    
C12   C21   S    
O13   C27   S    
C26   H24   S    
C3    C4    A    
C4    C5    A    
C24   H15   S    
C26   H23   S    
