data_mof_unit_11178.cif
_audit_creation_date              2012-12-10T18:47:04-0500
_audit_creation_method            fapswitch 2.2
_symmetry_space_group_name_H-M    P1
_symmetry_Int_Tables_number       1
_space_group_crystal_system       triclinic
_cell_length_a                    10.921973
_cell_length_b                    9.902666
_cell_length_c                    14.976917
_cell_angle_alpha                 88.506367
_cell_angle_beta                  91.432528
_cell_angle_gamma                 87.180866
_cell_volume                      1616.78266185

loop_
_atom_site_label
_atom_site_type_symbol
_atom_type_description
_atom_site_fract_x
_atom_site_fract_y
_atom_site_fract_z
_atom_type_partial_charge
C1    C     C_R   0.259886 0.502950 0.503785 0.926331
C2    C     C_R   0.740113 0.496957 0.495988 0.921077
C3    C     C_R   0.271844 0.495170 0.042274 -0.125540
C4    C     C_R   0.703502 0.357557 0.957683 -0.235696
C5    C     C_R   0.070402 0.387458 0.537216 -0.229501
C6    C     C_R   0.930002 0.610818 0.461131 -0.096335
C7    C     C_R   0.944602 0.377475 0.522844 -0.104930
C8    C     C_R   0.055127 0.622823 0.478643 -0.110244
C9    C     C_R   0.873496 0.491892 0.489367 -0.098239
C10   C     C_R   0.126614 0.507445 0.510450 -0.105027
C11   C     C_R   0.563637 0.065405 0.564400 -0.027722
C12   C     C_R   0.437368 0.935169 0.435039 0.014108
C13   C     C_R   0.434165 0.078778 0.436714 0.042281
C14   C     C_R   0.565763 0.921602 0.563468 0.011634
C15   C     C_R   0.501858 0.500250 0.327139 0.911926
C16   C     C_R   0.500132 0.498656 0.672874 0.930298
C17   C     C_R   0.606338 0.445786 0.815607 -0.092688
C18   C     C_R   0.391543 0.519670 0.183389 -0.068895
C19   C     C_R   0.499891 0.493915 0.768984 -0.163463
C20   C     C_R   0.502462 0.494176 0.230823 -0.158020
C21   C     C_R   0.392002 0.530043 0.812830 -0.066919
C22   C     C_R   0.601449 0.424010 0.191322 -0.078333
C23   C     C_R   0.385055 0.499019 0.904677 -0.000405
C24   C     C_R   0.603042 0.415047 0.097129 -0.008303
C25   C     C_R   0.493799 0.456163 0.953388 0.076875
C26   C     C_R   0.494181 0.454648 0.047309 0.064968
C27   C     C_R   0.602408 0.418772 0.908326 0.010483
C28   C     C_R   0.384650 0.491776 0.091388 0.029931
C29   C     C_R   0.271552 0.501742 0.948509 -0.115137
C30   C     C_R   0.707347 0.364029 0.051127 -0.070973
N1    N     N_R   0.500000 0.857200 0.500000 -0.123157
N2    N     N_R   0.500000 0.142800 0.500000 -0.123088
O1    O     O_R   0.316770 0.614620 0.499990 -0.591214
O2    O     O_R   0.683230 0.385380 0.500010 -0.598800
O3    O     O_R   0.683230 0.614620 0.500010 -0.638950
O4    O     O_R   0.316770 0.385380 0.499990 -0.637382
O5    O     O_R   0.499980 0.614680 0.367850 -0.613230
O6    O     O_R   0.500020 0.385320 0.632150 -0.604974
O7    O     O_R   0.500020 0.614680 0.632150 -0.621461
O8    O     O_R   0.499980 0.385320 0.367850 -0.626252
Zn1   Zn    Zn3+2 0.500000 0.653120 0.500000 1.028261
Zn2   Zn    Zn3+2 0.500000 0.346880 0.500000 1.029610
C31   C     C_1   0.721858 0.449094 0.769383 0.229773
N3    N     N_1   0.813300 0.452932 0.732154 -0.146027
C32   C     C_1   0.284289 0.564406 0.232504 0.223626
N4    N     N_1   0.198551 0.597445 0.271946 -0.119414
C33   C     C_2   0.294905 0.617982 0.765729 0.934343
O9    O     O_2   0.248837 0.583761 0.695267 -0.594391
O10   O     O_R   0.255144 0.739430 0.803680 -0.748045
H1    H     H_    0.188429 0.790218 0.766186 0.390576
C34   C     C_2   0.690960 0.344314 0.250888 0.957026
O11   O     O_2   0.758679 0.401915 0.301948 -0.564204
O12   O     O_R   0.695076 0.203074 0.249181 -0.777583
H2    H     H_    0.759042 0.159708 0.292529 0.379665
C35   C     C_2   0.154755 0.488570 0.896685 0.970905
O13   O     O_2   0.067500 0.568458 0.906550 -0.518133
O14   O     O_R   0.147158 0.386827 0.834143 -0.712833
H3    H     H_    0.066450 0.392472 0.799040 0.395249
C36   C     C_2   0.825515 0.327059 0.097645 0.961382
O15   O     O_2   0.879259 0.413914 0.136761 -0.557265
O16   O     O_R   0.873999 0.193688 0.097342 -0.737870
H4    H     H_    0.953768 0.180283 0.133126 0.367234
C37   C     C_2   0.158126 0.465239 0.088391 0.975255
O17   O     O_2   0.071230 0.547871 0.086125 -0.486611
O18   O     O_R   0.156729 0.347001 0.141451 -0.785428
H5    H     H_    0.087212 0.347848 0.184753 0.369679
C38   C     C_2   0.801507 0.275712 0.913486 1.029824
O19   O     O_2   0.906447 0.312630 0.914383 -0.531582
O20   O     O_R   0.775694 0.154282 0.873402 -0.701124
H6    H     H_    0.687023 0.130805 0.879964 0.316543
C39   C     C_2   0.142351 0.271986 0.583170 1.067042
O21   O     O_2   0.194296 0.289336 0.654725 -0.498679
O22   O     O_R   0.154179 0.145040 0.544622 -0.733111
H7    H     H_    0.115195 0.143992 0.482561 0.299690
C40   C     C_2   0.858456 0.721465 0.410585 1.025995
O23   O     O_2   0.852343 0.836065 0.439170 -0.638152
O24   O     O_R   0.794398 0.692153 0.332056 -0.723963
H8    H     H_    0.746870 0.774231 0.304752 0.354945
C41   C     C_2   0.890800 0.245002 0.541216 0.926102
O25   O     O_2   0.900154 0.192759 0.616081 -0.574053
O26   O     O_R   0.837020 0.176438 0.471131 -0.763309
H9    H     H_    0.806439 0.085972 0.491250 0.364246
C42   C     C_2   0.107290 0.757996 0.466347 0.985029
O27   O     O_2   0.152893 0.812915 0.530479 -0.538930
O28   O     O_R   0.097087 0.825708 0.383227 -0.769825
H10   H     H_    0.126847 0.920958 0.385365 0.344136
C43   C     C_1   0.624553 0.129765 0.636445 0.288322
N5    N     N_1   0.673083 0.178959 0.695754 -0.121207
C44   C     C_1   0.382759 0.873830 0.359114 0.235583
N6    N     N_1   0.339468 0.830223 0.295659 -0.145880
C45   C     C_1   0.357886 0.158068 0.372678 0.256421
N7    N     N_1   0.295879 0.220424 0.321307 -0.165999
C46   C     C_1   0.642378 0.842863 0.627486 0.290434
N8    N     N_1   0.704673 0.780950 0.678901 -0.148307

loop_
_geom_bond_atom_site_label_1
_geom_bond_atom_site_label_2
_ccdc_geom_bond_type
C2    O3    A    
C43   N5    T    
C37   O18   S    
C46   N8    T    
C8    C42   S    
O22   H7    S    
C13   N2    A    
O4    Zn2   S    
O2    Zn2   S    
C14   N1    A    
C31   N3    T    
C6    C9    A    
O26   H9    S    
C1    O1    A    
C6    C40   S    
C33   O10   S    
O12   H2    S    
C23   C29   A    
C3    C28   A    
C19   C21   A    
C24   C26   A    
O6    Zn2   S    
C11   C14   A    
C3    C29   A    
C15   O5    A    
C42   O27   D    
C11   C43   S    
C14   C46   S    
O24   H8    S    
C2    O2    A    
O8    Zn2   S    
C36   O15   D    
C13   C45   S    
O16   H4    S    
C15   C20   S    
C36   O16   S    
C38   O19   D    
C17   C27   A    
C12   C44   S    
C18   C28   A    
C41   O25   D    
O7    Zn1   S    
C45   N7    T    
C5    C7    A    
C6    C8    A    
C29   C35   S    
C25   C26   A    
O28   H10   S    
C34   O11   D    
C34   O12   S    
C40   O23   D    
C17   C31   S    
C33   O9    D    
C30   C36   S    
C35   O13   D    
C40   O24   S    
C42   O28   S    
C20   C22   A    
C11   N2    A    
O18   H5    S    
C35   O14   S    
C12   N1    A    
C22   C24   A    
C18   C32   S    
C4    C27   A    
C7    C41   S    
C7    C9    A    
N1    Zn1   S    
C26   C28   A    
C1    C10   S    
C4    C38   S    
C3    C37   S    
C25   C27   A    
C41   O26   S    
O1    Zn1   S    
C21   C23   A    
C5    C10   A    
C5    C39   S    
O14   H3    S    
C16   C19   S    
C17   C19   A    
C18   C20   A    
C23   C25   A    
O5    Zn1   S    
O20   H6    S    
O3    Zn1   S    
C24   C30   A    
C15   O8    A    
C16   O7    A    
C37   O17   D    
C32   N4    T    
C39   O21   D    
C12   C13   A    
C8    C10   A    
O10   H1    S    
C39   O22   S    
N2    Zn2   S    
C38   O20   S    
C44   N6    T    
C2    C9    S    
C4    C30   A    
C1    O4    A    
C16   O6    A    
C22   C34   S    
C21   C33   S    
