data_mof_unit_14202.cif
_audit_creation_date              2013-03-05T15:46:18-0500
_audit_creation_method            fapswitch 2.2
_symmetry_space_group_name_H-M    P1
_symmetry_Int_Tables_number       1
_space_group_crystal_system       triclinic
_cell_length_a                    17.405774
_cell_length_b                    24.253139
_cell_length_c                    14.737092
_cell_angle_alpha                 90.358886
_cell_angle_beta                  125.644856
_cell_angle_gamma                 89.323506
_cell_volume                      5055.2593544

loop_
_atom_site_label
_atom_site_type_symbol
_atom_site_description
_atom_site_fract_x
_atom_site_fract_y
_atom_site_fract_z
_atom_type_partial_charge
C1    C     C_R   0.807908 0.622919 0.909099 -0.030930
C2    C     C_R   0.149803 0.346852 0.090091 -0.087115
C3    C     C_R   0.159365 0.648639 0.091617 -0.066986
C4    C     C_R   0.808975 0.376384 0.908977 -0.048140
C5    C     C_R   0.307868 0.122835 0.909075 -0.051980
C6    C     C_R   0.649592 0.846788 0.090084 -0.059246
C7    C     C_R   0.650317 0.152533 0.090013 -0.085635
C8    C     C_R   0.310585 0.874520 0.908655 -0.007506
H1    H     H_    0.747420 0.626123 0.823422 0.120779
H2    H     H_    0.192743 0.332899 0.174982 0.173929
H3    H     H_    0.208994 0.662341 0.176357 0.177894
H4    H     H_    0.748825 0.373050 0.823183 0.125463
H5    H     H_    0.247361 0.125970 0.823385 0.125611
H6    H     H_    0.692333 0.832785 0.174940 0.170995
H7    H     H_    0.693919 0.166315 0.174965 0.172786
H8    H     H_    0.252660 0.865317 0.823579 0.138389
N1    N     N_R   0.892620 0.603790 0.941800 -0.031704
N2    N     N_R   0.107380 0.396210 0.058200 -0.056192
N3    N     N_R   0.107380 0.603790 0.058200 -0.058116
N4    N     N_R   0.892620 0.396210 0.941800 -0.035793
N5    N     N_R   0.392620 0.103790 0.941800 -0.035207
N6    N     N_R   0.607380 0.896210 0.058200 -0.059590
N7    N     N_R   0.607380 0.103790 0.058200 -0.055425
N8    N     N_R   0.392620 0.896210 0.941800 -0.030032
C9    C     C_R   0.906281 0.374608 0.095666 -0.045817
C10   C     C_R   0.060981 0.648691 0.904930 -0.055318
C11   C     C_R   0.055045 0.348486 0.905375 -0.073071
C12   C     C_R   0.904935 0.624537 0.095613 -0.022968
C13   C     C_R   0.406999 0.875647 0.096410 -0.024387
C14   C     C_R   0.555260 0.150984 0.905146 -0.072602
C15   C     C_R   0.554945 0.848447 0.905393 -0.061543
C16   C     C_R   0.404923 0.124534 0.095582 -0.050347
H9    H     H_    0.938009 0.366577 0.182416 0.147526
H10   H     H_    0.017530 0.663480 0.819748 0.148601
H11   H     H_    0.009178 0.336660 0.819048 0.183894
H12   H     H_    0.935969 0.632079 0.182408 0.143686
H13   H     H_    0.437821 0.865934 0.182692 0.114408
H14   H     H_    0.509398 0.162831 0.818786 0.183333
H15   H     H_    0.509120 0.836624 0.819057 0.178960
H16   H     H_    0.435963 0.132179 0.182332 0.148821
N9    N     N_R   0.952210 0.397600 0.057910 -0.057281
N10   N     N_R   0.047790 0.602400 0.942090 -0.061238
N11   N     N_R   0.047790 0.397600 0.942090 -0.063040
N12   N     N_R   0.952210 0.602400 0.057910 -0.052770
N13   N     N_R   0.452210 0.897600 0.057910 -0.040275
N14   N     N_R   0.547790 0.102400 0.942090 -0.062425
N15   N     N_R   0.547790 0.897600 0.942090 -0.064636
N16   N     N_R   0.452210 0.102400 0.057910 -0.056408
C17   C     C_R   0.052358 0.545712 0.307598 -0.029166
C18   C     C_R   0.019048 0.453326 0.750018 -0.066937
C19   C     C_R   0.017900 0.545696 0.748770 -0.069709
C20   C     C_R   0.051433 0.454281 0.306902 -0.015635
C21   C     C_R   0.551853 0.045702 0.307413 -0.022058
C22   C     C_R   0.519484 0.953431 0.750453 -0.079453
C23   C     C_R   0.518844 0.045837 0.750066 -0.067646
C24   C     C_R   0.551492 0.954283 0.306958 -0.084738
H17   H     H_    0.065825 0.588170 0.332360 0.158313
H18   H     H_    0.027025 0.410584 0.737765 0.126902
H19   H     H_    0.023619 0.588102 0.733666 0.122669
H20   H     H_    0.063172 0.411660 0.330654 0.155718
H21   H     H_    0.564457 0.088193 0.331944 0.158414
H22   H     H_    0.527553 0.910708 0.738121 0.124554
H23   H     H_    0.525722 0.088372 0.736816 0.126794
H24   H     H_    0.563448 0.911668 0.330801 0.161636
N17   N     N_R   0.026300 0.529110 0.206760 -0.062752
N18   N     N_R   0.973700 0.470890 0.793240 -0.050024
N19   N     N_R   0.973700 0.529110 0.793240 -0.049217
N20   N     N_R   0.026300 0.470890 0.206760 -0.061129
N21   N     N_R   0.526300 0.029110 0.206760 -0.061505
N22   N     N_R   0.473700 0.970890 0.793240 -0.048771
N23   N     N_R   0.473700 0.029110 0.793240 -0.048700
N24   N     N_R   0.526300 0.970890 0.206760 -0.060869
C25   C     C_R   0.746912 0.454937 0.692495 0.188804
C26   C     C_R   0.258985 0.545453 0.302260 0.220386
C27   C     C_R   0.260000 0.454406 0.302155 0.232690
C28   C     C_R   0.746258 0.545261 0.692490 0.190746
C29   C     C_R   0.247060 0.954810 0.692611 0.188846
C30   C     C_R   0.759572 0.045462 0.301637 0.230645
C31   C     C_R   0.760304 0.954348 0.301674 0.233014
C32   C     C_R   0.246480 0.045169 0.692271 0.189585
N25   N     N_R   0.818530 0.472270 0.792960 -0.113721
N26   N     N_R   0.181470 0.527730 0.207040 -0.112155
N27   N     N_R   0.181470 0.472270 0.207040 -0.111436
N28   N     N_R   0.818530 0.527730 0.792960 -0.115086
N29   N     N_R   0.318530 0.972270 0.792960 -0.117568
N30   N     N_R   0.681470 0.027730 0.207040 -0.110648
N31   N     N_R   0.681470 0.972270 0.207040 -0.111158
N32   N     N_R   0.318530 0.027730 0.792960 -0.114974
C33   C     C_R   0.812251 0.635629 0.004096 0.046321
C34   C     C_R   0.115739 0.314677 0.996332 0.056559
C35   C     C_R   0.130419 0.676988 0.997093 0.097675
C36   C     C_R   0.814204 0.362850 0.004051 0.053831
C37   C     C_R   0.312224 0.135548 0.004069 0.048911
C38   C     C_R   0.615492 0.814603 0.996347 0.077548
C39   C     C_R   0.616967 0.184344 0.996026 0.057009
C40   C     C_R   0.319304 0.860391 0.004403 0.010103
C41   C     C_R   0.074031 0.499935 0.375227 0.036322
C42   C     C_R   0.052519 0.499228 0.726470 0.036816
C43   C     C_R   0.573747 0.999952 0.375175 0.037888
C44   C     C_R   0.553334 0.999406 0.727479 0.034188
C45   C     C_R   0.698177 0.500170 0.628224 -0.074433
C46   C     C_R   0.311412 0.499907 0.361704 -0.141687
C47   C     C_R   0.198600 0.000010 0.628080 -0.078742
C48   C     C_R   0.812068 0.999849 0.360659 -0.144579
Ni1   Ni    Ni4+2 0.934150 0.565840 0.869060 0.312412
Ni2   Ni    Ni4+2 0.065850 0.434160 0.130940 0.275948
Ni3   Ni    Ni4+2 0.065850 0.565840 0.130940 0.288698
Ni4   Ni    Ni4+2 0.934150 0.434160 0.869060 0.305867
Ni5   Ni    Ni4+2 0.434150 0.065840 0.869060 0.304239
Ni6   Ni    Ni4+2 0.565850 0.934160 0.130940 0.291341
Ni7   Ni    Ni4+2 0.565850 0.065840 0.130940 0.275755
Ni8   Ni    Ni4+2 0.434150 0.934160 0.869060 0.311378
C49   C     C_3   0.536706 0.454702 0.556301 -0.083728
C50   C     C_3   0.472555 0.545598 0.428877 -0.073921
C51   C     C_3   0.474382 0.455203 0.427626 -0.078737
C52   C     C_3   0.534954 0.545166 0.557574 -0.086257
C53   C     C_3   0.037090 0.954937 0.556475 -0.086053
C54   C     C_3   0.973252 0.044986 0.426678 -0.076213
C55   C     C_3   0.975094 0.954595 0.427806 -0.076132
C56   C     C_3   0.035296 0.045406 0.555366 -0.083792
C57   C     C_3   0.474336 0.499593 0.558464 -0.109281
C58   C     C_3   0.535341 0.500745 0.427051 -0.105643
C59   C     C_3   0.974585 0.000240 0.557175 -0.109930
C60   C     C_3   0.036225 0.999726 0.426375 -0.113361
H25   H     H_    0.446781 0.499098 0.610017 0.157900
H26   H     H_    0.562971 0.501243 0.375591 0.175666
H27   H     H_    0.946758 0.000414 0.608459 0.158850
H28   H     H_    0.064161 0.999555 0.375222 0.169388
H29   H     H_    0.563914 0.417166 0.609455 0.160848
H30   H     H_    0.444635 0.582939 0.375198 0.166083
H31   H     H_    0.447984 0.418281 0.372880 0.165768
H32   H     H_    0.560963 0.582297 0.611776 0.159618
H33   H     H_    0.064211 0.917749 0.610617 0.158854
H34   H     H_    0.945429 0.081939 0.371901 0.163807
H35   H     H_    0.948820 0.917348 0.373975 0.163915
H36   H     H_    0.061065 0.082888 0.608569 0.161140
C61   C     C_3   0.413401 0.500020 0.431482 0.131240
C62   C     C_3   0.596152 0.500279 0.554161 0.106202
C63   C     C_3   0.913980 0.999833 0.430228 0.133599
C64   C     C_3   0.096674 0.000112 0.553471 0.111879
C65   C     C_R   0.658393 0.316942 0.901904 -0.280445
C66   C     C_R   0.269405 0.719908 0.043872 -0.306472
C67   C     C_R   0.203797 0.229415 0.099839 -0.279204
C68   C     C_R   0.653886 0.680148 0.902247 -0.281617
C69   C     C_R   0.174455 0.820859 0.958847 -0.295138
C70   C     C_R   0.707621 0.268398 0.099292 -0.275558
C71   C     C_R   0.703405 0.729293 0.099842 -0.243347
C72   C     C_R   0.153962 0.180109 0.902244 -0.286157
H37   H     H_    0.636151 0.336490 0.824400 0.173790
H38   H     H_    0.304971 0.680176 0.073959 0.179939
H39   H     H_    0.221951 0.246624 0.177633 0.195276
H40   H     H_    0.631753 0.660323 0.824815 0.173813
H41   H     H_    0.139662 0.860577 0.926917 0.184138
H42   H     H_    0.725609 0.251559 0.177069 0.194590
H43   H     H_    0.721397 0.746442 0.177614 0.196782
H44   H     H_    0.131750 0.160240 0.824820 0.173700
C73   C     C_R   0.124138 0.775848 0.954613 0.387505
C74   C     C_R   0.754607 0.315581 0.103647 0.358345
C75   C     C_R   0.750605 0.681517 0.103949 0.350595
C76   C     C_R   0.101541 0.225082 0.898131 0.348472
C77   C     C_R   0.605966 0.272759 0.897534 0.349548
C78   C     C_R   0.318602 0.763981 0.046269 0.393949
C79   C     C_R   0.250776 0.181544 0.103954 0.359997
C80   C     C_R   0.601271 0.725014 0.898160 0.347017
C81   C     C_R   0.173738 0.725641 0.997845 -0.098623
C82   C     C_R   0.739852 0.334193 0.004168 -0.050108
C83   C     C_R   0.736174 0.662954 0.004363 -0.049723
C84   C     C_R   0.136949 0.255296 0.997115 -0.054800
C85   C     C_R   0.640405 0.242968 0.996568 -0.057073
C86   C     C_R   0.270569 0.814825 0.005808 -0.076070
C87   C     C_R   0.236200 0.162885 0.004355 -0.048242
C88   C     C_R   0.636587 0.755195 0.997141 -0.025797
C89   C     C_R   0.128320 0.449287 0.646330 -0.035621
C90   C     C_R   0.133680 0.549072 0.556721 -0.035481
C91   C     C_R   0.134286 0.449638 0.555239 -0.039472
C92   C     C_R   0.128924 0.548643 0.648714 -0.035350
C93   C     C_R   0.629056 0.949556 0.647186 -0.043796
C94   C     C_R   0.633367 0.049250 0.556562 -0.036729
C95   C     C_R   0.634393 0.949817 0.555599 -0.050931
C96   C     C_R   0.629026 0.048911 0.648865 -0.037154
C97   C     C_R   0.117210 0.499585 0.497153 0.118329
C98   C     C_R   0.106695 0.498966 0.677413 0.114627
C99   C     C_R   0.616875 0.999701 0.497139 0.118930
C100  C     C_R   0.607413 0.999225 0.678262 0.114714
N33   N     N_R   0.746432 0.402163 0.647301 0.244148
O1    O     O_R   0.816680 0.367823 0.706327 -0.374834
O2    O     O_R   0.682638 0.391096 0.542528 -0.357411
N34   N     N_R   0.263668 0.597337 0.352880 0.232638
O3    O     O_R   0.187692 0.627304 0.310874 -0.433626
O4    O     O_R   0.338005 0.609818 0.451572 -0.375343
N35   N     N_R   0.266880 0.402508 0.353053 0.234731
O5    O     O_R   0.190818 0.374814 0.317592 -0.442180
O6    O     O_R   0.344554 0.388320 0.447814 -0.372430
N36   N     N_R   0.744301 0.597992 0.647252 0.243210
O7    O     O_R   0.814490 0.631740 0.705395 -0.388629
O8    O     O_R   0.678818 0.609645 0.543144 -0.353801
N37   N     N_R   0.246967 0.902047 0.647652 0.240815
O9    O     O_R   0.318406 0.868379 0.705938 -0.379137
O10   O     O_R   0.182410 0.890535 0.543336 -0.370298
N38   N     N_R   0.764981 0.097327 0.352713 0.234745
O11   O     O_R   0.688358 0.125818 0.315528 -0.439609
O12   O     O_R   0.841497 0.110811 0.448733 -0.372217
N39   N     N_R   0.767271 0.902576 0.353016 0.234003
O13   O     O_R   0.691225 0.874932 0.317861 -0.428729
O14   O     O_R   0.844926 0.888563 0.447949 -0.385040
N40   N     N_R   0.244664 0.097839 0.646915 0.243893
O15   O     O_R   0.314319 0.131858 0.705562 -0.376455
O16   O     O_R   0.180045 0.109154 0.542362 -0.360539
N41   N     N_R   0.025444 0.781964 0.909341 0.241490
O17   O     O_R   0.974496 0.820383 0.836187 -0.378515
O18   O     O_R   0.988202 0.753245 0.948644 -0.375792
N42   N     N_R   0.814341 0.344334 0.207678 0.225194
O19   O     O_R   0.859841 0.317514 0.301830 -0.362110
O20   O     O_R   0.812290 0.397984 0.209403 -0.377153
N43   N     N_R   0.810827 0.652408 0.207760 0.228503
O21   O     O_R   0.811570 0.598733 0.208689 -0.375025
O22   O     O_R   0.854369 0.678786 0.302283 -0.368762
N44   N     N_R   0.012495 0.237894 0.795138 0.225182
O23   O     O_R   0.937881 0.244884 0.794422 -0.355454
O24   O     O_R   0.001930 0.232277 0.700580 -0.348891
N45   N     N_R   0.517497 0.260536 0.794003 0.224102
O25   O     O_R   0.508875 0.263908 0.700352 -0.351939
O26   O     O_R   0.441686 0.256754 0.791371 -0.356828
N46   N     N_R   0.414980 0.755751 0.083973 0.232331
O27   O     O_R   0.440360 0.768968 0.019609 -0.365065
O28   O     O_R   0.472266 0.725990 0.172385 -0.358716
N47   N     N_R   0.310955 0.152450 0.207798 0.225549
O29   O     O_R   0.311654 0.098775 0.208782 -0.399605
O30   O     O_R   0.354597 0.178853 0.302301 -0.361748
N48   N     N_R   0.512144 0.737765 0.795211 0.225066
O31   O     O_R   0.437632 0.744881 0.794660 -0.323681
O32   O     O_R   0.501405 0.732009 0.700578 -0.363762
N49   N     N_3   0.147075 0.399668 0.708794 -0.222378
H45   H     H_    0.100561 0.369131 0.654849 0.151155
H46   H     H_    0.216277 0.386552 0.742916 0.136646
N50   N     N_3   0.158344 0.598514 0.526896 -0.188597
H47   H     H_    0.109414 0.629538 0.509858 0.154293
H48   H     H_    0.225495 0.610808 0.594180 0.167441
N51   N     N_3   0.161167 0.400562 0.525116 -0.185764
H49   H     H_    0.228602 0.388201 0.592654 0.168020
H50   H     H_    0.113340 0.369341 0.507231 0.157280
N52   N     N_3   0.149684 0.597366 0.714661 -0.223933
H51   H     H_    0.219220 0.608956 0.749067 0.139948
H52   H     H_    0.104195 0.629204 0.663070 0.134820
N53   N     N_3   0.648467 0.900043 0.710177 -0.220522
H53   H     H_    0.602093 0.869352 0.656653 0.137558
H54   H     H_    0.717692 0.887098 0.743992 0.151011
N54   N     N_3   0.657768 0.098670 0.526361 -0.187397
H55   H     H_    0.608887 0.129695 0.509486 0.157717
H56   H     H_    0.725008 0.110999 0.593384 0.167238
N55   N     N_3   0.661157 0.900725 0.525393 -0.183642
H57   H     H_    0.728758 0.888466 0.592717 0.177432
H58   H     H_    0.613534 0.869464 0.507998 0.137703
N56   N     N_3   0.649570 0.097769 0.714385 -0.222119
H59   H     H_    0.718904 0.109588 0.748263 0.136381
H60   H     H_    0.603622 0.129421 0.662622 0.149191

loop_
_geom_bond_atom_site_label_1
_geom_bond_atom_site_label_2
_geom_bond_distance
_ccdc_geom_bond_type
N36   O8    1.300986 A    
N39   O13   1.298947 A    
C65   C77   1.392430 A    
C2    N2    1.334484 A    
C49   C51   1.541194 S    
C50   H30   1.110256 S    
C32   N40   1.436896 S    
N51   H49   1.045002 S    
C8    C40   1.373586 A    
N29   Ni8   1.870981 S    
C71   C75   1.393448 A    
N46   O27   1.301200 A    
C28   N28   1.334129 A    
N33   O2    1.301024 A    
C31   N31   1.334115 A    
N4    N9    1.391558 A    
N44   O23   1.301674 A    
C65   H37   1.079958 S    
N55   H57   1.045015 S    
C49   C62   1.535881 S    
N31   Ni6   1.887443 S    
C51   H31   1.110185 S    
C55   C60   1.544216 S    
N54   H55   1.045243 S    
C90   N50   1.433188 S    
C73   N41   1.441361 S    
N39   O14   1.300330 A    
C10   N10   1.331687 A    
C65   C82   1.404369 A    
N45   O25   1.301426 A    
C17   N17   1.336962 A    
N8    N13   1.391558 A    
C3    C35   1.361194 A    
C26   N26   1.331816 A    
C34   C84   1.480951 S    
C53   C55   1.541188 S    
N40   O16   1.301001 A    
N55   H58   1.045184 S    
N15   Ni8   1.829305 S    
C6    N6    1.334633 A    
C59   C63   1.520767 S    
C20   C41   1.388988 A    
C72   C87   1.403966 A    
C17   H17   1.072274 S    
N50   H47   1.045238 S    
C14   H14   1.074525 S    
C11   C34   1.388529 A    
N34   O4    1.300586 A    
C72   C76   1.392402 A    
C50   C61   1.535241 S    
C57   C61   1.521059 S    
N37   O10   1.300988 A    
C9    C36   1.398824 A    
C33   C83   1.475791 S    
N56   H60   1.045277 S    
N14   Ni5   1.845339 S    
C20   H20   1.071892 S    
C38   C88   1.481093 S    
N44   O24   1.301456 A    
C10   H10   1.081296 S    
C93   N53   1.434136 S    
C51   C61   1.534138 S    
C75   C83   1.408687 A    
N38   O11   1.299104 A    
C6    C38   1.382642 A    
C23   H23   1.072092 S    
C23   C44   1.396966 A    
C27   C46   1.372818 A    
N52   H52   1.045219 S    
C24   H24   1.072023 S    
C48   C63   1.441533 S    
C3    N3    1.319683 A    
N22   N23   1.412015 A    
C56   C64   1.534782 S    
C4    H4    1.076630 S    
C71   H43   1.078623 S    
N49   H45   1.045283 S    
C22   N22   1.336525 A    
C43   C99   1.490519 S    
C94   C99   1.412577 A    
C54   H34   1.110218 S    
C56   C59   1.542032 S    
C91   C97   1.412961 A    
N5    N16   1.391483 A    
C69   H41   1.084388 S    
C5    C37   1.389989 A    
C30   N30   1.331888 A    
C19   C42   1.396889 A    
C25   C45   1.369235 A    
N18   N19   1.412015 A    
N25   Ni4   1.870981 S    
C53   H33   1.110370 S    
C93   C95   1.405938 A    
C8    H8    1.080176 S    
N7    N14   1.391558 A    
C15   N15   1.340169 A    
N53   H53   1.045262 S    
C68   C80   1.392626 A    
C16   N16   1.338744 A    
C22   C44   1.399228 A    
N48   O31   1.301676 A    
C30   N38   1.437380 S    
N20   Ni2   1.839977 S    
C36   C82   1.477081 S    
C79   N47   1.436955 S    
C90   C97   1.412424 A    
C67   C79   1.393183 A    
C25   N33   1.436991 S    
N54   H56   1.044977 S    
C52   H32   1.110463 S    
C19   H19   1.071610 S    
C95   C99   1.413180 A    
C89   C91   1.405553 A    
C74   N42   1.436537 S    
C67   C84   1.407579 A    
N24   Ni6   1.839977 S    
C18   C42   1.398210 A    
C75   N43   1.436887 S    
N9    Ni2   1.845341 S    
C68   C83   1.404134 A    
C30   C48   1.370081 A    
N35   O5    1.298925 A    
C18   H18   1.072367 S    
C1    H1    1.076420 S    
C58   C62   1.522667 S    
N29   N32   1.345082 A    
C52   C57   1.542379 S    
C9    N9    1.338843 A    
N7    Ni7   1.857428 S    
C96   N56   1.434428 S    
N40   O15   1.300395 A    
N19   Ni1   1.839976 S    
C54   C60   1.543902 S    
C32   C47   1.370663 A    
C11   H11   1.074812 S    
C10   C35   1.367899 A    
N46   O28   1.301331 A    
C12   N12   1.338948 A    
N6    N15   1.391484 A    
C55   H35   1.110167 S    
C13   N13   1.326179 A    
C50   C52   1.541424 S    
C56   H36   1.110447 S    
C46   C61   1.442653 S    
C4    N4    1.333279 A    
C23   N23   1.334270 A    
C58   H26   1.109913 S    
N21   N24   1.412015 A    
C27   N35   1.436959 S    
N43   O21   1.301785 A    
N35   O6    1.300367 A    
C57   H25   1.110111 S    
C14   C39   1.390072 A    
C7    C39   1.384339 A    
N1    Ni1   1.842253 S    
C6    H6    1.071294 S    
C95   N55   1.433449 S    
N52   H51   1.044986 S    
C59   H27   1.110132 S    
N47   O29   1.301776 A    
C78   C86   1.406750 A    
N18   Ni4   1.854565 S    
N17   N20   1.412015 A    
N41   O17   1.302194 A    
C5    N5    1.334002 A    
N51   H50   1.045235 S    
C19   N19   1.334710 A    
N26   Ni3   1.870980 S    
N48   O32   1.301441 A    
N49   H46   1.044941 S    
C21   N21   1.337109 A    
C12   C33   1.397240 A    
C49   H29   1.110438 S    
C25   N25   1.332737 A    
C94   N54   1.433227 S    
N32   Ni5   1.887444 S    
N38   O12   1.300383 A    
N47   O30   1.301531 A    
N42   O20   1.301757 A    
C89   C98   1.409450 A    
C31   N39   1.437076 S    
N53   H54   1.044963 S    
C26   N34   1.437484 S    
C70   H42   1.078502 S    
C21   C43   1.390684 A    
C31   C48   1.372548 A    
C29   C47   1.368906 A    
C53   C64   1.535880 S    
N28   Ni1   1.887444 S    
C73   C81   1.406356 A    
C54   C63   1.535138 S    
C2    H2    1.071344 S    
C52   C62   1.535164 S    
C60   H28   1.109905 S    
N25   N28   1.345082 A    
C79   C87   1.408533 A    
C71   C88   1.407494 A    
C74   C82   1.409144 A    
C92   N52   1.434547 S    
N30   N31   1.345082 A    
N12   Ni3   1.829306 S    
C28   C45   1.370453 A    
C80   C88   1.411942 A    
C69   C86   1.394692 A    
C37   C87   1.475254 S    
C80   N48   1.433670 S    
C1    C33   1.390140 A    
C67   H39   1.078574 S    
C24   N24   1.335497 A    
N13   Ni6   1.845341 S    
C5    H5    1.076513 S    
C21   H21   1.071926 S    
C60   C64   1.522643 S    
C76   C84   1.412148 A    
C78   N46   1.438674 S    
C68   H40   1.080220 S    
C20   N20   1.335091 A    
C66   C78   1.364907 A    
C13   C40   1.378447 A    
C94   C96   1.405745 A    
C45   C62   1.444199 S    
C18   N18   1.335976 A    
C41   C97   1.489843 S    
C70   C74   1.393732 A    
C76   N44   1.433604 S    
C42   C98   1.485360 S    
C89   N49   1.434068 S    
C93   C100  1.409328 A    
C22   H22   1.072556 S    
C69   C73   1.385861 A    
C44   C100  1.485833 S    
C1    N1    1.334172 A    
N27   Ni2   1.887443 S    
C14   N14   1.340117 A    
C26   C46   1.370020 A    
N45   O26   1.301653 A    
C55   C63   1.533869 S    
C66   H38   1.086157 S    
N56   H59   1.044962 S    
N43   O22   1.301505 A    
N30   Ni7   1.870980 S    
C53   C59   1.541321 S    
N1    N12   1.391483 A    
C77   C85   1.412353 A    
C32   N32   1.334134 A    
N2    N11   1.391484 A    
C66   C81   1.389769 A    
N36   O7    1.300534 A    
N21   Ni7   1.854566 S    
N3    N10   1.391558 A    
C27   N27   1.334690 A    
N33   O1    1.300287 A    
C7    N7    1.334699 A    
N2    Ni2   1.842253 S    
C91   N51   1.433514 S    
N23   Ni5   1.839976 S    
C7    H7    1.071641 S    
C8    N8    1.325051 A    
C90   C92   1.405673 A    
N50   H48   1.044985 S    
C16   C37   1.397030 A    
C15   C38   1.388520 A    
N11   Ni4   1.829305 S    
C16   H16   1.074736 S    
C51   C58   1.544075 S    
N37   O9    1.300266 A    
N22   Ni8   1.854565 S    
N10   Ni1   1.845339 S    
C54   C56   1.541412 S    
N8    Ni8   1.857428 S    
C17   C41   1.390693 A    
C3    H3    1.077243 S    
C92   C98   1.410062 A    
C29   N29   1.332014 A    
C50   C58   1.544090 S    
C11   N11   1.339996 A    
C28   N36   1.436792 S    
N16   Ni7   1.829306 S    
C49   C57   1.541711 S    
N42   O19   1.301501 A    
C12   H12   1.074928 S    
C35   C81   1.404322 S    
C2    C34   1.382833 A    
N26   N27   1.345082 A    
N6    Ni6   1.842253 S    
C70   C85   1.407832 A    
C13   H13   1.079729 S    
C15   H15   1.074837 S    
N41   O18   1.301588 A    
C77   N45   1.433103 S    
N34   O3    1.299642 A    
C40   C86   1.408614 S    
C72   H44   1.080246 S    
C24   C43   1.389181 A    
C4    C36   1.391250 A    
C47   C64   1.443185 S    
C29   N37   1.436919 S    
N17   Ni3   1.854566 S    
C39   C85   1.482502 S    
C96   C100  1.410147 A    
C9    H9    1.074728 S    
N5    Ni5   1.842253 S    
N4    Ni4   1.857428 S    
N3    Ni3   1.857428 S    
