data_mof_unit_15932.cif
_audit_creation_date              2012-12-10T18:21:17-0500
_audit_creation_method            fapswitch 2.2
_symmetry_space_group_name_H-M    P1
_symmetry_Int_Tables_number       1
_space_group_crystal_system       triclinic
_cell_length_a                    14.872874
_cell_length_b                    14.129362
_cell_length_c                    10.652022
_cell_angle_alpha                 90.102
_cell_angle_beta                  88.587449
_cell_angle_gamma                 88.542815
_cell_volume                      2237.05045306

loop_
_atom_site_label
_atom_site_type_symbol
_atom_type_description
_atom_site_fract_x
_atom_site_fract_y
_atom_site_fract_z
_atom_type_partial_charge
C1    C     C_R   0.327040 0.500989 0.500365 0.916962
C2    C     C_3   0.585225 0.545437 0.926834 -0.421437
C3    C     C_R   0.816564 0.445115 0.412025 -0.291014
C4    C     C_R   0.768111 0.496364 0.503564 -0.049982
C5    C     C_R   0.809887 0.546513 0.597245 -0.246051
C6    C     C_R   0.903047 0.546049 0.600607 -0.005287
C7    C     C_R   0.953071 0.495959 0.506102 -0.008326
C8    C     C_R   0.909494 0.444964 0.411918 0.160027
C9    C     C_R   0.947135 0.594039 0.696312 0.527454
C10   C     C_R   0.040880 0.596115 0.693306 -0.334542
C11   C     C_R   0.090449 0.549369 0.597603 0.048775
C12   C     C_R   0.498701 0.499492 0.258054 0.952473
C13   C     C_R   0.046563 0.497441 0.504889 0.056996
C14   C     C_R   0.096343 0.447235 0.410505 0.126250
C15   C     C_R   0.052658 0.396178 0.318444 -0.227608
C16   C     C_R   0.959315 0.395239 0.318973 -0.240190
C17   C     C_R   0.183501 0.552956 0.593116 -0.246769
C18   C     C_R   0.231600 0.502457 0.500115 -0.065928
C19   C     C_R   0.189227 0.449036 0.410119 -0.260010
C20   C     C_R   0.559021 0.798915 0.422742 0.176017
C21   C     C_R   0.571161 0.195157 0.453869 0.128119
C22   C     C_R   0.434982 0.798868 0.568857 -0.100252
C23   C     C_R   0.427932 0.205990 0.554828 -0.058379
C24   C     C_R   0.427802 0.900465 0.568543 -0.058054
C25   C     C_R   0.423878 0.104583 0.561952 -0.054921
C26   C     C_R   0.672890 0.498902 0.500383 0.856283
C27   C     C_R   0.489631 0.950183 0.493014 0.028140
C28   C     C_R   0.489483 0.051026 0.494023 0.026952
C29   C     C_R   0.553441 0.899573 0.416573 0.038590
C30   C     C_R   0.557498 0.098817 0.428017 0.055509
C31   C     C_R   0.360735 0.953727 0.639814 0.078529
C32   C     C_R   0.356497 0.055809 0.632017 0.082436
C33   C     C_R   0.611179 0.049366 0.339962 -0.242209
C34   C     C_R   0.609487 0.951608 0.334075 -0.234310
C35   C     C_R   0.500233 0.499792 0.742165 0.915181
C36   C     C_3   0.412134 0.555963 0.077796 0.294215
C37   C     C_3   0.494433 0.392483 0.073251 0.341780
C38   C     C_3   0.414373 0.556979 0.930820 0.264332
C39   C     C_3   0.490834 0.393986 0.929772 0.261200
C40   C     C_3   0.583890 0.543316 0.070714 -0.654258
C41   C     C_3   0.496231 0.497492 0.121925 -0.088515
C42   C     C_3   0.499399 0.498959 0.878526 -0.148336
H1    H     H_    0.417448 0.627698 0.119483 0.103908
H2    H     H_    0.558055 0.356816 0.103548 0.085039
H3    H     H_    0.074605 0.633872 0.766247 0.168858
H4    H     H_    0.218742 0.592568 0.663248 0.157208
H5    H     H_    0.228811 0.410064 0.339299 0.190882
H6    H     H_    0.090642 0.357563 0.245922 0.153765
H7    H     H_    0.926081 0.355891 0.246851 0.140604
H8    H     H_    0.388075 0.756969 0.622085 0.180143
H9    H     H_    0.376691 0.251039 0.598630 0.159191
H10   H     H_    0.655439 0.086559 0.275832 0.142803
H11   H     H_    0.655224 0.918854 0.265976 0.155891
H12   H     H_    0.355229 0.516156 0.901876 0.107501
H13   H     H_    0.421090 0.374174 0.906735 0.133282
H14   H     H_    0.589608 0.616669 0.107082 0.206154
H15   H     H_    0.643975 0.502618 0.103348 0.184771
H16   H     H_    0.590082 0.619125 0.892403 0.218130
H17   H     H_    0.648017 0.511783 0.889060 0.167731
H18   H     H_    0.781772 0.407620 0.339527 0.125315
H19   H     H_    0.769266 0.584964 0.667329 0.177770
N1    N     N_R   0.500070 0.750030 0.500050 -0.119639
N2    N     N_R   0.500070 0.249970 0.500050 -0.119584
O1    O     O_R   0.367860 0.580280 0.500020 -0.621560
O2    O     O_R   0.367860 0.419720 0.500020 -0.624836
O3    O     O_R   0.500000 0.580270 0.314790 -0.673891
O4    O     O_R   0.500000 0.419730 0.314790 -0.589489
O5    O     O_R   0.632160 0.580270 0.499960 -0.637584
O6    O     O_R   0.632160 0.419730 0.499960 -0.656331
O7    O     O_R   0.500030 0.580270 0.685200 -0.571781
O8    O     O_R   0.500030 0.419730 0.685200 -0.595325
Zn1   Zn    Zn3+2 0.500020 0.607200 0.499990 0.936305
Zn2   Zn    Zn3+2 0.500020 0.392800 0.499990 0.950008
C43   C     C_3   0.631056 0.747401 0.342570 -0.398139
C44   C     C_3   0.725508 0.757164 0.396539 -0.332416
C45   C     C_3   0.797013 0.707634 0.312682 -0.878664
H20   H     H_    0.780605 0.632242 0.298420 0.264102
H21   H     H_    0.801211 0.743129 0.219841 0.253069
H22   H     H_    0.863542 0.710787 0.357397 0.259358
H23   H     H_    0.743138 0.832593 0.406050 0.215504
H24   H     H_    0.727310 0.725892 0.491983 0.251485
H25   H     H_    0.618361 0.672954 0.330636 0.262294
H26   H     H_    0.629175 0.772623 0.244083 0.151332
C46   C     C_3   0.666357 0.230035 0.468502 -0.364856
C47   C     C_3   0.741232 0.155027 0.494012 -0.412944
C48   C     C_3   0.823987 0.199911 0.549207 -0.878081
H27   H     H_    0.852631 0.251789 0.482257 0.276669
H28   H     H_    0.806338 0.236022 0.639558 0.254539
H29   H     H_    0.876015 0.144091 0.566898 0.252386
H30   H     H_    0.716061 0.101232 0.561429 0.242475
H31   H     H_    0.764185 0.119333 0.405844 0.228413
H32   H     H_    0.685677 0.273928 0.386362 0.194321
H33   H     H_    0.663385 0.271395 0.556811 0.257950
C49   C     C_3   0.294046 0.902249 0.724415 -0.442318
C50   C     C_3   0.213020 0.870358 0.650351 -0.340883
C51   C     C_3   0.142552 0.826619 0.737142 -0.865430
H34   H     H_    0.172520 0.765322 0.787782 0.260108
H35   H     H_    0.116249 0.879803 0.806598 0.259066
H36   H     H_    0.085698 0.802146 0.680907 0.262109
H37   H     H_    0.181718 0.931713 0.601256 0.218790
H38   H     H_    0.235230 0.817195 0.578312 0.225695
H39   H     H_    0.326427 0.840701 0.770301 0.205495
H40   H     H_    0.271556 0.946492 0.805784 0.203329
C52   C     C_3   0.280930 0.113286 0.698163 -0.433944
C53   C     C_3   0.311846 0.153504 0.823702 -0.349977
C54   C     C_3   0.240814 0.221130 0.881909 -0.877938
H41   H     H_    0.228541 0.282238 0.818543 0.262731
H42   H     H_    0.176834 0.183873 0.899216 0.257913
H43   H     H_    0.264660 0.248337 0.972761 0.270197
H44   H     H_    0.325077 0.094593 0.890234 0.212572
H45   H     H_    0.375358 0.192334 0.810187 0.243854
H46   H     H_    0.256720 0.170885 0.635827 0.194268
H47   H     H_    0.219639 0.071721 0.714253 0.206661
O9    O     O_3   0.332258 0.513433 0.123765 -0.580681
C55   C     C_3   0.261232 0.581341 0.135155 -0.343859
H48   H     H_    0.251525 0.621159 0.046279 0.174455
H49   H     H_    0.273101 0.630934 0.213867 0.172044
H50   H     H_    0.197970 0.544169 0.156993 0.198045
O10   O     O_3   0.417938 0.345855 0.124025 -0.560071
C56   C     C_3   0.435390 0.247503 0.134227 -0.280912
H51   H     H_    0.489043 0.232319 0.202749 0.164793
H52   H     H_    0.453666 0.215346 0.041471 0.177547
H53   H     H_    0.373360 0.213533 0.169682 0.179270
O11   O     O_3   0.400136 0.646555 0.870732 -0.601803
C57   C     C_3   0.434667 0.726669 0.930957 -0.338339
H54   H     H_    0.494427 0.712536 0.987955 0.149002
H55   H     H_    0.380808 0.761149 0.990282 0.159176
H56   H     H_    0.455842 0.777889 0.858043 0.187219
O12   O     O_3   0.543869 0.319162 0.872224 -0.598766
C58   C     C_3   0.637657 0.331629 0.870170 -0.299454
H57   H     H_    0.663219 0.361310 0.958322 0.128959
H58   H     H_    0.658106 0.374164 0.787291 0.175538
H59   H     H_    0.671062 0.261054 0.857698 0.178168
O13   O     O_3   0.898898 0.643836 0.788554 -0.608132
C59   C     C_3   0.891386 0.585852 0.895717 -0.358205
H60   H     H_    0.856029 0.519329 0.874595 0.150918
H61   H     H_    0.850690 0.624666 0.968778 0.198502
H62   H     H_    0.958510 0.569313 0.935389 0.170410

loop_
_geom_bond_atom_site_label_1
_geom_bond_atom_site_label_2
_ccdc_geom_bond_type
C59   H62   S    
C53   H44   S    
C27   C29   A    
C50   C51   S    
C24   C27   A    
C43   H26   S    
C36   O9    S    
C6    C9    A    
O9    C55   S    
C47   H31   S    
C7    C8    A    
C47   C48   S    
C33   H10   S    
C1    C18   S    
C45   H21   S    
C38   C42   S    
C5    C6    A    
C48   H28   S    
C54   H41   S    
C15   C16   A    
C51   H36   S    
O2    Zn2   S    
C18   C19   A    
C35   C42   S    
C46   C47   S    
O3    Zn1   S    
C35   O7    A    
C55   H49   S    
C38   H12   S    
C57   H56   S    
C1    O2    A    
C32   C52   S    
O6    Zn2   S    
O4    Zn2   S    
C44   H23   S    
C21   C30   A    
C56   H53   S    
C22   H8    S    
C9    O13   S    
C25   C32   A    
C23   N2    A    
C53   H45   S    
C35   O8    A    
C8    C16   A    
C13   C14   A    
C37   C41   S    
C36   C41   S    
C15   H6    S    
C43   H25   S    
C52   C53   S    
C56   H52   S    
C17   C18   A    
C39   C42   S    
C20   C29   A    
C12   O4    A    
C39   H13   S    
C43   C44   S    
C20   C43   S    
C59   H60   S    
C17   H4    S    
C3    C8    A    
C52   H46   S    
C50   H37   S    
C44   H24   S    
C39   O12   S    
C40   H14   S    
C12   O3    A    
C29   C34   A    
C51   H35   S    
C25   C28   A    
C58   H58   S    
C44   C45   S    
C12   C41   S    
C22   N1    A    
C23   H9    S    
C31   C32   A    
C37   O10   S    
C21   C46   S    
O5    Zn1   S    
C55   H50   S    
C51   H34   S    
C10   H3    S    
C33   C34   A    
N1    Zn1   S    
C45   H20   S    
C6    C7    A    
C40   C41   S    
C2    H17   S    
C49   H40   S    
C57   H54   S    
C22   C24   A    
C47   H30   S    
C58   H59   S    
C3    C4    A    
C1    O1    A    
C16   H7    S    
C56   H51   S    
C45   H22   S    
O8    Zn2   S    
O12   C58   S    
C9    C10   A    
C59   H61   S    
C11   C17   A    
C40   H15   S    
C30   C33   A    
C48   H27   S    
C14   C19   A    
C4    C5    A    
C48   H29   S    
C4    C26   S    
O10   C56   S    
C2    H16   S    
O13   C59   S    
C31   C49   S    
N2    Zn2   S    
C53   C54   S    
C26   O5    A    
C37   H2    S    
C36   C38   S    
C58   H57   S    
C24   C31   A    
C37   C39   S    
C3    H18   S    
C5    H19   S    
C11   C13   A    
C55   H48   S    
C54   H42   S    
C2    C42   S    
C28   C30   A    
C19   H5    S    
C46   H33   S    
O1    Zn1   S    
C20   N1    A    
C49   C50   S    
C21   N2    A    
C10   C11   A    
C52   H47   S    
C2    C40   S    
C7    C13   A    
C23   C25   A    
C49   H39   S    
C34   H11   S    
C27   C28   A    
C57   H55   S    
C26   O6    A    
C14   C15   A    
C36   H1    S    
O7    Zn1   S    
C46   H32   S    
C38   O11   S    
C50   H38   S    
O11   C57   S    
C54   H43   S    
