data_mof_unit_14419.cif
_audit_creation_date              2012-12-10T17:36:46-0500
_audit_creation_method            fapswitch 2.2
_symmetry_space_group_name_H-M    P1
_symmetry_Int_Tables_number       1
_space_group_crystal_system       triclinic
_cell_length_a                    10.650434
_cell_length_b                    12.345832
_cell_length_c                    13.251991
_cell_angle_alpha                 116.411306
_cell_angle_beta                  77.345694
_cell_angle_gamma                 101.269077
_cell_volume                      1513.10252425

loop_
_atom_site_label
_atom_site_type_symbol
_atom_type_description
_atom_site_fract_x
_atom_site_fract_y
_atom_site_fract_z
_atom_type_partial_charge
C1    C     C_R   0.508846 0.854556 0.286674 0.843297
C2    C     C_3   0.016366 0.011307 0.603824 -0.383870
C3    C     C_3   0.934450 0.906447 0.519255 0.377779
C4    C     C_3   0.876184 0.997664 0.498321 -0.144481
C5    C     C_R   0.426035 0.262568 0.034189 0.412353
C6    C     C_R   0.464107 0.228134 0.835031 -0.194222
C7    C     C_R   0.569696 0.814552 0.080589 0.277004
C8    C     C_R   0.619649 0.732961 0.970032 0.232075
C9    C     C_R   0.597006 0.606640 0.939300 0.367227
C10   C     C_R   0.513295 0.561536 0.014883 -0.035354
C11   C     C_R   0.474493 0.643125 0.128656 -0.056982
C12   C     C_R   0.740034 0.999075 0.499298 0.859823
C13   C     C_R   0.473887 0.434977 0.981969 0.001374
C14   C     C_R   0.432687 0.389338 0.066129 -0.028845
C15   C     C_R   0.387367 0.470467 0.176406 -0.210244
C16   C     C_R   0.397017 0.593852 0.203298 -0.079599
C17   C     C_R   0.465047 0.353251 0.868006 0.451607
C18   C     C_R   0.446658 0.183905 0.918562 -0.240004
C19   C     C_R   0.513449 0.770244 0.163833 -0.175968
C20   C     C_R   0.677955 0.332244 0.305722 0.357476
C21   C     C_R   0.325666 0.760332 0.647257 0.509695
C22   C     C_R   0.285342 0.659895 0.676194 0.258276
C23   C     C_R   0.479852 0.145179 0.713311 0.883252
C24   C     C_R   0.353979 0.558673 0.621361 -0.183470
C25   C     C_R   0.458352 0.551483 0.533697 -0.041166
C26   C     C_R   0.492131 0.652687 0.504342 0.143895
C27   C     C_R   0.527615 0.446104 0.471822 -0.104071
C28   C     C_R   0.621644 0.440926 0.375864 -0.117153
C29   C     C_R   0.660475 0.544644 0.353385 0.390446
C30   C     C_R   0.595721 0.647518 0.417452 -0.169999
C31   C     C_R   0.507142 0.344774 0.500551 0.030373
C32   C     C_R   0.659064 0.239366 0.341113 0.559918
C33   C     C_R   0.259994 0.000717 0.500431 0.881677
C34   C     C_3   0.983701 0.987998 0.395425 -0.409152
C35   C     C_3   0.041402 0.897157 0.418812 0.340062
C36   C     C_3   0.123881 0.001704 0.500979 -0.142477
C37   C     C_3   0.065639 0.092864 0.479994 0.386335
C38   C     C_3   0.958730 0.102163 0.580451 0.344513
Cu1   Cu    Cu3+1 0.529830 0.098270 0.475420 1.036605
Cu2   Cu    Cu3+1 0.470170 0.901730 0.524580 0.997733
N1    N     N_R   0.575030 0.246270 0.438190 -0.277046
N2    N     N_R   0.425760 0.754330 0.561190 -0.223717
O1    O     O_R   0.537510 0.972500 0.318130 -0.518868
O2    O     O_R   0.487140 0.806530 0.359650 -0.649449
O3    O     O_R   0.708330 0.082950 0.479220 -0.607222
O4    O     O_R   0.657960 0.916980 0.520740 -0.569279
O5    O     O_R   0.512860 0.193470 0.640350 -0.520422
O6    O     O_R   0.462490 0.027500 0.681870 -0.555238
O7    O     O_R   0.342040 0.083020 0.479260 -0.556767
O8    O     O_R   0.291670 0.917050 0.520780 -0.536295
O9    O     O_3   0.088178 0.788919 0.335990 -0.708295
H1    H     H_    0.014046 0.740448 0.295739 0.346969
O10   O     O_3   0.442734 0.391893 0.790770 -0.699379
H2    H     H_    0.402159 0.468801 0.832849 0.326253
O11   O     O_3   0.577835 0.937632 0.109713 -0.643999
H3    H     H_    0.575171 0.949302 0.040942 0.354349
O12   O     O_3   0.661961 0.525585 0.839520 -0.661882
H4    H     H_    0.719447 0.568995 0.796457 0.387159
O13   O     O_3   0.695448 0.774095 0.892304 -0.726841
H5    H     H_    0.739509 0.856122 0.933979 0.354995
H6    H     H_    0.342156 0.648360 0.283129 0.199400
O14   O     O_3   0.721645 0.138497 0.269615 -0.643726
H7    H     H_    0.736146 0.098344 0.314420 0.353415
O15   O     O_3   0.767118 0.546881 0.272575 -0.692174
H8    H     H_    0.780846 0.625607 0.266357 0.313592
O16   O     O_3   0.749896 0.311587 0.200016 -0.616381
H9    H     H_    0.702757 0.339208 0.160476 0.353070
H10   H     H_    0.437806 0.342324 0.572150 0.194353
O17   O     O_3   0.266612 0.865773 0.704510 -0.706415
H11   H     H_    0.234570 0.877093 0.784199 0.312482
H12   H     H_    0.969409 0.978349 0.311194 0.191445
H13   H     H_    0.319372 0.484519 0.646027 0.191702
O18   O     O_3   0.177854 0.655468 0.754914 -0.706921
H14   H     H_    0.116412 0.708477 0.758980 0.338587
H15   H     H_    0.630266 0.722426 0.396318 0.193168
O19   O     O_3   0.136809 0.192434 0.462296 -0.691088
H16   H     H_    0.072779 0.232966 0.451017 0.346029
O20   O     O_3   0.912242 0.210485 0.663379 -0.680155
H17   H     H_    0.986957 0.259394 0.702626 0.347664
H18   H     H_    0.030606 0.020897 0.688050 0.199850
O21   O     O_3   0.863379 0.806909 0.537044 -0.685683
H19   H     H_    0.927713 0.765467 0.546773 0.350492
H20   H     H_    0.444746 0.087471 0.894290 0.209018
H21   H     H_    0.335559 0.438950 0.240048 0.161030
O22   O     O_3   0.402497 0.212025 0.111782 -0.692091
H22   H     H_    0.427328 0.274585 0.185290 0.318572

loop_
_geom_bond_atom_site_label_1
_geom_bond_atom_site_label_2
_ccdc_geom_bond_type
O11   H3    S    
C34   C37   S    
O18   H14   S    
C35   C36   S    
C7    O11   S    
O21   H19   S    
C7    C8    A    
Cu1   N1    S    
O10   H2    S    
Cu2   O4    S    
C11   C19   A    
O14   H7    S    
C20   O16   S    
C36   C37   S    
C37   C38   S    
C8    O13   S    
C33   O7    A    
C15   C16   A    
C33   C36   S    
C34   C35   S    
C1    O1    A    
C8    C9    A    
C3    O21   S    
C32   N1    A    
C4    C12   S    
C9    C10   A    
Cu1   O3    S    
C5    O22   S    
Cu2   N2    S    
O16   H9    S    
C29   O15   S    
O13   H5    S    
C21   C22   A    
C31   H10   S    
C6    C18   A    
C4    C34   S    
C1    C19   S    
C23   O5    A    
C27   C31   A    
O9    H1    S    
O19   H16   S    
C12   O4    A    
Cu1   Cu2   S    
O20   H17   S    
Cu1   O1    S    
C5    C18   A    
C38   O20   S    
C25   C26   A    
O22   H22   S    
C21   O17   S    
C29   C30   A    
C11   C16   A    
C2    C38   S    
C1    O2    A    
C3    C35   S    
C18   H20   S    
C24   C25   A    
C5    C14   A    
Cu1   O7    S    
C37   O19   S    
C4    C38   S    
C26   C30   A    
C7    C19   A    
C35   O9    S    
C22   C24   A    
C16   H6    S    
C3    C4    S    
C17   O10   S    
C24   H13   S    
Cu1   O5    S    
C20   C32   A    
C2    C36   S    
Cu2   O6    S    
C6    C17   A    
C28   C29   A    
C23   O6    A    
C31   N1    A    
C12   O3    A    
C10   C13   A    
C15   H21   S    
C25   C27   A    
C20   C28   A    
C13   C17   A    
O15   H8    S    
C2    C3    S    
C33   O8    A    
C32   O14   S    
C30   H15   S    
O12   H4    S    
Cu2   O8    S    
C6    C23   S    
C9    O12   S    
C26   N2    A    
O17   H11   S    
C2    H18   S    
C10   C11   A    
C21   N2    A    
Cu2   O2    S    
C27   C28   A    
C14   C15   A    
C22   O18   S    
C13   C14   A    
C34   H12   S    
