data_mof_unit_59459.cif
_audit_creation_date              2012-12-11T15:21:34-0500
_audit_creation_method            fapswitch 2.2
_symmetry_space_group_name_H-M    P1
_symmetry_Int_Tables_number       1
_space_group_crystal_system       monoclinic
_cell_length_a                    19.172935
_cell_length_b                    7.14581
_cell_length_c                    17.652581
_cell_angle_alpha                 90.0
_cell_angle_beta                  109.012985
_cell_angle_gamma                 90.0
_cell_volume                      2286.569678

loop_
_atom_site_label
_atom_site_type_symbol
_atom_type_description
_atom_site_fract_x
_atom_site_fract_y
_atom_site_fract_z
_atom_type_partial_charge
O1    O     O_R   0.562310 0.505770 0.439670 -0.537324
O2    O     O_R   0.437690 0.005770 0.560330 -0.537323
O3    O     O_R   0.411650 0.169150 0.405330 -0.536095
O4    O     O_R   0.588350 0.669150 0.594670 -0.536095
C1    C     C_R   0.384655 0.345910 0.382628 0.639247
C2    C     C_R   0.615345 0.845910 0.617372 0.639248
O5    O     O_R   0.560140 0.175610 0.430010 -0.539682
O6    O     O_R   0.439860 0.675610 0.569990 -0.539682
O7    O     O_R   0.587240 0.012100 0.585200 -0.539806
O8    O     O_R   0.412760 0.512100 0.414800 -0.539806
C3    C     C_R   0.581045 0.344545 0.414872 0.698708
C4    C     C_R   0.418955 0.844545 0.585128 0.698706
O9    O     O_3   0.508720 0.341420 0.550890 -0.371139
O10   O     O_3   0.491280 0.841420 0.449110 -0.371139
V1    V     V_3+5 0.498380 0.063930 0.490560 1.389858
V2    V     V_3+5 0.501620 0.563930 0.509440 1.389858
C5    C     C_R   0.178022 0.063637 0.863970 -0.191061
C6    C     C_R   0.821978 0.563638 0.136030 -0.191061
C7    C     C_R   0.129766 0.915835 0.864619 -0.074129
C8    C     C_R   0.870234 0.415835 0.135380 -0.074129
C9    C     C_R   0.129256 0.755597 0.818088 -0.177103
C10   C     C_R   0.870743 0.255597 0.181912 -0.177103
C11   C     C_R   0.175632 0.742861 0.770896 0.050765
C12   C     C_R   0.824368 0.242861 0.229104 0.050765
C13   C     C_R   0.224621 0.889791 0.771458 0.076499
C14   C     C_R   0.775378 0.389792 0.228542 0.076499
C15   C     C_R   0.226030 0.050650 0.818625 0.111541
C16   C     C_R   0.773970 0.550650 0.181375 0.111541
C17   C     C_R   0.172726 0.586185 0.722391 -0.172957
C18   C     C_R   0.827274 0.086185 0.277608 -0.172957
C19   C     C_R   0.217971 0.571602 0.673713 -0.024922
C20   C     C_R   0.782029 0.071602 0.326286 -0.024922
C21   C     C_R   0.270143 0.716015 0.676647 0.007012
C22   C     C_R   0.729857 0.216015 0.323353 0.007012
C23   C     C_R   0.272225 0.876260 0.725001 0.081946
C24   C     C_R   0.727775 0.376260 0.274999 0.081946
C25   C     C_R   0.321723 0.024420 0.726865 0.120603
C26   C     C_R   0.678277 0.524420 0.273135 0.120602
C27   C     C_R   0.323201 0.182358 0.774685 -0.170010
C28   C     C_R   0.676799 0.682358 0.225315 -0.170011
C29   C     C_R   0.275641 0.195631 0.819910 -0.139974
C30   C     C_R   0.724358 0.695631 0.180090 -0.139974
C31   C     C_R   0.320535 0.706111 0.633311 -0.222166
C32   C     C_R   0.679465 0.206111 0.366689 -0.222166
C33   C     C_R   0.369073 0.854366 0.634211 -0.066973
C34   C     C_R   0.630927 0.354366 0.365789 -0.066972
C35   C     C_R   0.368791 0.013511 0.680689 -0.209602
C36   C     C_R   0.631209 0.513511 0.319312 -0.209602
H1    H     H_    0.179314 0.187208 0.900048 0.160225
H2    H     H_    0.820686 0.687208 0.099952 0.160225
H3    H     H_    0.091826 0.641522 0.817641 0.126239
H4    H     H_    0.908174 0.141522 0.182359 0.126239
H5    H     H_    0.133615 0.475860 0.721444 0.167809
H6    H     H_    0.866385 0.975860 0.278556 0.167809
H7    H     H_    0.322816 0.584702 0.597962 0.109570
H8    H     H_    0.677184 0.084702 0.402038 0.109570
H9    H     H_    0.406167 0.128231 0.681906 0.126714
H10   H     H_    0.593833 0.628231 0.318094 0.126715
H11   H     H_    0.360710 0.296986 0.776439 0.128004
H12   H     H_    0.639290 0.796986 0.223561 0.128005
H13   H     H_    0.277530 0.319838 0.855756 0.153768
H14   H     H_    0.722470 0.819839 0.144244 0.153768
C37   C     C_3   0.752040 0.807633 0.838336 0.144723
C38   C     C_3   0.247960 0.307633 0.161664 0.144723
H15   H     H_    0.772855 0.665255 0.859755 0.113305
H16   H     H_    0.227145 0.165255 0.140245 0.113305
C39   C     C_3   0.678914 0.784792 0.766608 -0.333782
C40   C     C_3   0.321086 0.284792 0.233392 -0.333781
H17   H     H_    0.632484 0.856020 0.779573 0.174510
H18   H     H_    0.367516 0.356020 0.220427 0.174510
H19   H     H_    0.664363 0.633736 0.757957 0.130994
H20   H     H_    0.335637 0.133736 0.242043 0.130994
H21   H     H_    0.848575 0.655918 0.766434 0.147217
H22   H     H_    0.151425 0.155918 0.233566 0.147217
H23   H     H_    0.740653 0.614592 0.662962 0.145086
H24   H     H_    0.259347 0.114593 0.337038 0.145086
C41   C     C_3   0.825384 0.795399 0.743426 -0.384645
C42   C     C_3   0.174616 0.295399 0.256574 -0.384644
C43   C     C_3   0.780986 0.104440 0.776179 -0.319672
C44   C     C_3   0.219013 0.604440 0.223820 -0.319672
C45   C     C_3   0.812207 0.912571 0.812069 0.061221
C46   C     C_3   0.187793 0.412571 0.187931 0.061221
H25   H     H_    0.822124 0.178861 0.754888 0.132721
H26   H     H_    0.177876 0.678861 0.245111 0.132721
H27   H     H_    0.770408 0.194684 0.822600 0.183438
H28   H     H_    0.229592 0.694684 0.177400 0.183438
C47   C     C_3   0.687063 0.866773 0.688666 0.064013
C48   C     C_3   0.312937 0.366773 0.311334 0.064013
C49   C     C_3   0.752505 0.766876 0.672316 -0.328400
C50   C     C_3   0.247495 0.266876 0.327683 -0.328400
C51   C     C_3   0.708761 0.078332 0.705352 -0.284319
C52   C     C_3   0.291239 0.578332 0.294648 -0.284320
H29   H     H_    0.663753 0.155459 0.718884 0.158780
H30   H     H_    0.336247 0.655459 0.281116 0.158780
H31   H     H_    0.715800 0.143530 0.651006 0.139220
H32   H     H_    0.284200 0.643530 0.348994 0.139220
H33   H     H_    0.866748 0.866797 0.721529 0.146617
H34   H     H_    0.133251 0.366797 0.278471 0.146617
H35   H     H_    0.759413 0.822821 0.616362 0.138520
H36   H     H_    0.240587 0.322821 0.383638 0.138520
O11   O     O_R   0.087220 0.271820 0.085230 -0.545144
O12   O     O_R   0.912780 0.771820 0.914770 -0.545144
O13   O     O_R   0.939860 0.595540 0.069990 -0.540336
O14   O     O_R   0.060140 0.095540 0.930010 -0.540336
C53   C     C_R   0.919104 0.426540 0.085272 0.707745
C54   C     C_R   0.080895 0.926540 0.914728 0.707746
O15   O     O_R   0.088340 0.601930 0.094680 -0.535415
O16   O     O_R   0.911660 0.101930 0.905320 -0.535415
O17   O     O_R   0.062310 0.765410 0.939660 -0.530511
O18   O     O_R   0.937690 0.265410 0.060340 -0.530511
C55   C     C_R   0.115875 0.431872 0.117795 0.701439
C56   C     C_R   0.884125 0.931872 0.882205 0.701439
O19   O     O_3   0.991270 0.429630 0.949130 -0.376004
O20   O     O_3   0.008730 0.929630 0.050870 -0.376004
V3    V     V_3+5 0.001620 0.707150 0.009440 1.437842
V4    V     V_3+5 0.998380 0.207150 0.990560 1.437842
Br1   Br    Br    0.733151 0.928836 0.929036 -0.615056
Br2   Br    Br    0.266849 0.428835 0.070964 -0.615056
C57   C     C_2   0.207009 0.407527 0.618779 0.387875
H37   H     H_    0.231354 0.401524 0.571561 0.029636
O21   O     O_2   0.168624 0.275493 0.624665 -0.527186
C58   C     C_2   0.792991 0.907527 0.381221 0.387875
H38   H     H_    0.768646 0.901524 0.428439 0.029636
O22   O     O_2   0.831377 0.775494 0.375335 -0.527186

loop_
_geom_bond_atom_site_label_1
_geom_bond_atom_site_label_2
_ccdc_geom_bond_type
C43   H25   S    
C53   O18   A    
C37   H15   S    
C44   C52   S    
C28   H12   S    
C47   C51   S    
O12   C56   A    
O1    C3    A    
C29   H13   S    
C44   H26   S    
O2    C4    A    
C2    O7    A    
O14   C54   A    
O20   V3    S    
C27   C29   A    
C42   C50   S    
O5    C3    A    
C18   H6    S    
C41   C49   S    
C49   H35   S    
C38   C40   S    
C23   C25   A    
C12   C14   A    
C37   Br1   S    
C9    H3    S    
C51   H29   S    
C52   H32   S    
C38   Br2   S    
C42   C46   S    
C44   H28   S    
O12   V3    S    
C5    C7    A    
O14   V4    S    
C1    C48   S    
C48   C52   S    
C42   H34   S    
C39   H19   S    
C19   C21   A    
C41   H33   S    
C25   C35   A    
C30   H14   S    
C43   C51   S    
C40   H20   S    
O19   V4    S    
C33   C35   A    
O6    V2    S    
C26   C28   A    
O15   C55   A    
C50   H36   S    
C14   C16   A    
C32   C34   A    
C34   C36   A    
C57   O21   D    
C25   C27   A    
C37   C39   S    
C21   C31   A    
C20   C58   S    
C6    C16   A    
C44   C46   S    
C5    H1    S    
C43   C45   S    
O17   V3    S    
C4    C33   S    
O5    V1    S    
C2    C47   S    
O16   C56   A    
C39   H17   S    
C5    C15   A    
O4    V2    S    
O13   V3    S    
C35   H9    S    
C15   C29   A    
C45   C56   S    
C41   C45   S    
O6    C4    A    
C27   H11   S    
C52   H30   S    
C22   C32   A    
O13   C53   A    
O1    V2    S    
C57   H37   S    
O2    V1    S    
C31   C33   A    
C38   C46   S    
C13   C23   A    
C14   C24   A    
C8    C10   A    
C47   C49   S    
C40   C48   S    
C10   C12   A    
O4    C2    A    
C13   C15   A    
C58   O22   D    
C24   C26   A    
O18   V4    S    
C43   H27   S    
O3    V1    S    
C6    H2    S    
C10   H4    S    
C8    C53   S    
C31   H7    S    
C37   C45   S    
C7    C9    A    
C26   C36   A    
C48   C50   S    
C28   C30   A    
O3    C1    A    
C11   C17   A    
C36   H10   S    
O11   C55   A    
C39   C47   S    
C46   C55   S    
O16   V4    S    
C9    C11   A    
O7    V1    S    
C1    O8    A    
C17   C19   A    
C38   H16   S    
O8    V2    S    
C18   C20   A    
C32   H8    S    
C17   H5    S    
C16   C30   A    
C21   C23   A    
C22   C24   A    
O15   V3    S    
C6    C8    A    
C11   C13   A    
C12   C18   A    
H23   C49   S    
C51   H31   S    
C7    C54   S    
C40   H18   S    
H22   C42   S    
O9    V2    S    
H24   C50   S    
O11   V4    S    
H21   C41   S    
O10   V1    S    
C3    C34   S    
C58   H38   S    
C19   C57   S    
C20   C22   A    
C54   O17   A    
