data_mof_unit_40305.cif
_audit_creation_date              2012-12-10T17:15:16-0500
_audit_creation_method            fapswitch 2.2
_symmetry_space_group_name_H-M    P1
_symmetry_Int_Tables_number       1
_space_group_crystal_system       triclinic
_cell_length_a                    10.179783
_cell_length_b                    10.802381
_cell_length_c                    12.868827
_cell_angle_alpha                 88.926614
_cell_angle_beta                  92.642327
_cell_angle_gamma                 96.649047
_cell_volume                      1403.99148162

loop_
_atom_site_label
_atom_site_type_symbol
_atom_type_description
_atom_site_fract_x
_atom_site_fract_y
_atom_site_fract_z
_atom_type_partial_charge
C1    C     C_R   0.443967 0.267147 0.495200 1.007947
C2    C     C_R   0.662327 0.447382 0.046101 -0.070553
C3    C     C_R   0.337679 0.498458 0.849058 -0.182543
C4    C     C_R   0.652103 0.464784 0.150957 -0.239414
C5    C     C_R   0.556976 0.427825 0.873514 0.385046
C6    C     C_R   0.410846 0.444158 0.127429 0.394686
C7    C     C_R   0.548887 0.442037 0.979961 -0.022584
C8    C     C_R   0.424879 0.455430 0.020683 -0.022445
C9    C     C_2   0.411210 0.133851 0.500581 -0.261904
C10   C     C_2   0.586077 0.864896 0.521795 -0.283602
C11   C     C_2   0.509220 0.065099 0.524966 -0.130425
C12   C     C_R   0.555432 0.732499 0.509399 0.935674
C13   C     C_2   0.484984 0.932633 0.526129 -0.154867
C14   C     C_2   0.073854 0.484742 0.515093 0.348394
C15   C     C_2   0.943141 0.529479 0.534291 0.339228
C16   C     C_R   0.473945 0.493813 0.698192 0.939987
C17   C     C_R   0.521025 0.487487 0.301901 0.912833
C18   C     C_R   0.527246 0.463883 0.192345 -0.179349
C19   C     C_R   0.456041 0.471680 0.807947 -0.179414
C20   C     C_R   0.319576 0.483835 0.954195 -0.077127
H1    H     H_    0.742228 0.477907 0.199609 0.205563
H2    H     H_    0.137218 0.633879 0.427360 0.191714
H3    H     H_    0.189983 0.233822 0.282568 0.408405
H4    H     H_    0.694211 0.212265 0.701911 0.391121
H5    H     H_    0.093461 0.834706 0.619924 0.387786
H6    H     H_    0.075408 0.147993 0.507127 0.377029
H7    H     H_    0.258277 0.529740 0.800010 0.225809
H8    H     H_    0.226800 0.504628 0.983667 0.215150
H9    H     H_    0.760219 0.447955 0.016523 0.218250
H10   H     H_    0.382287 0.891015 0.524148 0.209226
H11   H     H_    0.611069 0.105929 0.539253 0.196711
H12   H     H_    0.688448 0.907117 0.524518 0.198670
H13   H     H_    0.310091 0.092043 0.485006 0.169606
H14   H     H_    0.844262 0.363675 0.511294 0.189941
N1    N     N_2   0.162330 0.550370 0.457540 -0.192771
N2    N     N_2   0.837670 0.449630 0.542460 -0.179910
O1    O     O_R   0.567930 0.307680 0.508550 -0.643069
O2    O     O_2   0.172024 0.309382 0.091244 -0.271773
O3    O     O_3   0.276486 0.284926 0.275827 -0.541386
O4    O     O_2   0.798537 0.424059 0.797169 -0.239277
O5    O     O_2   0.721358 0.250048 0.912100 -0.260169
O6    O     O_3   0.618178 0.252028 0.725688 -0.539592
O7    O     O_2   0.900269 0.760960 0.477573 -0.335723
O8    O     O_2   0.852819 0.695187 0.657678 -0.232279
O9    O     O_3   0.098149 0.744694 0.609674 -0.585017
O10   O     O_2   0.216468 0.329116 0.640610 -0.262495
O11   O     O_2   0.981601 0.287669 0.639700 -0.306142
O12   O     O_R   0.432070 0.692320 0.491450 -0.632447
O13   O     O_3   0.095344 0.231485 0.474588 -0.576439
O14   O     O_R   0.351090 0.340020 0.481290 -0.502711
O15   O     O_R   0.648910 0.659980 0.518710 -0.534263
O16   O     O_R   0.590490 0.486480 0.665020 -0.534764
O17   O     O_R   0.409510 0.513520 0.334980 -0.546524
O18   O     O_R   0.373660 0.518820 0.637760 -0.589117
O19   O     O_R   0.626340 0.481180 0.362240 -0.645464
O20   O     O_2   0.180437 0.486403 0.208482 -0.293923
S1    S     S_3+6 0.253806 0.382065 0.174797 0.045878
S2    S     S_3+6 0.679607 0.337857 0.828086 0.074984
S3    S     S_3+6 0.943854 0.686503 0.570069 0.040057
S4    S     S_3+6 0.094443 0.332906 0.572005 0.048395
Zn1   Zn    Zn3+2 0.644780 0.478400 0.518200 1.082096
Zn2   Zn    Zn3+2 0.355220 0.521600 0.481800 1.109293

loop_
_geom_bond_atom_site_label_1
_geom_bond_atom_site_label_2
_ccdc_geom_bond_type
O1    Zn1   S    
C3    C19   A    
C5    C19   A    
H5    O9    S    
O2    S1    D    
C14   S4    S    
C1    O14   A    
C17   O19   A    
C2    C4    A    
C2    C7    A    
O15   Zn1   S    
O7    S3    D    
C12   O12   A    
C4    C18   A    
O6    S2    S    
C3    H7    S    
C17   C18   S    
O12   Zn2   S    
C11   H11   S    
C3    C20   A    
C10   H12   S    
O20   S1    D    
C9    H13   S    
H2    N1    S    
C9    C11   D    
C6    S1    S    
C8    C20   A    
O13   S4    S    
C10   C12   S    
C5    S2    S    
C2    H9    S    
C6    C18   A    
O19   Zn1   S    
C4    H1    S    
O5    S2    D    
N1    Zn2   S    
H14   N2    S    
O16   Zn1   S    
C16   C19   S    
O14   Zn2   S    
C16   O18   A    
C11   C13   S    
O4    S2    D    
O8    S3    D    
N2    Zn1   S    
O3    S1    S    
C1    C9    S    
C17   O17   A    
C15   N2    D    
C7    C8    A    
C12   O15   A    
H4    O6    S    
C13   H10   S    
O17   Zn2   S    
H6    O13   S    
C14   N1    D    
C5    C7    A    
C14   C15   S    
O9    S3    S    
C6    C8    A    
C20   H8    S    
O10   S4    D    
O11   S4    D    
C15   S3    S    
H3    O3    S    
O18   Zn2   S    
C16   O16   A    
C1    O1    A    
C10   C13   D    
