data_mof_unit_22940.cif
_audit_creation_date              2012-12-11T18:42:32-0500
_audit_creation_method            fapswitch 2.2
_symmetry_space_group_name_H-M    P1
_symmetry_Int_Tables_number       1
_space_group_crystal_system       triclinic
_cell_length_a                    8.575656
_cell_length_b                    14.754578
_cell_length_c                    19.210758
_cell_angle_alpha                 99.472185
_cell_angle_beta                  92.584369
_cell_angle_gamma                 91.854237
_cell_volume                      2393.20815514

loop_
_atom_site_label
_atom_site_type_symbol
_atom_type_description
_atom_site_fract_x
_atom_site_fract_y
_atom_site_fract_z
_atom_type_partial_charge
Ba1   Ba    Ba6+2 0.843240 0.541620 0.463500 1.885263
Ba2   Ba    Ba6+2 0.346570 0.458460 0.536510 1.872622
C1    C     C_3   0.640764 0.813077 0.181625 -0.223248
C2    C     C_R   0.934836 0.386696 0.085046 -0.023906
C3    C     C_R   0.782318 0.445072 0.955351 0.043461
C4    C     C_3   0.116217 0.721671 0.260338 0.277958
C5    C     C_R   0.940620 0.461762 0.975698 0.099082
C6    C     C_R   0.720437 0.461272 0.890119 -0.017316
C7    C     C_R   0.819218 0.481089 0.836832 -0.051296
C8    C     C_R   0.975140 0.511062 0.858410 -0.014674
C9    C     C_R   0.031484 0.505400 0.929943 0.074844
C10   C     C_R   0.771842 0.466628 0.763423 0.056378
C11   C     C_R   0.881524 0.488141 0.714376 0.027748
C12   C     C_3   0.582544 0.750641 0.232682 0.349213
C13   C     C_R   0.024876 0.538256 0.735088 0.098579
C14   C     C_R   0.071409 0.551219 0.810862 -0.064991
C15   C     C_R   0.148129 0.491610 0.070734 0.036104
C16   C     C_3   0.095259 0.736141 0.183663 -0.220939
C17   C     C_R   0.206906 0.488802 0.141994 -0.030708
C18   C     C_R   0.116026 0.445479 0.189493 -0.095752
C19   C     C_R   0.985829 0.388139 0.157179 -0.012265
C20   C     C_R   0.203927 0.603678 0.845039 0.435942
C21   C     C_R   0.250819 0.601901 0.915265 -0.086145
C22   C     C_R   0.175972 0.546138 0.956406 0.024534
C23   C     C_3   0.431062 0.266688 0.321885 0.255749
C24   C     C_R   0.237015 0.536577 0.025130 0.022599
C25   C     C_R   0.392793 0.561330 0.045999 -0.058025
C26   C     C_R   0.360987 0.525450 0.163795 -0.112085
C27   C     C_R   0.457414 0.549142 0.110791 0.323762
C28   C     C_3   0.140608 0.780037 0.653358 0.120375
C29   C     C_R   0.408924 0.539282 0.236723 -0.014251
C30   C     C_R   0.302925 0.514529 0.285531 0.069819
C31   C     C_R   0.164998 0.459763 0.264937 -0.049772
C32   C     C_R   0.707211 0.945616 0.524610 -0.049829
C33   C     C_R   0.522209 0.802190 0.493330 0.078919
C34   C     C_3   0.355557 0.193830 0.263159 -0.383360
C35   C     C_R   0.381771 0.768026 0.456558 -0.184346
C36   C     C_R   0.277790 0.823168 0.425931 -0.004998
C37   C     C_R   0.323344 0.914264 0.423611 -0.105036
C38   C     C_R   0.465561 0.953343 0.456369 0.094586
C39   C     C_R   0.567243 0.899091 0.492484 0.041308
C40   C     C_3   0.206476 0.876039 0.696933 0.092585
C41   C     C_R   0.642843 0.091454 0.487165 -0.031978
C42   C     C_R   0.753059 0.036112 0.514382 -0.081306
C43   C     C_R   0.681362 0.187554 0.491764 -0.014442
C44   C     C_R   0.823638 0.224627 0.524810 -0.286246
C45   C     C_3   0.132262 0.271285 0.730959 0.329377
C46   C     C_R   0.936831 0.168878 0.546960 0.082515
C47   C     C_R   0.907175 0.073751 0.533846 -0.037961
C48   C     C_R   0.501421 0.048191 0.456136 -0.028256
C49   C     C_3   0.971512 0.244161 0.365793 0.625548
C50   C     C_3   0.863315 0.171594 0.320468 -0.300021
C51   C     C_3   0.662686 0.726220 0.695388 0.106734
C52   C     C_3   0.631706 0.791566 0.765099 0.345547
C53   C     C_2   0.564897 0.810792 0.302312 0.469189
C54   C     C_2   0.213695 0.874981 0.775791 0.675822
C55   C     C_2   0.361202 0.907443 0.672232 0.568644
C56   C     C_3   0.099985 0.239509 0.801869 0.628668
C57   C     C_2   0.825654 0.703897 0.695254 0.446490
C58   C     C_2   0.584732 0.635735 0.694518 0.423457
C59   C     C_2   0.502926 0.342859 0.290813 0.485522
C60   C     C_2   0.626852 0.766211 0.106174 0.632736
C61   C     C_2   0.147360 0.831674 0.175450 0.531608
C62   C     C_2   0.747921 0.222001 0.685635 0.369590
C63   C     C_2   0.641887 0.147698 0.821651 0.774964
C64   C     C_2   0.553849 0.477744 0.886877 0.518541
C65   C     C_2   0.919543 0.314961 0.191342 0.476732
C66   C     C_2   0.828032 0.309182 0.049698 0.499265
C67   C     C_3   0.585178 0.218995 0.711514 0.194113
C68   C     C_2   0.039406 0.017301 0.512174 0.674134
C69   C     C_2   0.790311 0.912758 0.581992 0.584167
C70   C     C_2   0.200639 0.753054 0.583479 0.632544
C71   C     C_3   0.564938 0.133396 0.748641 0.173165
C72   C     C_R   0.003874 0.447971 0.044240 0.078098
Cl1   Cl    Cl    0.076222 0.966888 0.692646 -0.480365
Cl2   Cl    Cl    0.345828 0.551888 0.375277 -0.695971
Cl3   Cl    Cl    0.105330 0.182362 0.410374 -0.821311
Cl4   Cl    Cl    0.743180 0.897578 0.775396 -0.558632
Cl5   Cl    Cl    0.252901 0.273138 0.867367 -0.515449
Cl6   Cl    Cl    0.928828 0.284677 0.837899 -0.697876
Cl7   Cl    Cl    0.368577 0.104548 0.757402 -0.594244
Cl8   Cl    Cl    0.842618 0.447656 0.624187 -0.746803
Cl9   Cl    Cl    0.308404 0.688355 0.813801 -0.685755
Cl10  Cl    Cl    0.662563 0.548421 0.112384 -0.736809
H1    H     H_    0.904653 0.291250 0.403423 -0.020783
H2    H     H_    0.339236 0.295245 0.356674 0.100922
H3    H     H_    0.298584 0.137976 0.286418 0.174085
H4    H     H_    0.266170 0.224442 0.231481 0.077026
H5    H     H_    0.445360 0.163322 0.227405 0.133446
H6    H     H_    0.243763 0.312275 0.735607 0.085845
H7    H     H_    0.038137 0.316204 0.717406 -0.036849
H8    H     H_    0.081809 0.163662 0.794613 0.209362
H9    H     H_    0.501386 0.211778 0.664910 0.077136
H10   H     H_    0.610515 0.071558 0.715877 0.113566
H11   H     H_    0.071762 0.650796 0.263078 0.067326
H12   H     H_    0.778685 0.204336 0.288524 0.150549
H13   H     H_    0.701188 0.428461 0.993060 0.126904
H14   H     H_    0.346387 0.648342 0.938370 0.112638
H15   H     H_    0.242820 0.728301 0.276329 -0.109967
H16   H     H_    0.472729 0.582769 0.009577 0.100630
H17   H     H_    0.343500 0.699420 0.459888 0.128489
H18   H     H_    0.247446 0.955113 0.395849 0.059086
H19   H     H_    0.852056 0.296878 0.528513 0.119963
H20   H     H_    0.417630 0.087927 0.431578 0.125059
H21   H     H_    0.163705 0.685202 0.149897 0.065934
H22   H     H_    0.970487 0.724061 0.165737 0.153776
H23   H     H_    0.799601 0.130149 0.354146 0.085325
H24   H     H_    0.016230 0.787215 0.646551 0.127183
H25   H     H_    0.470166 0.857717 0.307673 -0.093549
H26   H     H_    0.119566 0.840971 0.798656 0.145421
H27   H     H_    0.464170 0.918663 0.707025 0.074482
H28   H     H_    0.865068 0.668502 0.646083 -0.043938
H29   H     H_    0.565144 0.587188 0.646399 0.091999
H30   H     H_    0.484741 0.346761 0.235082 -0.015625
H31   H     H_    0.512585 0.744535 0.081523 0.023819
H32   H     H_    0.091184 0.890573 0.203748 0.030661
H33   H     H_    0.789122 0.280072 0.663362 0.003593
H34   H     H_    0.931615 0.124335 0.283440 0.125638
H35   H     H_    0.603770 0.201439 0.862211 0.099607
H36   H     H_    0.514472 0.535749 0.864185 0.062193
H37   H     H_    0.989740 0.257294 0.198587 0.004535
H38   H     H_    0.722633 0.290897 0.074178 0.063992
H39   H     H_    0.035667 0.980370 0.458952 -0.029639
H40   H     H_    0.742274 0.920233 0.633533 0.095605
H41   H     H_    0.323454 0.745442 0.580188 -0.185722
H42   H     H_    0.764037 0.836662 0.196747 0.107325
H43   H     H_    0.660908 0.760223 0.812675 0.140665
H44   H     H_    0.507062 0.805748 0.765993 0.079503
H45   H     H_    0.466778 0.719139 0.211920 -0.160647
H46   H     H_    0.569948 0.875373 0.185251 0.044195
O1    O     O_2   0.887710 0.436190 0.327560 -0.394428
O2    O     O_2   0.269687 0.181290 0.558562 -0.410148
O3    O     O_3   0.142677 0.193041 0.678407 -0.510890
O4    O     O_3   0.135370 0.443490 0.416520 -0.408896
O5    O     O_3   0.551980 0.615210 0.532020 -0.474602
O6    O     O_2   0.394410 0.269100 0.474240 -0.418942
O7    O     O_3   0.549149 0.225451 0.357129 -0.662178
O8    O     O_2   0.432151 0.454722 0.751602 -0.436955
O9    O     O_3   0.553397 0.298865 0.759722 -0.600498
O10   O     O_3   0.634420 0.609440 0.364670 -0.367723
O11   O     O_2   0.725681 0.514398 0.249914 -0.353220
O12   O     O_3   0.617296 0.771205 0.638284 -0.719915
O13   O     O_3   0.057737 0.288849 0.320769 -0.678740
O14   O     O_3   0.693220 0.683571 0.239797 -0.540317
O15   O     O_2   0.795290 0.730930 0.525800 -0.406733
O16   O     O_3   0.044470 0.660110 0.398750 -0.398826
O17   O     O_2   0.946499 0.824871 0.432920 -0.388419
O18   O     O_2   0.659659 0.810434 0.351490 -0.554108
O19   O     O_2   0.315867 0.917480 0.815656 -0.505476
O20   O     O_2   0.370935 0.926338 0.613229 -0.564698
O21   O     O_2   0.908724 0.717492 0.749683 -0.603221
O22   O     O_2   0.567351 0.609171 0.750355 -0.591518
O23   O     O_3   0.031047 0.786016 0.304034 -0.595205
O24   O     O_2   0.580688 0.403061 0.329107 -0.497646
O25   O     O_2   0.742593 0.754083 0.071616 -0.543960
O26   O     O_2   0.251891 0.843851 0.136537 -0.583469
O27   O     O_2   0.834345 0.158284 0.687829 -0.572578
O28   O     O_2   0.746754 0.099097 0.836293 -0.437244
O29   O     O_2   0.461137 0.430061 0.912491 -0.517096
O30   O     O_2   0.782341 0.314592 0.205253 -0.588591
O31   O     O_2   0.859888 0.263641 0.993553 -0.475648
O32   O     O_2   0.152039 0.012825 0.552039 -0.460290
O33   O     O_2   0.917893 0.881623 0.572387 -0.534897
O34   O     O_2   0.301980 0.563840 0.672490 -0.424736
O35   O     O_2   0.110716 0.726092 0.533314 -0.550107
O36   O     O_3   0.054330 0.556590 0.583490 -0.423427
O37   O     O_3   0.555270 0.390630 0.635330 -0.445399
O38   O     O_3   0.173995 0.709789 0.691706 -0.624209
O39   O     O_3   0.637720 0.384870 0.467990 -0.390186
O40   O     O_3   0.145220 0.339960 0.601250 -0.476602
P1    P     P_3+3 0.061800 0.409390 0.339760 1.057882
P2    P     P_3+3 0.622760 0.718740 0.547830 0.996975
P3    P     P_3+3 0.078291 0.775348 0.391656 1.101383
P4    P     P_3+3 0.127890 0.590690 0.660240 1.123125
P5    P     P_3+3 0.122483 0.221423 0.593501 1.141016
P6    P     P_3+3 0.608481 0.589420 0.272396 1.174986
P7    P     P_3+3 0.566050 0.267491 0.448112 1.012658
P8    P     P_3+3 0.579805 0.403510 0.727266 1.040716

loop_
_geom_bond_atom_site_label_1
_geom_bond_atom_site_label_2
_ccdc_geom_bond_type
C34   H5    S    
C67   O9    S    
C10   P8    S    
C6    C64   S    
C25   C27   A    
C1    H46   S    
C70   O35   D    
C53   H25   S    
Ba1   O15   S    
C17   C18   A    
C59   O24   D    
C49   H1    S    
C16   H22   S    
C51   C57   S    
C1    H42   S    
C43   C44   A    
C34   H4    S    
O38   P4    S    
O1    P1    D    
C40   Cl1   S    
Ba2   O4    S    
C69   O33   D    
C15   C24   A    
C26   C27   A    
C33   C35   A    
C22   C24   A    
C61   O26   D    
C51   O12   S    
C67   H9    S    
C36   C37   A    
C16   C61   S    
C13   C14   A    
O16   P3    S    
O23   P3    S    
C9    C22   A    
C63   C71   S    
C60   O25   D    
C32   C69   S    
Ba1   Ba2   S    
C58   O22   D    
O39   P7    S    
C2    C66   S    
C40   C54   S    
C68   H39   S    
C50   H23   S    
C6    C7    A    
C62   O27   D    
O11   P6    D    
C21   C22   A    
C67   C71   S    
C65   O30   D    
C7    C8    A    
Ba2   O36   S    
C2    C72   A    
C43   P7    S    
C29   P6    S    
C46   P5    S    
C12   C53   S    
O15   P2    D    
C54   H26   S    
C64   H36   S    
C45   O3    S    
C33   P2    S    
C23   O7    S    
Ba1   O16   S    
C32   C39   A    
C71   H10   S    
C65   H37   S    
C40   C55   S    
C71   Cl7   S    
C64   O29   D    
C51   C58   S    
C5    C72   A    
C44   C46   A    
O40   P5    S    
C34   H3    S    
C4    C16   S    
C12   O14   S    
C25   H16   S    
O36   P4    S    
C49   C50   S    
C69   H40   S    
C32   C42   A    
C27   Cl10  S    
C66   H38   S    
C37   C38   A    
C3    C5    A    
C36   P3    S    
C23   C34   S    
C51   C52   S    
C52   H44   S    
O6    P7    D    
Ba1   P1    S    
C42   C47   A    
Ba2   O6    S    
C62   H33   S    
O2    P5    D    
C5    C9    A    
C41   C42   A    
C49   Cl3   S    
C35   C36   A    
O3    P5    S    
C29   C30   A    
C66   O31   D    
O10   P6    S    
C58   H29   S    
C55   O20   D    
O14   P6    S    
C57   H28   S    
C63   H35   S    
C23   C59   S    
O5    P2    S    
C10   C11   A    
O34   P4    D    
C17   C26   A    
C41   C43   A    
C1    C12   S    
C56   Cl5   S    
Ba2   O40   S    
C18   C31   A    
C38   C39   A    
C3    H13   S    
C49   O13   S    
C47   C68   S    
C11   C13   A    
C24   C25   A    
C15   C72   A    
C21   H14   S    
C45   H6    S    
C61   H32   S    
Ba2   O34   S    
Ba1   O4    S    
O8    P8    D    
C37   H18   S    
O12   P2    S    
C52   H43   S    
C1    C60   S    
C46   C47   A    
C14   C20   A    
C13   P4    S    
C28   H24   S    
C45   H7    S    
C26   C29   A    
C63   O28   D    
Ba1   O1    S    
C30   Cl2   S    
C3    C6    A    
C28   C70   S    
O17   P3    D    
C41   C48   A    
C19   C65   S    
C57   O21   D    
C62   C67   S    
C44   H19   S    
Ba1   P2    S    
Ba2   O5    S    
C70   H41   S    
O4    P1    S    
C4    H15   S    
C16   H21   S    
O13   P1    S    
C60   H31   S    
O9    P8    S    
C8    C14   A    
C30   C31   A    
C20   Cl9   S    
C35   H17   S    
C2    C19   A    
C53   O18   D    
C55   H27   S    
Ba1   O36   S    
C38   C48   A    
C11   Cl8   S    
Ba1   O39   S    
C23   H2    S    
C15   C17   A    
C50   H12   S    
C33   C39   A    
C7    C10   A    
C56   Cl6   S    
C4    O23   S    
C8    C9    A    
Ba2   O39   S    
C28   O38   S    
O37   P8    S    
O7    P7    S    
C18   C19   A    
C4    H11   S    
C59   H30   S    
C20   C21   A    
C28   C40   S    
Ba1   O10   S    
C52   Cl4   S    
C54   O19   D    
Ba1   O5    S    
C56   H8    S    
Ba2   O37   S    
Ba2   P4    S    
C48   H20   S    
C68   O32   D    
C50   H34   S    
C45   C56   S    
C12   H45   S    
C31   P1    S    
