data_mof_unit_28506.cif
_audit_creation_date              2012-10-26T20:17:40-0400
_audit_creation_method            fapswitch 2.2
_symmetry_space_group_name_H-M    P1
_symmetry_Int_Tables_number       1
_space_group_crystal_system       triclinic
_cell_length_a                    27.824403
_cell_length_b                    8.660527
_cell_length_c                    7.501542
_cell_angle_alpha                 103.678385
_cell_angle_beta                  94.816674
_cell_angle_gamma                 93.683987
_cell_volume                      1743.58853828

loop_
_atom_site_label
_atom_site_type_symbol
_atom_type_description
_atom_site_fract_x
_atom_site_fract_y
_atom_site_fract_z
_atom_type_partial_charge
C1    C     C_R   0.498431 0.199491 0.452590 0.549116
C2    C     C_R   0.867156 0.363882 0.442281 0.065164
C3    C     C_R   0.354745 0.491498 0.503036 -0.015486
C4    C     C_R   0.645255 0.508502 0.496964 -0.015486
C5    C     C_R   0.969098 0.356799 0.432764 0.005946
C6    C     C_R   0.030902 0.643201 0.567235 0.005946
C7    C     C_R   0.979876 0.645916 0.572564 0.005722
C8    C     C_R   0.020124 0.354085 0.427435 0.005722
C9    C     C_R   0.949152 0.503106 0.503247 0.022015
C10   C     C_R   0.050847 0.496894 0.496752 0.022015
C11   C     C_R   0.937167 0.216944 0.370608 -0.152331
C12   C     C_R   0.501569 0.800509 0.547410 0.549116
C13   C     C_R   0.062832 0.783056 0.629391 -0.152330
C14   C     C_R   0.887262 0.219265 0.372902 0.098763
C15   C     C_R   0.112738 0.780735 0.627097 0.098762
C16   C     C_R   0.407596 0.497685 0.501009 0.550628
C17   C     C_R   0.592404 0.502315 0.498991 0.550628
C18   C     C_R   0.041519 0.212966 0.351011 -0.145332
C19   C     C_R   0.958481 0.787034 0.648988 -0.145332
C20   C     C_2   0.497628 0.030808 0.426640 -0.142424
C21   C     C_2   0.502372 0.969192 0.573360 -0.142424
C22   C     C_R   0.173201 0.346260 0.441402 0.422697
C23   C     C_R   0.101986 0.493463 0.494762 -0.083278
C24   C     C_R   0.826798 0.653740 0.558597 0.422697
C25   C     C_R   0.183085 0.629216 0.549066 0.457153
C26   C     C_R   0.816915 0.370784 0.450933 0.457153
C27   C     C_R   0.283968 0.531921 0.672101 0.142837
C28   C     C_R   0.716032 0.468079 0.327899 0.142837
C29   C     C_R   0.334151 0.535685 0.670331 -0.121478
C30   C     C_R   0.665848 0.464315 0.329669 -0.121477
C31   C     C_R   0.324423 0.439278 0.337431 -0.129653
C32   C     C_R   0.675577 0.560723 0.662569 -0.129653
C33   C     C_R   0.274382 0.433568 0.338940 -0.050414
C34   C     C_R   0.898014 0.506537 0.505237 -0.083278
C35   C     C_R   0.725618 0.566432 0.661060 -0.050414
C36   C     C_R   0.253785 0.482252 0.504897 0.236922
C37   C     C_R   0.746215 0.517748 0.495103 0.236922
C38   C     C_R   0.122351 0.347468 0.428801 0.054324
C39   C     C_R   0.877649 0.652532 0.571198 0.054324
C40   C     C_R   0.091423 0.208159 0.351412 0.090734
C41   C     C_R   0.908577 0.791841 0.648588 0.090734
C42   C     C_R   0.132844 0.636118 0.557718 0.065164
Cu1   Cu    Cu3+1 0.505380 0.517380 0.684380 1.006493
Cu2   Cu    Cu3+1 0.494620 0.482620 0.315620 1.006493
H1    H     H_    0.339307 0.402309 0.206648 0.145017
H2    H     H_    0.979273 0.897869 0.714256 0.100733
H3    H     H_    0.493096 0.957220 0.286166 0.131732
H4    H     H_    0.506904 0.042780 0.713834 0.131732
H5    H     H_    0.456209 0.238396 0.941654 0.216961
H6    H     H_    0.417848 0.382086 0.968885 0.221104
H7    H     H_    0.543791 0.761604 0.058346 0.216961
H8    H     H_    0.582152 0.617913 0.031114 0.221104
H9    H     H_    0.097085 0.971972 0.325143 0.230834
H10   H     H_    0.095796 0.030079 0.125839 0.217121
H11   H     H_    0.904204 0.969922 0.874160 0.217121
H12   H     H_    0.660693 0.597691 0.793352 0.145017
H13   H     H_    0.902915 0.028028 0.674855 0.230834
H14   H     H_    0.867978 0.987609 0.365594 0.249743
H15   H     H_    0.862976 0.033137 0.158447 0.240698
H16   H     H_    0.132022 0.012391 0.634403 0.249743
H17   H     H_    0.137024 0.966864 0.841550 0.240698
H18   H     H_    0.251373 0.392738 0.210417 0.170824
H19   H     H_    0.748627 0.607263 0.789583 0.170824
H20   H     H_    0.643045 0.425152 0.200277 0.147489
H21   H     H_    0.356955 0.574848 0.799723 0.147489
H22   H     H_    0.949326 0.100970 0.319130 0.097091
H23   H     H_    0.050674 0.899030 0.680868 0.097091
H24   H     H_    0.020726 0.102131 0.285743 0.100733
I1    I     I_    0.744060 0.398976 0.069420 -0.309767
I2    I     I_    0.255940 0.601024 0.930580 -0.309767
N1    N     N_R   0.202140 0.485625 0.500773 -0.411673
N2    N     N_3   0.142790 0.926492 0.702961 -0.512271
N3    N     N_R   0.797860 0.514375 0.499227 -0.411673
N4    N     N_2   0.486510 0.456430 0.038510 -0.025576
N5    N     N_2   0.513490 0.543570 0.961490 -0.025577
N6    N     N_3   0.451126 0.351928 0.922125 -0.443622
N7    N     N_3   0.548874 0.648072 0.077875 -0.443622
N8    N     N_3   0.109968 0.061234 0.264359 -0.541818
N9    N     N_3   0.890032 0.938767 0.735639 -0.541817
N10   N     N_3   0.857210 0.073509 0.297037 -0.512271
O1    O     O_R   0.503500 0.286120 0.619780 -0.478579
O2    O     O_2   0.806126 0.792628 0.603178 -0.414411
O3    O     O_2   0.787005 0.235596 0.412622 -0.388536
O4    O     O_2   0.212995 0.764404 0.587378 -0.388536
O5    O     O_R   0.496500 0.713880 0.380220 -0.478579
O6    O     O_R   0.494410 0.256780 0.308360 -0.512232
O7    O     O_R   0.505590 0.743220 0.691640 -0.512232
O8    O     O_R   0.434810 0.514700 0.655690 -0.483423
O9    O     O_R   0.565190 0.485300 0.344310 -0.483423
O10   O     O_R   0.425720 0.485350 0.344280 -0.515561
O11   O     O_R   0.574280 0.514650 0.655720 -0.515561
O12   O     O_2   0.193874 0.207372 0.396822 -0.414411

loop_
_geom_bond_atom_site_label_1
_geom_bond_atom_site_label_2
_ccdc_geom_bond_type
C16   O10   A    
C26   O3    S    
C30   H20   S    
C27   C29   A    
H13   N9    S    
C28   I1    S    
C17   O11   A    
C33   C36   A    
C19   H2    S    
C39   C41   A    
C5    C9    A    
C15   N2    S    
C23   C42   A    
N4    N6    S    
C12   O5    A    
Cu1   O8    S    
C35   C37   A    
C5    C11   A    
C11   C14   A    
C24   N3    A    
H16   N2    S    
C1    O1    A    
C22   C38   A    
C24   C39   A    
C3    C29   A    
C24   O2    S    
C18   C40   A    
C33   H18   S    
C25   O4    S    
C31   C33   A    
C25   N1    A    
C14   N10   S    
C11   H22   S    
H14   N10   S    
C21   H4    S    
C2    C34   A    
Cu2   O6    S    
Cu1   N5    S    
N4    N5    D    
C34   C39   A    
C32   C35   A    
C17   O9    A    
H8    N7    S    
C26   N3    A    
C8    C18   A    
C25   C42   A    
C3    C31   A    
Cu1   Cu2   S    
H7    N7    S    
C6    C10   A    
H6    N6    S    
H11   N9    S    
H5    N6    S    
C2    C26   A    
Cu2   N4    S    
N5    N7    S    
C4    C32   A    
C27   I2    S    
C29   H21   S    
C4    C17   S    
H17   N2    S    
C7    C19   A    
C13   C15   A    
C9    C34   A    
Cu1   O1    S    
C40   N8    S    
Cu2   O5    S    
C22   N1    A    
Cu2   O10   S    
C13   H23   S    
C1    O6    A    
C7    C9    A    
C37   N3    S    
C1    C20   S    
C12   O7    A    
C15   C42   A    
H15   N10   S    
C41   N9    S    
C5    C8    A    
C36   N1    S    
C6    C7    A    
C10   C23   A    
C23   C38   A    
C27   C36   A    
Cu1   O7    S    
C28   C30   A    
H9    N8    S    
C6    C13   A    
C38   C40   A    
C28   C37   A    
C12   C21   S    
C2    C14   A    
Cu1   O11   S    
C20   H3    S    
Cu2   O9    S    
C20   C21   D    
C8    C10   A    
C31   H1    S    
C16   O8    A    
C22   O12   S    
C35   H19   S    
C18   H24   S    
C32   H12   S    
C4    C30   A    
C3    C16   S    
C19   C41   A    
H10   N8    S    
