data_mof_unit_43210.cif
_audit_creation_date              2012-12-10T18:09:09-0500
_audit_creation_method            fapswitch 2.2
_symmetry_space_group_name_H-M    P1
_symmetry_Int_Tables_number       1
_space_group_crystal_system       triclinic
_cell_length_a                    12.636606
_cell_length_b                    13.290597
_cell_length_c                    13.594668
_cell_angle_alpha                 90.1072
_cell_angle_beta                  96.407834
_cell_angle_gamma                 96.853519
_cell_volume                      2252.4542493

loop_
_atom_site_label
_atom_site_type_symbol
_atom_type_description
_atom_site_fract_x
_atom_site_fract_y
_atom_site_fract_z
_atom_type_partial_charge
C1    C     C_R   0.558962 0.691080 0.516687 0.928053
C2    C     C_R   0.464469 0.033873 0.506050 0.030467
C3    C     C_R   0.357165 0.989801 0.490895 -0.072984
C4    C     C_R   0.517490 0.499300 0.318328 0.870619
C5    C     C_R   0.332130 0.894826 0.534380 -0.124087
C6    C     C_R   0.418138 0.841027 0.570062 0.499609
C7    C     C_R   0.485046 0.137800 0.513509 -0.259367
C8    C     C_R   0.304599 0.153316 0.437553 0.387513
C9    C     C_R   0.596027 0.800296 0.531245 -0.226013
C10   C     C_R   0.898962 0.356628 0.646173 -0.375877
C11   C     C_R   0.208003 0.612393 0.368987 0.558737
C12   C     C_1   0.531451 0.512162 0.218185 -0.177861
C13   C     C_R   0.101886 0.626133 0.333033 -0.234894
C14   C     C_R   0.017005 0.574994 0.378591 0.367391
C15   C     C_R   0.039303 0.526556 0.470766 -0.057198
C16   C     C_R   0.440677 0.308679 0.487521 0.878159
C17   C     C_R   0.146835 0.510934 0.501404 0.047078
C18   C     C_R   0.958023 0.482262 0.526844 -0.027864
C19   C     C_R   0.982469 0.411279 0.601553 0.003952
C20   C     C_R   0.088279 0.390941 0.627029 0.439613
C21   C     C_R   0.168911 0.441800 0.576491 -0.312174
C22   C     C_R   0.851734 0.504176 0.510323 -0.101949
C23   C     C_R   0.281965 0.046145 0.437509 -0.089006
C24   C     C_R   0.793180 0.374156 0.618332 0.631586
C25   C     C_R   0.482642 0.500394 0.681810 0.907618
C26   C     C_1   0.470168 0.489641 0.782668 -0.235280
C27   C     C_2   0.461845 0.471277 0.972246 0.533135
C28   C     C_2   0.532783 0.534587 0.028956 -0.289256
C29   C     C_1   0.537707 0.524527 0.132567 0.046803
C30   C     C_1   0.462815 0.479940 0.868580 -0.160554
C31   C     C_3   0.415302 0.815285 0.734076 0.108541
C32   C     C_3   0.401155 0.737334 0.815285 -0.363303
C33   C     C_3   0.290964 0.674516 0.801016 -0.703135
C34   C     C_R   0.406505 0.199066 0.481225 -0.196590
C35   C     C_3   0.714246 0.315523 0.757531 0.067289
C36   C     C_3   0.710058 0.206434 0.793789 -0.355235
C37   C     C_3   0.706461 0.201673 0.905585 -0.956690
C38   C     C_3   0.203605 0.318709 0.749945 0.075829
C39   C     C_3   0.275398 0.242117 0.717401 -0.373302
C40   C     C_3   0.356133 0.213457 0.801567 -0.908375
C41   C     C_3   0.327057 0.737713 0.310300 0.190982
C42   C     C_3   0.426946 0.751467 0.255730 -0.334231
C43   C     C_3   0.468401 0.862782 0.246737 -0.997000
C44   C     C_3   0.902608 0.504084 0.242531 0.109193
C45   C     C_R   0.703929 0.837440 0.521191 0.419852
C46   C     C_3   0.903613 0.390935 0.263891 -0.412996
C47   C     C_3   0.796866 0.342409 0.293491 -0.800499
C48   C     C_2   0.076361 0.687202 0.243976 0.432427
C49   C     C_3   0.296273 0.398773 0.007918 0.029921
C50   C     C_3   0.272124 0.440685 0.107039 -0.272617
C51   C     C_3   0.151800 0.435227 0.113008 -0.904518
C52   C     C_3   0.153333 0.233343 0.442301 0.120575
C53   C     C_3   0.051165 0.157743 0.423744 -0.463016
C54   C     C_3   0.960825 0.189333 0.477411 -0.890088
C55   C     C_2   0.221317 0.859079 0.555492 0.469078
C56   C     C_R   0.730582 0.938994 0.500026 -0.316966
C57   C     C_2   0.196833 0.995869 0.362560 0.331888
C58   C     C_3   0.832508 0.763010 0.616797 0.116259
C59   C     C_3   0.943460 0.824504 0.627985 -0.360856
C60   C     C_3   0.007159 0.803984 0.726474 -0.916813
C61   C     C_3   0.637418 0.101635 0.348904 0.089944
C62   C     C_3   0.707860 0.054325 0.280817 -0.395207
C63   C     C_3   0.674689 0.076027 0.172207 -0.948396
C64   C     C_R   0.652300 0.004623 0.488636 0.460227
C65   C     C_R   0.547516 0.971729 0.514312 -0.093912
C66   C     C_R   0.521010 0.869871 0.539517 -0.194688
H1    H     H_    0.582990 0.596058 0.998112 0.116612
H2    H     H_    0.410746 0.777445 0.888137 0.170066
H3    H     H_    0.226716 0.724700 0.800629 0.247061
H4    H     H_    0.283536 0.620685 0.862888 0.205816
H5    H     H_    0.280102 0.630447 0.730408 0.304756
H6    H     H_    0.643146 0.347921 0.779432 0.184947
H7    H     H_    0.786125 0.362621 0.795881 0.106596
H8    H     H_    0.637363 0.160568 0.756187 0.228757
H9    H     H_    0.781815 0.173118 0.774586 0.220739
H10   H     H_    0.779123 0.245790 0.944970 0.263816
H11   H     H_    0.703570 0.121643 0.929487 0.265918
H12   H     H_    0.914694 0.298494 0.699670 0.199875
H13   H     H_    0.633844 0.232595 0.926055 0.277722
H14   H     H_    0.183451 0.299466 0.825484 0.165547
H15   H     H_    0.246571 0.397004 0.755678 0.126010
H16   H     H_    0.224742 0.171530 0.689252 0.234200
H17   H     H_    0.319937 0.274407 0.656759 0.189967
H18   H     H_    0.411906 0.280558 0.829107 0.289592
H19   H     H_    0.403963 0.156618 0.774078 0.250307
H20   H     H_    0.314089 0.179946 0.863467 0.265759
H21   H     H_    0.347356 0.767124 0.386853 0.154033
H22   H     H_    0.267888 0.783161 0.271937 0.210828
H23   H     H_    0.828754 0.567520 0.467212 0.241159
H24   H     H_    0.491216 0.712583 0.296279 0.216368
H25   H     H_    0.407543 0.717052 0.180282 0.235272
H26   H     H_    0.405997 0.904402 0.206685 0.277716
H27   H     H_    0.539609 0.869479 0.205232 0.273601
H28   H     H_    0.491887 0.896487 0.321556 0.270078
H29   H     H_    0.964479 0.526686 0.192772 0.113098
H30   H     H_    0.825559 0.515382 0.198437 0.171747
H31   H     H_    0.919214 0.351595 0.195660 0.189627
H32   H     H_    0.969597 0.379050 0.321965 0.215216
H33   H     H_    0.774751 0.381434 0.358603 0.300208
H34   H     H_    0.246119 0.416899 0.587668 0.206568
H35   H     H_    0.804529 0.262677 0.312617 0.250618
H36   H     H_    0.732340 0.344475 0.231205 0.242121
H37   H     H_    0.009546 0.731809 0.241012 0.114619
H38   H     H_    0.250834 0.322172 0.995555 0.167032
H39   H     H_    0.266796 0.446763 0.945848 0.109862
H40   H     H_    0.307916 0.396051 0.168503 0.245416
H41   H     H_    0.308281 0.520982 0.116554 0.239904
H42   H     H_    0.114456 0.482879 0.055100 0.270910
H43   H     H_    0.138121 0.463364 0.186878 0.278721
H44   H     H_    0.113210 0.355717 0.103420 0.241597
H45   H     H_    0.563423 0.170598 0.546384 0.257354
H46   H     H_    0.132098 0.309154 0.419647 0.174121
H47   H     H_    0.181153 0.238251 0.522714 0.147979
H48   H     H_    0.024197 0.151611 0.343066 0.232353
H49   H     H_    0.066769 0.082460 0.452569 0.217120
H50   H     H_    0.982625 0.187205 0.558593 0.296912
H51   H     H_    0.887619 0.135614 0.458358 0.284296
H52   H     H_    0.943047 0.266087 0.455169 0.274495
H53   H     H_    0.161974 0.911882 0.553776 0.053647
H54   H     H_    0.155515 0.040854 0.307767 0.127636
H55   H     H_    0.842351 0.681736 0.627686 0.166002
H56   H     H_    0.811243 0.964951 0.484028 0.170941
H57   H     H_    0.785319 0.784654 0.676760 0.107356
H58   H     H_    0.987898 0.803911 0.566366 0.264516
H59   H     H_    0.934954 0.906658 0.623637 0.206279
H60   H     H_    0.963419 0.823171 0.789120 0.255298
H61   H     H_    0.086232 0.851379 0.733198 0.264238
H62   H     H_    0.020681 0.722940 0.730563 0.271967
H63   H     H_    0.633961 0.182291 0.329607 0.182560
H64   H     H_    0.553098 0.065556 0.334815 0.146413
H65   H     H_    0.793309 0.084819 0.300078 0.231532
H66   H     H_    0.700678 0.971028 0.291073 0.226462
H67   H     H_    0.354314 0.868863 0.737797 0.120423
H68   H     H_    0.588835 0.047800 0.151147 0.271836
H69   H     H_    0.723984 0.037411 0.124735 0.265140
H70   H     H_    0.687460 0.158740 0.158731 0.273258
H71   H     H_    0.496714 0.858404 0.750364 0.082029
H72   H     H_    0.465282 0.687267 0.816366 0.208573
N1    N     N_R   0.773270 0.445590 0.549770 -0.165627
N2    N     N_R   0.227520 0.553880 0.450750 -0.138208
O1    O     O_R   0.631100 0.627590 0.523760 -0.597260
O2    O     O_3   0.707307 0.315288 0.652761 -0.618841
O3    O     O_3   0.105132 0.308545 0.687940 -0.676050
O4    O     O_3   0.288000 0.633787 0.307942 -0.609906
O5    O     O_3   0.913171 0.565731 0.329777 -0.641628
O6    O     O_2   0.123940 0.682631 0.170980 -0.590864
O7    O     O_3   0.406463 0.387128 0.011634 -0.632476
O8    O     O_3   0.234064 0.210718 0.384073 -0.652330
O9    O     O_2   0.194836 0.770281 0.573655 -0.569876
O10   O     O_2   0.173939 0.904196 0.357762 -0.646598
O11   O     O_3   0.781888 0.773067 0.519578 -0.621971
O12   O     O_R   0.455900 0.662370 0.491970 -0.579040
O13   O     O_3   0.680249 0.099107 0.449716 -0.655425
O14   O     O_R   0.600200 0.480080 0.377830 -0.611713
O15   O     O_R   0.425000 0.514870 0.346040 -0.560824
O16   O     O_R   0.544100 0.337630 0.508030 -0.569342
O17   O     O_R   0.368900 0.372410 0.476240 -0.624289
O18   O     O_R   0.575000 0.485130 0.653960 -0.612620
O19   O     O_R   0.399800 0.519920 0.622170 -0.611241
O20   O     O_3   0.404675 0.766531 0.640133 -0.567206
Zn1   Zn    Zn3+2 0.616980 0.476780 0.521230 0.976102
Zn2   Zn    Zn3+2 0.383020 0.523220 0.478770 0.996572

loop_
_geom_bond_atom_site_label_1
_geom_bond_atom_site_label_2
_ccdc_geom_bond_type
C15   C18   A    
C4    O14   A    
O1    Zn1   S    
C47   H35   S    
C12   C29   T    
C38   O3    S    
C40   H18   S    
O14   Zn1   S    
C3    C23   A    
C35   C36   S    
C31   H67   S    
C2    C65   A    
C8    C23   A    
C49   H38   S    
C10   H12   S    
C55   H53   S    
C53   C54   S    
C58   O11   S    
C9    C45   A    
C37   H13   S    
C14   O5    S    
C58   H57   S    
C28   C29   S    
C18   C19   A    
C38   C39   S    
C52   H46   S    
N2    Zn2   S    
C43   H28   S    
C47   H33   S    
C49   O7    S    
C1    O12   A    
C23   C57   S    
C42   H25   S    
C41   C42   S    
C40   H20   S    
C49   C50   S    
C9    C66   A    
O18   Zn1   S    
C16   C34   S    
C35   H7    S    
C2    C7    A    
C45   C56   A    
C24   O2    S    
C51   H42   S    
C48   O6    D    
C16   O16   A    
C56   C64   A    
C4    C12   S    
C11   O4    S    
C31   O20   S    
C61   H63   S    
C32   H2    S    
C46   H32   S    
C59   C60   S    
C52   O8    S    
C47   H36   S    
C13   C14   A    
C27   C30   S    
C20   O3    S    
C32   H72   S    
C8    O8    S    
C46   H31   S    
C44   C46   S    
C55   O9    D    
C24   N1    A    
C41   H21   S    
C63   H68   S    
C62   H66   S    
N1    Zn1   S    
C28   H1    S    
C1    C9    S    
C41   O4    S    
C39   C40   S    
C21   H34   S    
C49   H39   S    
C10   C24   A    
C25   C26   S    
C52   H47   S    
C48   H37   S    
C37   H11   S    
C22   N1    A    
C17   C21   A    
C53   H48   S    
C54   H50   S    
C42   H24   S    
C63   H69   S    
C40   H19   S    
C11   N2    A    
C25   O19   A    
C62   C63   S    
C44   H30   S    
C36   H9    S    
C31   C32   S    
C60   H62   S    
C10   C19   A    
C57   O10   D    
C44   O5    S    
O19   Zn2   S    
C50   C51   S    
C8    C34   A    
C36   H8    S    
C33   H4    S    
C57   H54   S    
C61   H64   S    
C37   H10   S    
C35   H6    S    
C26   C30   T    
C51   H44   S    
C54   H52   S    
C38   H15   S    
C50   H41   S    
C7    C34   A    
C31   H71   S    
C42   C43   S    
C25   O18   A    
C52   C53   S    
C59   H58   S    
C15   C17   A    
C41   H22   S    
C46   C47   S    
C36   C37   S    
C58   H55   S    
C16   O17   A    
C18   C22   A    
C62   H65   S    
C5    C55   S    
C60   H61   S    
C39   H16   S    
C3    C5    A    
C61   O13   S    
O15   Zn2   S    
O16   Zn1   S    
C13   C48   S    
C6    O20   S    
C33   H3    S    
C59   H59   S    
C43   H26   S    
C32   C33   S    
C19   C20   A    
C60   H60   S    
C2    C3    A    
C58   C59   S    
C39   H17   S    
C44   H29   S    
C64   C65   A    
C11   C13   A    
C5    C6    A    
C38   H14   S    
C64   O13   S    
C43   H27   S    
C22   H23   S    
C7    H45   S    
C17   N2    A    
C61   C62   S    
C1    O1    A    
C33   H5    S    
C35   O2    S    
C6    C66   A    
C4    O15   A    
C20   C21   A    
C27   O7    S    
C65   C66   A    
C54   H51   S    
C27   C28   D    
C50   H40   S    
C14   C15   A    
C63   H70   S    
C51   H43   S    
C45   O11   S    
O17   Zn2   S    
O12   Zn2   S    
C53   H49   S    
C56   H56   S    
