data_mof_unit_17010.cif
_audit_creation_date              2012-12-10T17:35:52-0500
_audit_creation_method            fapswitch 2.2
_symmetry_space_group_name_H-M    P1
_symmetry_Int_Tables_number       1
_space_group_crystal_system       triclinic
_cell_length_a                    10.554971
_cell_length_b                    12.19909
_cell_length_c                    12.92016
_cell_angle_alpha                 96.113002
_cell_angle_beta                  93.613015
_cell_angle_gamma                 86.375629
_cell_volume                      1648.18747049

loop_
_atom_site_label
_atom_site_type_symbol
_atom_type_description
_atom_site_fract_x
_atom_site_fract_y
_atom_site_fract_z
_atom_type_partial_charge
C1    C     C_R   0.500284 0.524250 0.700366 0.966933
C2    C     C_R   0.602873 0.166078 0.597070 0.295953
C3    C     C_R   0.561107 0.862112 0.534095 0.211491
C4    C     C_R   0.433313 0.140500 0.468408 0.222849
C5    C     C_R   0.535471 0.979310 0.542903 -0.045543
C6    C     C_R   0.435291 0.024533 0.481386 -0.027123
C7    C     C_R   0.741481 0.499180 0.497326 0.961502
C8    C     C_R   0.258379 0.500438 0.501676 0.960879
C9    C     C_3   0.967789 0.393445 0.485870 0.045421
C10   C     C_3   0.031726 0.604467 0.511769 0.045973
C11   C     C_3   0.049568 0.445529 0.578824 -0.057136
C12   C     C_R   0.500593 0.475961 0.299190 0.965515
C13   C     C_3   0.950269 0.552228 0.418635 -0.058781
C14   C     C_3   0.123718 0.501382 0.502665 -0.248150
C15   C     C_3   0.876018 0.496855 0.495011 -0.247919
C16   C     C_3   0.042738 0.449394 0.410029 0.625610
C17   C     C_3   0.957237 0.548358 0.587736 0.627260
C18   C     C_R   0.499129 0.459602 0.185492 -0.296023
C19   C     C_R   0.503339 0.541950 0.813243 -0.299370
C20   C     C_R   0.588304 0.625401 0.979432 0.752742
C21   C     C_R   0.416312 0.376789 0.018125 0.753144
C22   C     C_R   0.573168 0.625192 0.871190 -0.054885
C23   C     C_R   0.446068 0.463781 0.863205 0.618436
C24   C     C_R   0.431625 0.375810 0.125796 -0.053819
C25   C     C_3   0.105092 0.387366 0.671093 -0.629834
C26   C     C_3   0.896869 0.607694 0.324037 -0.634864
C27   C     C_3   0.933982 0.273230 0.467246 -0.759802
C28   C     C_3   0.063617 0.724879 0.530618 -0.768340
C29   C     C_3   0.370740 0.288162 0.174815 -0.742639
C30   C     C_3   0.636881 0.709756 0.818857 -0.723443
C31   C     C_3   0.337421 0.188701 0.393921 -0.789713
C32   C     C_3   0.693724 0.816224 0.559018 -0.771522
C33   C     C_3   0.684607 0.238844 0.672594 -0.783781
C34   C     C_R   0.555377 0.539480 0.135989 0.614706
C35   C     C_3   0.316388 0.766422 0.330065 -0.786321
C36   C     C_3   0.205821 0.987940 0.414131 -0.906263
C37   C     C_3   0.656401 0.017133 0.718666 -0.855550
C38   C     C_R   0.465717 0.460908 0.969897 -0.304598
C39   C     C_R   0.537296 0.542214 0.028740 -0.297736
C40   C     C_R   0.344472 0.950824 0.432970 0.135023
C41   C     C_R   0.603241 0.053060 0.614469 0.106724
C42   C     C_R   0.376551 0.835888 0.421946 0.277286
F1    F     F_    0.089893 0.398422 0.318497 -0.679824
F2    F     F_    0.910917 0.599160 0.679594 -0.682467
F3    F     F_    0.625965 0.616078 0.193543 -0.620483
F4    F     F_    0.373084 0.388485 0.806230 -0.615243
F5    F     F_    0.655094 0.705285 0.035927 -0.603719
F6    F     F_    0.351504 0.296104 0.960738 -0.604975
H1    H     H_    0.027354 0.353978 0.710121 0.232327
H2    H     H_    0.975445 0.777739 0.542938 0.237920
H3    H     H_    0.129870 0.737571 0.600446 0.258807
H4    H     H_    0.108040 0.747960 0.461629 0.230711
H5    H     H_    0.318828 0.230010 0.118004 0.286280
H6    H     H_    0.446391 0.238229 0.214748 0.238607
H7    H     H_    0.299984 0.328581 0.228396 0.274047
H8    H     H_    0.692437 0.766478 0.874407 0.282200
H9    H     H_    0.703767 0.666501 0.763450 0.270617
H10   H     H_    0.563890 0.761090 0.777496 0.231459
H11   H     H_    0.365291 0.267909 0.376930 0.289360
H12   H     H_    0.172745 0.318496 0.643963 0.258855
H13   H     H_    0.332336 0.135940 0.318659 0.222512
H14   H     H_    0.243674 0.203998 0.427944 0.246305
H15   H     H_    0.693735 0.758591 0.619183 0.266529
H16   H     H_    0.732033 0.775482 0.486201 0.249596
H17   H     H_    0.762361 0.879815 0.584267 0.216519
H18   H     H_    0.781045 0.198554 0.683654 0.197741
H19   H     H_    0.700559 0.318912 0.648201 0.273325
H20   H     H_    0.640902 0.253511 0.749131 0.252556
H21   H     H_    0.242464 0.813365 0.285292 0.216113
H22   H     H_    0.390079 0.739538 0.273897 0.273847
H23   H     H_    0.155121 0.447391 0.727269 0.277351
H24   H     H_    0.271772 0.694160 0.352318 0.254348
H25   H     H_    0.176081 0.051902 0.476779 0.245922
H26   H     H_    0.186832 0.016412 0.335720 0.258246
H27   H     H_    0.142673 0.919858 0.419207 0.239251
H28   H     H_    0.627644 0.934260 0.731702 0.248353
H29   H     H_    0.761723 0.017604 0.724650 0.241675
H30   H     H_    0.617414 0.073416 0.783671 0.265631
H31   H     H_    0.975811 0.638966 0.284789 0.234947
H32   H     H_    0.847046 0.546579 0.268831 0.274082
H33   H     H_    0.829450 0.677627 0.347911 0.251579
H34   H     H_    0.021624 0.219336 0.456715 0.230237
H35   H     H_    0.886469 0.250354 0.535127 0.234672
H36   H     H_    0.869709 0.260913 0.396154 0.256869
N1    N     N_R   0.523490 0.207800 0.519350 -0.125632
N2    N     N_R   0.476510 0.792200 0.480650 -0.114751
O1    O     O_R   0.506270 0.421700 0.658830 -0.571508
O2    O     O_R   0.493730 0.578300 0.341170 -0.572207
O3    O     O_R   0.491200 0.609310 0.646410 -0.627727
O4    O     O_R   0.508800 0.390690 0.353590 -0.646293
O5    O     O_R   0.693580 0.406210 0.506230 -0.645203
O6    O     O_R   0.306420 0.593790 0.493770 -0.637268
O7    O     O_R   0.678510 0.593830 0.493810 -0.614978
O8    O     O_R   0.321490 0.406170 0.506190 -0.616360
Zn1   Zn    Zn3+2 0.510060 0.374730 0.508290 0.955201
Zn2   Zn    Zn3+2 0.489940 0.625270 0.491710 0.959747

loop_
_geom_bond_atom_site_label_1
_geom_bond_atom_site_label_2
_ccdc_geom_bond_type
C1    O1    A    
O2    Zn2   S    
N1    Zn1   S    
C31   H13   S    
O4    Zn1   S    
C9    C27   S    
C29   H5    S    
C18   C24   A    
C12   O4    A    
C27   H36   S    
C9    C16   S    
C38   C39   A    
C28   H3    S    
C29   H6    S    
C11   C25   S    
C2    C41   A    
C30   H9    S    
O6    Zn2   S    
C2    N1    A    
C31   H11   S    
C35   C42   S    
C24   C29   S    
C28   H2    S    
C11   C17   S    
C21   C38   A    
C35   H22   S    
O1    Zn1   S    
C1    O3    A    
C42   N2    A    
C25   H12   S    
C21   F6    S    
C40   C42   A    
C23   F4    S    
C3    N2    A    
C31   H14   S    
O8    Zn1   S    
C33   H18   S    
C7    O7    A    
C1    C19   S    
C12   O2    A    
C34   C39   A    
C20   F5    S    
C36   C40   S    
C19   C22   A    
C8    O8    A    
C32   H16   S    
C4    C6    A    
C10   C14   S    
C20   C39   A    
C4    N1    A    
C29   H7    S    
C30   H8    S    
C26   H32   S    
C19   C23   A    
C36   H27   S    
C9    C11   S    
C7    O5    A    
C34   F3    S    
C25   H23   S    
C18   C34   A    
C16   F1    S    
N2    Zn2   S    
C8    O6    A    
C2    C33   S    
C37   H28   S    
C20   C22   A    
C35   H24   S    
C26   H33   S    
C13   C15   S    
C14   C16   S    
C13   C26   S    
C21   C24   A    
C33   H19   S    
C10   C28   S    
C15   C17   S    
C5    C41   A    
C36   H26   S    
C8    C14   S    
C22   C30   S    
C27   H34   S    
C32   H15   S    
C3    C5    A    
C10   C13   S    
O7    Zn2   S    
C23   C38   A    
C37   H30   S    
C26   H31   S    
O3    Zn2   S    
C27   H35   S    
C9    C15   S    
C17   F2    S    
C28   H4    S    
C5    C6    A    
C37   H29   S    
C30   H10   S    
C7    C15   S    
C11   C14   S    
C6    C40   A    
C37   C41   S    
C3    C32   S    
C25   H1    S    
C4    C31   S    
C36   H25   S    
O5    Zn1   S    
C35   H21   S    
C13   C16   S    
C12   C18   S    
C10   C17   S    
C33   H20   S    
C32   H17   S    
