data_mof_unit_61093.cif
_audit_creation_date              2013-03-05T15:55:23-0500
_audit_creation_method            fapswitch 2.2
_symmetry_space_group_name_H-M    P1
_symmetry_Int_Tables_number       1
_space_group_crystal_system       triclinic
_cell_length_a                    19.007239
_cell_length_b                    19.817023
_cell_length_c                    19.984297
_cell_angle_alpha                 111.668215
_cell_angle_beta                  107.253187
_cell_angle_gamma                 108.636326
_cell_volume                      5848.13348843

loop_
_atom_site_label
_atom_site_type_symbol
_atom_site_description
_atom_site_fract_x
_atom_site_fract_y
_atom_site_fract_z
_atom_type_partial_charge
C1    C     C_R   0.974124 0.715296 0.050784 0.490248
N1    N     N_R   0.996070 0.655850 0.042990 -0.106048
C2    C     C_R   0.844417 0.271701 0.773259 -0.059740
H1    H     H_    0.869572 0.247419 0.734134 0.231634
N2    N     N_R   0.888550 0.344160 0.844510 -0.089354
C3    C     C_R   0.036800 0.568784 0.833475 -0.168428
H2    H     H_    0.064692 0.631587 0.846979 0.208394
N3    N     N_R   0.043260 0.542980 0.887390 -0.074705
C4    C     C_R   0.760681 0.431467 0.985221 0.566285
N4    N     N_R   0.841360 0.457030 0.000110 -0.089829
C5    C     C_R   0.969866 0.430769 0.764566 0.566840
N5    N     N_R   0.001470 0.457070 0.844510 -0.077502
C6    C     C_R   0.828149 0.568954 0.055103 -0.133934
H3    H     H_    0.844045 0.631224 0.096307 0.211007
N6    N     N_R   0.883150 0.542930 0.042990 -0.081869
C7    C     C_R   0.774108 0.270109 0.843297 0.580342
N7    N     N_R   0.844430 0.344140 0.887390 -0.097644
C8    C     C_R   0.048662 0.717431 0.984420 0.474913
N8    N     N_R   0.040190 0.655860 0.000110 -0.106217
C9    C     C_R   0.003584 0.753025 0.011643 -0.234505
C10   C     C_R   0.771388 0.224653 0.770051 -0.195694
C11   C     C_R   0.988859 0.499704 0.756186 -0.122766
C12   C     C_R   0.749817 0.500469 0.016641 -0.150204
C13   C     C_R   0.998614 0.569572 0.227735 -0.194388
H4    H     H_    0.014142 0.632421 0.268000 0.143877
N9    N     N_R   0.998530 0.542930 0.155490 -0.072883
C14   C     C_R   0.173096 0.430625 0.951581 -0.067432
H5    H     H_    0.159259 0.367025 0.919574 0.169441
N10   N     N_R   0.116850 0.457070 0.957010 -0.055297
C15   C     C_R   0.237460 0.706692 0.167374 0.550357
N11   N     N_R   0.155570 0.655860 0.112610 -0.080931
C16   C     C_R   0.935149 0.273647 0.001204 -0.116372
H6    H     H_    0.887621 0.251140 0.018216 0.207661
N12   N     N_R   0.959810 0.344140 0.999890 -0.072528
C17   C     C_R   0.004315 0.271333 0.929206 0.310087
N13   N     N_R   0.003930 0.344150 0.957010 -0.103543
C18   C     C_R   0.164445 0.701391 0.235840 -0.166394
H7    H     H_    0.146675 0.710307 0.283721 0.142079
N14   N     N_R   0.111450 0.655840 0.155490 -0.072842
C19   C     C_R   0.931657 0.431546 0.158902 0.548573
N15   N     N_R   0.956740 0.457020 0.112610 -0.080103
C20   C     C_R   0.239309 0.568354 0.014915 -0.063997
H8    H     H_    0.284418 0.629887 0.034360 0.189713
N16   N     N_R   0.158640 0.542970 0.999890 -0.059081
Ni1   Ni    Ni4+2 0.997320 0.598490 0.098350 0.224121
Ni2   Ni    Ni4+2 0.002680 0.401510 0.901650 0.285845
Ni3   Ni    Ni4+2 0.098520 0.598520 0.000000 0.273553
Ni4   Ni    Ni4+2 0.901480 0.401480 0.000000 0.305919
C21   C     C_R   0.957918 0.501061 0.231967 -0.099676
C22   C     C_R   0.250826 0.499538 0.988698 0.005944
C23   C     C_R   0.244828 0.732993 0.245053 -0.093210
C24   C     C_R   0.962648 0.226710 0.957401 -0.108424
C25   C     C_1   0.674225 0.501581 0.016192 0.003837
C26   C     C_1   0.610030 0.501754 0.013581 0.031839
C27   C     C_1   0.534116 0.501342 0.008708 0.019017
C28   C     C_1   0.469040 0.500735 0.003732 0.021352
C29   C     C_1   0.392705 0.499975 0.997649 0.032145
C30   C     C_1   0.327753 0.499537 0.992948 0.006238
C31   C     C_R   0.536740 0.884629 0.453755 0.473370
C32   C     C_R   0.460740 0.856091 0.456897 -0.269863
C33   C     C_R   0.459025 0.882776 0.532189 0.300289
C34   C     C_R   0.533053 0.948360 0.603930 0.472138
C35   C     C_R   0.606747 0.983941 0.599112 -0.273881
C36   C     C_R   0.611213 0.948674 0.525867 0.300252
C37   C     C_1   0.383973 0.810309 0.382060 0.178982
C38   C     C_1   0.669569 0.066612 0.663179 0.180952
C39   C     C_1   0.717588 0.138241 0.713149 -0.005119
C40   C     C_1   0.320289 0.775280 0.319639 -0.033395
H9    H     H_    0.971580 0.637251 0.484033 0.149246
C41   C     C_R   0.944457 0.579743 0.551615 -0.137905
H10   H     H_    0.985555 0.637279 0.609776 0.136067
C42   C     C_R   0.906817 0.504735 0.548251 0.103504
C43   C     C_R   0.854063 0.430488 0.473347 -0.266252
H11   H     H_    0.824449 0.373059 0.472125 0.180265
C44   C     C_R   0.844269 0.429514 0.400619 0.344400
C45   C     C_R   0.889901 0.504696 0.405573 -0.010916
C46   C     C_R   0.935987 0.579704 0.480180 -0.194572
C47   C     C_1   0.932859 0.502466 0.621428 -0.004588
C48   C     C_1   0.908214 0.503887 0.341259 0.066962
C49   C     C_1   0.929617 0.502835 0.290553 0.011701
C50   C     C_1   0.958305 0.500852 0.682815 -0.007811
C51   C     C_R   0.841958 0.956839 0.925138 -0.192580
H12   H     H_    0.810540 0.986818 0.951835 0.167204
C52   C     C_R   0.881921 0.986298 0.885668 0.034424
C53   C     C_R   0.922864 0.948525 0.851384 -0.122049
H13   H     H_    0.954803 0.972141 0.821740 0.164275
C54   C     C_R   0.933089 0.887950 0.865539 -0.198418
H14   H     H_    0.972016 0.864639 0.845689 0.152698
C55   C     C_R   0.902339 0.865636 0.913868 -0.033776
C56   C     C_R   0.851295 0.895772 0.939453 0.538133
C57   C     C_1   0.903147 0.068206 0.902658 0.023238
C58   C     C_1   0.937499 0.826172 0.949224 -0.016373
C59   C     C_1   0.969262 0.794927 0.979863 -0.015929
C60   C     C_1   0.928786 0.140127 0.925457 0.097499
O1    O     O_3   0.940552 0.741867 0.100744 -0.769878
H15   H     H_    0.935686 0.789763 0.099472 0.331744
O2    O     O_3   0.300085 0.735578 0.148279 -0.768436
H16   H     H_    0.353461 0.775054 0.199927 0.340907
N17   N     N_R   0.017325 0.235525 0.860219 0.218553
O3    O     O_R   0.029271 0.171455 0.843858 -0.396376
O4    O     O_R   0.014341 0.264844 0.811588 -0.416524
O5    O     O_3   0.872576 0.351503 0.128539 -0.733976
H17   H     H_    0.861890 0.348869 0.173338 0.350310
O6    O     O_3   0.685020 0.979601 0.521457 -0.724982
H18   H     H_    0.733464 0.014922 0.577125 0.341562
O7    O     O_3   0.534789 0.851896 0.378440 -0.724340
H19   H     H_    0.592366 0.876473 0.385001 0.377364
O8    O     O_3   0.385636 0.850934 0.537025 -0.737583
H20   H     H_    0.342516 0.798388 0.485407 0.331194
O9    O     O_3   0.534482 0.983032 0.678835 -0.723874
H21   H     H_    0.479077 0.951781 0.673921 0.376632
N18   N     N_R   0.792987 0.352068 0.323797 0.238083
O10   O     O_R   0.772752 0.281891 0.321917 -0.362407
O11   O     O_R   0.759728 0.350796 0.255972 -0.379070
O12   O     O_3   0.816273 0.873286 0.984383 -0.733357
H22   H     H_    0.820751 0.824569 0.983488 0.319796
O13   O     O_3   0.704284 0.351241 0.956901 -0.678282
H23   H     H_    0.650917 0.349393 0.954755 0.321488
O14   O     O_3   0.931115 0.349409 0.703538 -0.756278
H24   H     H_    0.916249 0.347635 0.650794 0.323747
O15   O     O_3   0.731829 0.237074 0.878152 -0.677446
H25   H     H_    0.685434 0.180437 0.835144 0.338619
O16   O     O_3   0.108332 0.750864 0.963868 -0.753386
H26   H     H_    0.106405 0.799946 0.962978 0.328299

loop_
_geom_bond_atom_site_label_1
_geom_bond_atom_site_label_2
_geom_bond_distance
_ccdc_geom_bond_type
C15   C23   1.388516 A    
C7    C10   1.381436 A    
C14   N10   1.346922 A    
C4    O13   1.372376 S    
C43   H11   1.083762 S    
H9    C46   1.084113 S    
C17   N13   1.344672 A    
N7    Ni4   1.846088 S    
C27   C28   1.206906 T    
C5    O14   1.373156 S    
N18   O11   1.301465 A    
O2    H16   0.990921 S    
O16   H26   0.991405 S    
C53   H13   1.083976 S    
O8    H20   0.989920 S    
C15   O2    1.373126 S    
C44   N18   1.441784 S    
C18   H7    1.079781 S    
C13   N9    1.341040 A    
C8    N8    1.341610 A    
N4    N6    1.384865 A    
C15   N11   1.344808 A    
C18   C23   1.377269 A    
N8    Ni3   1.823508 S    
N2    N7    1.365243 A    
O7    H19   0.989521 S    
O12   H22   0.990081 S    
C3    C11   1.377134 A    
C28   C29   1.414305 S    
C6    C12   1.381601 A    
C1    N1    1.342819 A    
C33   O8    1.384099 S    
O9    H21   0.989487 S    
C16   C24   1.373138 A    
C42   C47   1.420921 S    
N9    Ni1   1.856290 S    
O1    H15   0.991277 S    
C7    N7    1.344909 A    
C45   C48   1.423765 S    
N13   Ni2   1.856601 S    
C41   H10   1.083856 S    
C52   C57   1.416317 S    
C4    N4    1.348427 A    
N12   N13   1.365236 A    
C14   C22   1.382161 A    
N3    N5    1.385028 A    
C8    O16   1.375121 S    
N14   Ni1   1.816031 S    
C38   C39   1.195704 T    
C35   C38   1.429319 S    
C31   C32   1.402997 A    
N11   Ni3   1.846087 S    
C6    H3    1.075101 S    
C10   C39   1.422765 S    
C41   C46   1.388051 A    
C43   C44   1.401396 A    
O5    H17   0.990517 S    
C20   N16   1.347818 A    
C17   N17   1.434340 S    
O6    H18   0.990351 S    
C12   C25   1.441412 S    
C45   C46   1.398662 A    
C53   C54   1.387813 A    
N1    Ni1   1.856599 S    
C31   O7    1.384941 S    
C22   C30   1.439284 S    
C11   C50   1.419750 S    
C13   H4    1.081622 S    
N5    Ni2   1.856287 S    
C4    C12   1.389278 A    
C3    N3    1.343875 A    
C9    C59   1.417150 S    
C25   C26   1.206909 T    
C48   C49   1.194613 T    
C32   C33   1.413234 A    
C16   N12   1.337085 A    
C44   C45   1.412834 A    
C34   C35   1.402634 A    
N17   O3    1.300868 A    
C34   O9    1.384937 S    
C1    O1    1.373215 S    
C37   C40   1.196251 T    
C31   C36   1.407966 A    
C56   O12   1.381430 S    
C52   C53   1.394707 A    
C55   C58   1.421062 S    
C24   C60   1.416836 S    
O15   H25   0.990729 S    
C20   C22   1.383242 A    
C19   N15   1.338149 A    
N17   O4    1.300244 A    
C32   C37   1.430505 S    
C51   C52   1.397151 A    
C6    N6    1.349066 A    
N10   N16   1.384868 A    
N4    Ni4   1.822449 S    
C2    C10   1.369703 A    
N12   Ni4   1.823506 S    
C20   H8    1.075782 S    
N6    Ni1   1.815123 S    
C2    H1    1.078192 S    
C17   C24   1.382665 A    
N2    Ni2   1.816033 S    
C13   C21   1.378842 A    
C36   O6    1.383882 S    
C7    O15   1.375528 S    
C26   C27   1.414230 S    
C1    C9    1.381491 A    
N1    N8    1.365236 A    
C42   C43   1.396894 A    
C2    N2    1.343431 A    
O14   H24   0.990810 S    
N16   Ni3   1.822446 S    
C3    H2    1.071569 S    
N18   O10   1.301687 A    
C5    C11   1.383538 A    
C51   C56   1.393072 A    
C21   C49   1.420080 S    
N10   Ni2   1.815125 S    
C16   H6    1.080401 S    
C54   C55   1.398226 A    
N3    Ni3   1.846340 S    
C18   N14   1.340482 A    
O13   H23   0.990652 S    
C57   C60   1.192172 T    
C47   C50   1.194494 T    
C29   C30   1.206965 T    
C58   C59   1.192654 T    
N15   Ni4   1.846338 S    
N11   N14   1.365246 A    
C8    C9    1.380962 A    
C23   C40   1.422121 S    
C33   C34   1.408213 A    
C19   O5    1.375466 S    
C35   C36   1.412226 A    
N9    N15   1.385028 A    
C54   H14   1.084173 S    
C51   H12   1.084372 S    
C14   H5    1.076968 S    
C41   C42   1.394225 A    
C55   C56   1.413671 A    
C19   C21   1.386264 A    
C5    N5    1.341858 A    
