data_mof_unit_51483.cif
_audit_creation_date              2013-03-05T16:10:15-0500
_audit_creation_method            fapswitch 2.2
_symmetry_space_group_name_H-M    P1
_symmetry_Int_Tables_number       1
_space_group_crystal_system       triclinic
_cell_length_a                    9.921187
_cell_length_b                    10.698621
_cell_length_c                    13.09619
_cell_angle_alpha                 91.827605
_cell_angle_beta                  71.604451
_cell_angle_gamma                 88.812485
_cell_volume                      1317.67149073

loop_
_atom_site_label
_atom_site_type_symbol
_atom_site_description
_atom_site_fract_x
_atom_site_fract_y
_atom_site_fract_z
_atom_type_partial_charge
O1    O     O_R   0.385370 0.683250 0.500010 -0.622482
O2    O     O_R   0.614700 0.683220 0.500010 -0.636343
C1    C     C_R   0.499346 0.739711 0.499734 0.858318
O3    O     O_R   0.328400 0.499990 0.653620 -0.598222
O4    O     O_R   0.557730 0.499960 0.653620 -0.605193
C2    C     C_R   0.422288 0.512681 0.703794 0.819276
Zn1   Zn    Zn3+2 0.346870 0.500020 0.500000 0.936696
Zn2   Zn    Zn3+2 0.653130 0.499980 0.500000 0.927884
O5    O     O_R   0.385300 0.316780 0.499990 -0.621212
O6    O     O_R   0.614630 0.316750 0.499990 -0.627266
O7    O     O_R   0.442270 0.500040 0.346380 -0.612415
O8    O     O_R   0.671600 0.500010 0.346380 -0.606261
C3    C     C_R   0.499913 0.260371 0.503328 0.857456
C4    C     C_R   0.577895 0.484086 0.297138 0.870494
C5    C     C_R   0.801516 0.480645 0.008646 -0.251498
H1    H     H_    0.911167 0.484292 0.958167 0.134836
C6    C     C_R   0.624701 0.456193 0.180726 -0.088099
C7    C     C_R   0.232268 0.544114 0.882075 -0.189250
C8    C     C_R   0.192568 0.556541 0.993932 -0.168696
C9    C     C_R   0.294630 0.540404 0.045499 -0.199744
C10   C     C_R   0.439527 0.525099 0.984183 0.059745
C11   C     C_R   0.478413 0.554155 0.875337 0.075166
C12   C     C_R   0.548343 0.493430 0.028029 0.000622
C13   C     C_R   0.691958 0.513577 0.967543 0.072517
C14   C     C_R   0.723225 0.572443 0.869919 -0.251344
C15   C     C_R   0.614309 0.603280 0.828165 0.204741
C16   C     C_R   0.520750 0.442143 0.129531 0.090393
C17   C     C_R   0.769137 0.449426 0.116513 0.139637
C18   C     C_R   0.376654 0.540360 0.821030 -0.131570
H2    H     H_    0.150701 0.538998 0.844011 0.146834
C19   C     C_R   0.580536 0.933478 0.556309 -0.238809
C20   C     C_R   0.579577 0.062490 0.563023 0.173663
C21   C     C_R   0.499809 0.127786 0.507993 -0.035274
C22   C     C_R   0.417432 0.064970 0.454604 -0.239187
H3    H     H_    0.354903 0.114760 0.413549 0.156212
C23   C     C_R   0.416590 0.937053 0.451953 -0.199487
H4    H     H_    0.355977 0.889113 0.407790 0.139536
C24   C     C_R   0.498059 0.872152 0.502764 -0.033281
C25   C     C_R   0.944688 0.395701 0.467195 -0.099772
H5    H     H_    0.904355 0.311995 0.440392 0.131138
C26   C     C_R   0.088266 0.395987 0.466377 -0.137258
N1    N     N_R   0.142790 0.500030 0.500030 -0.079928
C27   C     C_R   0.051413 0.605541 0.533570 0.225028
C28   C     C_R   0.910691 0.604244 0.529496 -0.119013
H6    H     H_    0.842500 0.687177 0.550015 0.123614
N2    N     N_R   0.857180 0.499940 0.500010 -0.082173
C29   C     C_3   0.886752 0.400799 0.157366 -0.396517
C30   C     C_3   0.856052 0.271211 0.203925 -0.843269
H7    H     H_    0.760811 0.273949 0.276546 0.260081
H8    H     H_    0.839069 0.204451 0.142736 0.256985
H9    H     H_    0.948117 0.236471 0.227150 0.234052
H10   H     H_    0.987742 0.389161 0.089967 0.201938
H11   H     H_    0.905942 0.467737 0.217340 0.223323
C31   C     C_3   0.658659 0.124335 0.632616 -0.420946
C32   C     C_3   0.556207 0.188958 0.734097 -0.809625
H12   H     H_    0.490457 0.262692 0.713559 0.256976
H13   H     H_    0.483986 0.120105 0.783330 0.245342
H14   H     H_    0.617249 0.232688 0.783053 0.249779
H15   H     H_    0.723260 0.053807 0.658986 0.187708
H16   H     H_    0.737081 0.190564 0.586666 0.228494
H17   H     H_    0.155002 0.312553 0.438967 0.142518
C33   C     C_3   0.089040 0.728190 0.577848 -0.373477
C34   C     C_3   0.110187 0.717251 0.687973 -0.771862
H18   H     H_    0.064334 0.630094 0.725604 0.232118
H19   H     H_    0.223686 0.720004 0.682049 0.268402
H20   H     H_    0.055534 0.797267 0.742565 0.217126
H21   H     H_    0.174842 0.773960 0.517833 0.217843
H22   H     H_    0.000870 0.798954 0.590544 0.147333
H23   H     H_    0.829290 0.604881 0.832007 0.142526
C35   C     C_3   0.401860 0.349814 0.171190 -0.398937
C36   C     C_3   0.458224 0.224471 0.196721 -0.869177
H24   H     H_    0.542602 0.184334 0.124774 0.266374
H25   H     H_    0.502281 0.235992 0.264319 0.248143
H26   H     H_    0.370311 0.157892 0.220126 0.237152
H27   H     H_    0.317633 0.389109 0.243258 0.221491
H28   H     H_    0.350508 0.327197 0.109191 0.214379
H29   H     H_    0.260083 0.543306 0.132544 0.137862
H30   H     H_    0.082477 0.573752 0.040671 0.135788
C37   C     C_3   0.629018 0.721396 0.766007 -0.402718
C38   C     C_3   0.567183 0.833540 0.842842 -0.904498
H31   H     H_    0.451153 0.824078 0.882115 0.269864
H32   H     H_    0.620396 0.841627 0.905664 0.269361
H33   H     H_    0.584236 0.920295 0.797360 0.255754
H34   H     H_    0.742565 0.738582 0.724218 0.195703
H35   H     H_    0.572816 0.716389 0.705642 0.217050
H36   H     H_    0.644140 0.880604 0.594327 0.139530

loop_
_geom_bond_atom_site_label_1
_geom_bond_atom_site_label_2
_geom_bond_distance
_ccdc_geom_bond_type
C32   H12   1.105940 S    
C34   H19   1.105101 S    
C17   C29   1.518274 S    
C11   C18   1.414033 A    
C26   N1    1.367484 A    
C8    C9    1.393912 A    
C26   H17   1.081247 S    
C25   C26   1.421191 A    
C31   H16   1.106380 S    
Zn1   O7    1.934305 S    
C33   H21   1.096221 S    
C23   H4    1.082850 S    
C7    C8    1.392833 A    
C38   H33   1.105911 S    
C37   H34   1.108269 S    
O7    C4    1.300511 A    
C5    H1    1.082366 S    
C22   H3    1.082947 S    
Zn1   N1    2.024590 S    
O5    C3    1.289853 A    
C30   H9    1.110593 S    
C29   C30   1.530008 S    
C1    C24   1.415902 S    
C12   C13   1.419630 A    
C35   C36   1.529149 S    
C7    H2    1.077525 S    
C12   C16   1.402188 A    
C29   H11   1.109124 S    
C30   H8    1.111033 S    
C34   H20   1.111329 S    
C19   H36   1.080528 S    
C10   C11   1.401273 A    
C4    C6    1.465386 S    
O3    Zn1   1.961741 S    
C20   C31   1.522635 S    
C28   N2    1.342636 A    
C31   H15   1.111607 S    
C10   C12   1.413692 A    
C6    C16   1.404321 A    
C13   C14   1.391605 A    
O3    C2    1.305269 A    
C25   H5    1.081092 S    
C36   H25   1.108808 S    
C14   C15   1.394686 A    
C37   C38   1.526840 S    
O1    C1    1.292067 A    
C8    H30   1.078920 S    
C27   C28   1.414207 A    
C3    C21   1.421742 S    
C33   C34   1.529196 S    
O4    Zn2   1.934304 S    
C19   C20   1.379886 A    
Zn2   O8    1.961742 S    
C21   C22   1.400688 A    
C7    C18   1.401966 A    
C16   C35   1.530091 S    
C25   N2    1.369653 A    
C9    H29   1.081038 S    
C38   H32   1.111122 S    
C30   H7    1.108195 S    
O8    C4    1.298898 A    
C32   H13   1.110107 S    
C35   H28   1.109530 S    
C14   H23   1.081965 S    
N1    C27   1.401308 A    
C37   H35   1.102497 S    
C28   H6    1.078118 S    
Zn1   O5    1.989363 S    
C31   C32   1.528758 S    
C5    C13   1.400298 A    
O1    Zn1   2.004932 S    
C6    C17   1.413188 A    
O2    Zn2   1.989364 S    
C38   H31   1.111036 S    
O6    C3    1.288336 A    
C36   H26   1.110409 S    
C29   H10   1.108210 S    
C15   C37   1.509672 S    
C19   C24   1.395295 A    
C33   H22   1.112979 S    
C20   C21   1.415221 A    
C23   C24   1.387042 A    
O2    C1    1.284181 A    
C36   H24   1.111053 S    
C5    C17   1.399444 A    
O4    C2    1.298219 A    
C22   C23   1.368130 A    
Zn2   N2    2.024451 S    
C34   H18   1.106656 S    
C2    C18   1.475351 S    
C9    C10   1.411191 A    
Zn2   O6    2.004935 S    
C11   C15   1.414225 A    
C32   H14   1.111018 S    
C35   H27   1.108223 S    
C27   C33   1.518485 S    
