data_mof_unit_60956.cif
_audit_creation_date              2012-12-10T18:04:35-0500
_audit_creation_method            fapswitch 2.2
_symmetry_space_group_name_H-M    P1
_symmetry_Int_Tables_number       1
_space_group_crystal_system       triclinic
_cell_length_a                    10.840912
_cell_length_b                    9.53659
_cell_length_c                    15.988244
_cell_angle_alpha                 90.00108
_cell_angle_beta                  90.473808
_cell_angle_gamma                 89.869992
_cell_volume                      1652.88915645

loop_
_atom_site_label
_atom_site_type_symbol
_atom_type_description
_atom_site_fract_x
_atom_site_fract_y
_atom_site_fract_z
_atom_type_partial_charge
C1    C     C_R   0.871647 0.499809 0.499982 -0.507944
C2    C     C_R   0.499922 0.372598 0.956327 0.542832
C3    C     C_R   0.500136 0.499996 0.912625 -0.371073
C4    C     C_R   0.499864 0.500004 0.087374 -0.371073
C5    C     C_1   0.500206 0.499992 0.823005 0.271701
C6    C     C_1   0.499794 0.500008 0.176995 0.271701
C7    C     C_1   0.499787 0.500006 0.252090 -0.029533
C8    C     C_1   0.500213 0.499994 0.747910 -0.029532
C9    C     C_R   0.425130 0.074523 0.446503 0.565213
C10   C     C_R   0.574870 0.925477 0.553497 0.565213
C11   C     C_R   0.574685 0.074075 0.553606 0.579825
C12   C     C_R   0.128353 0.500191 0.500018 -0.507943
C13   C     C_R   0.425315 0.925925 0.446394 0.579825
C14   C     C_R   0.064630 0.386083 0.534225 0.530462
C15   C     C_R   0.935370 0.613917 0.465775 0.530463
C16   C     C_R   0.936911 0.385904 0.534196 0.543021
C17   C     C_R   0.063089 0.614096 0.465804 0.543021
C18   C     C_R   0.262183 0.500113 0.499933 0.954454
C19   C     C_R   0.737816 0.499887 0.500067 0.954454
C20   C     C_R   0.499836 0.500002 0.341261 0.796605
C21   C     C_R   0.500164 0.499998 0.658739 0.796606
C22   C     C_R   0.500215 0.627398 0.956329 0.537292
C23   C     C_R   0.499785 0.372602 0.043671 0.537292
C24   C     C_R   0.500078 0.627402 0.043673 0.542832
Cu1   Cu    Cu3+1 0.500000 0.640660 0.500000 1.157976
Cu2   Cu    Cu3+1 0.500000 0.359340 0.500000 1.157976
F1    F     F_    0.349507 0.144283 0.392843 -0.535473
F2    F     F_    0.874384 0.723765 0.430346 -0.544480
F3    F     F_    0.877552 0.275950 0.569622 -0.504204
F4    F     F_    0.122448 0.724050 0.430378 -0.504204
F5    F     F_    0.650493 0.855716 0.607157 -0.535473
F6    F     F_    0.649319 0.143351 0.607881 -0.502057
F7    F     F_    0.350681 0.856648 0.392119 -0.502057
F8    F     F_    0.500160 0.751257 0.085601 -0.517489
F9    F     F_    0.499840 0.248743 0.914399 -0.517489
F10   F     F_    0.500418 0.751249 0.914402 -0.520194
F11   F     F_    0.499581 0.248751 0.085598 -0.520194
F12   F     F_    0.125616 0.276235 0.569654 -0.544480
N1    N     N_R   0.500000 0.852070 0.500000 -0.362692
N2    N     N_R   0.500000 0.147930 0.500000 -0.362692
O1    O     O_R   0.319640 0.618740 0.499990 -0.514934
O2    O     O_R   0.680360 0.381260 0.500010 -0.514934
O3    O     O_R   0.680360 0.618740 0.500010 -0.500754
O4    O     O_R   0.319640 0.381260 0.499990 -0.500754
O5    O     O_R   0.499970 0.618750 0.380310 -0.524687
O6    O     O_R   0.500030 0.381250 0.619690 -0.524687
O7    O     O_R   0.500030 0.618750 0.619690 -0.543870
O8    O     O_R   0.499970 0.381250 0.380310 -0.543870

loop_
_geom_bond_atom_site_label_1
_geom_bond_atom_site_label_2
_ccdc_geom_bond_type
C12   C17   A    
C2    F9    S    
C5    C8    T    
C13   F7    S    
C6    C7    T    
C1    C15   A    
C18   O4    A    
C14   F12   S    
C22   F10   S    
Cu1   O7    S    
C20   O5    A    
C19   O2    A    
Cu2   O8    S    
C9    F1    S    
Cu1   O3    S    
C2    C3    A    
Cu1   Cu2   S    
Cu2   O4    S    
C1    C16   A    
Cu1   N1    S    
C17   F4    S    
Cu2   N2    S    
C15   F2    S    
C20   O8    A    
C19   O3    A    
C11   F6    S    
C8    C21   S    
C14   C16   A    
C11   N2    A    
C4    C24   A    
C22   C24   A    
C1    C19   S    
C13   N1    A    
C10   C11   A    
Cu2   O6    S    
C12   C18   S    
Cu1   O5    S    
Cu2   O2    S    
C4    C6    S    
C21   O6    A    
C18   O1    A    
Cu1   O1    S    
C2    C23   A    
C15   C17   A    
C4    C23   A    
C9    C13   A    
C3    C22   A    
C21   O7    A    
C16   F3    S    
C23   F11   S    
C10   F5    S    
C7    C20   S    
C9    N2    A    
C24   F8    S    
C12   C14   A    
C10   N1    A    
C3    C5    S    
