data_mof_unit_17730.cif
_audit_creation_date              2012-12-10T16:37:26-0500
_audit_creation_method            fapswitch 2.2
_symmetry_space_group_name_H-M    P1
_symmetry_Int_Tables_number       1
_space_group_crystal_system       triclinic
_cell_length_a                    16.922079
_cell_length_b                    16.758108
_cell_length_c                    16.783901
_cell_angle_alpha                 66.154448
_cell_angle_beta                  66.468923
_cell_angle_gamma                 66.350213
_cell_volume                      3824.7321934

loop_
_atom_site_label
_atom_site_type_symbol
_atom_type_description
_atom_site_fract_x
_atom_site_fract_y
_atom_site_fract_z
_atom_type_partial_charge
C1    C     C_R   0.436510 0.948463 0.695944 -0.219136
C2    C     C_R   0.409500 0.661976 0.032258 -0.275147
C3    C     C_R   0.915080 0.605847 0.353115 -0.209291
C4    C     C_R   0.043810 0.403548 0.659464 -0.282000
C5    C     C_R   0.959344 0.179390 0.438899 0.939755
C6    C     C_R   0.021154 0.823199 0.569469 0.965182
C7    C     C_R   0.178822 0.438006 0.963505 0.941894
C8    C     C_R   0.823437 0.569434 0.020597 0.898046
C9    C     C_R   0.434065 0.970844 0.178225 0.936696
C10   C     C_R   0.574249 0.997477 0.835122 0.903302
C11   C     C_R   0.561904 0.820335 0.037145 0.893224
C12   C     C_R   0.591083 0.944814 0.343528 -0.285518
C13   C     C_R   0.437802 0.179336 0.963393 0.943249
C14   C     C_R   0.039740 0.560807 0.820417 0.910099
C15   C     C_R   0.959964 0.438583 0.179923 0.919796
C16   C     C_R   0.821625 0.027574 0.566898 0.930455
C17   C     C_R   0.174058 0.984638 0.430507 0.954975
C18   C     C_R   0.492745 0.935060 0.745182 0.134639
C19   C     C_R   0.544667 0.924323 0.304370 0.123625
C20   C     C_R   0.923842 0.739287 0.522999 0.123060
C21   C     C_R   0.923320 0.292961 0.558556 0.130076
C22   C     C_R   0.741766 0.521935 0.918088 0.123674
C23   C     C_R   0.911072 0.697278 0.473773 -0.269558
C24   C     C_R   0.295227 0.560674 0.916789 0.128590
C25   C     C_R   0.267070 0.035914 0.520482 0.143998
C26   C     C_R   0.696780 0.059103 0.460546 0.110314
C27   C     C_R   0.558307 0.307814 0.895065 0.113162
C28   C     C_R   0.450135 0.698449 0.062269 0.129358
C29   C     C_R   0.905463 0.561294 0.304048 0.126350
C30   C     C_R   0.070334 0.445073 0.698584 0.124385
C31   C     C_R   0.550475 0.989462 0.556399 0.027060
C32   C     C_R   0.453531 0.980664 0.459902 0.030633
C33   C     C_R   0.984655 0.550246 0.560273 0.028386
C34   C     C_R   0.952495 0.330629 0.598617 -0.282747
C35   C     C_R   0.949527 0.464122 0.468890 0.018907
C36   C     C_R   0.554447 0.562844 0.973483 0.026884
C37   C     C_R   0.467321 0.473436 0.937412 0.024551
C38   C     C_R   0.587988 0.996866 0.463284 0.046040
C39   C     C_R   0.411098 0.988440 0.548614 0.026343
C40   C     C_R   0.999156 0.455318 0.591652 0.050449
C41   C     C_R   0.938283 0.558581 0.435153 0.024998
C42   C     C_R   0.460722 0.595693 0.986034 0.052313
C43   C     C_R   0.561080 0.439431 0.924476 0.048019
C44   C     C_R   0.545116 0.975963 0.420307 0.050976
C45   C     C_R   0.699755 0.473308 0.904428 -0.208923
C46   C     C_R   0.464301 0.976963 0.601064 0.023889
C47   C     C_R   0.419963 0.557323 0.957010 0.049902
C48   C     C_R   0.605928 0.489653 0.935097 0.026116
C49   C     C_R   0.970518 0.414832 0.552417 0.051166
C50   C     C_R   0.946217 0.602881 0.487249 0.045977
C51   C     C_R   0.568624 0.970312 0.700450 0.043390
C52   C     C_R   0.448687 0.955983 0.327877 0.072392
C53   C     C_R   0.983406 0.688881 0.578285 0.061014
C54   C     C_R   0.932075 0.328256 0.463645 0.069405
C55   C     C_R   0.691724 0.578373 0.977252 0.031882
C56   C     C_R   0.335960 0.603172 0.939867 -0.277161
C57   C     C_R   0.328660 0.465018 0.930462 0.076085
C58   C     C_R   0.309431 0.004114 0.441808 0.038693
C59   C     C_R   0.675966 0.026763 0.557303 0.060043
C60   C     C_R   0.462536 0.334761 0.923231 0.075897
C61   C     C_R   0.545181 0.676039 0.038030 0.066377
C62   C     C_R   0.925789 0.464384 0.332822 0.048387
C63   C     C_R   0.045648 0.541311 0.675735 0.081010
C64   C     C_R   0.616632 0.980380 0.746794 -0.216327
C65   C     C_R   0.395120 0.971081 0.271675 -0.187468
C66   C     C_R   0.022313 0.728729 0.609205 -0.180868
C67   C     C_R   0.317185 0.016601 0.578244 -0.226087
C68   C     C_R   0.930611 0.279457 0.411521 -0.192280
C69   C     C_R   0.730317 0.609335 0.018280 -0.188093
C70   C     C_R   0.276024 0.407266 0.948401 -0.181531
C71   C     C_R   0.262395 0.998683 0.391256 -0.183460
C72   C     C_R   0.730416 0.019201 0.608942 -0.178867
C73   C     C_R   0.406144 0.278052 0.947062 -0.198808
C74   C     C_R   0.591128 0.721086 0.053917 -0.164160
C75   C     C_R   0.929506 0.411723 0.280899 -0.215855
C76   C     C_R   0.059789 0.588695 0.721063 -0.181302
C77   C     C_R   0.703656 0.985011 0.703958 -0.128007
C78   C     C_R   0.660545 0.033780 0.415244 -0.296885
C79   C     C_R   0.301173 0.003312 0.301439 -0.146056
C80   C     C_R   0.066945 0.675568 0.676004 -0.121206
C81   C     C_R   0.917084 0.325375 0.325601 -0.095713
C82   C     C_R   0.676687 0.676561 0.062172 -0.100405
C83   C     C_R   0.313446 0.314046 0.972364 -0.149694
C84   C     C_R   0.598758 0.995114 0.604777 0.005544
C85   C     C_R   0.403887 0.979884 0.409928 0.009135
C86   C     C_R   0.005693 0.593234 0.603895 -0.007075
C87   C     C_R   0.936687 0.418710 0.421185 0.016116
C88   C     C_R   0.597002 0.604879 0.997247 0.004585
C89   C     C_R   0.605922 0.358476 0.898443 -0.270402
C90   C     C_R   0.419597 0.424140 0.930845 0.000750
C91   C     C_2   0.767948 0.939213 0.760209 0.991466
C92   C     C_2   0.237867 0.053688 0.243018 0.989277
C93   C     C_2   0.123965 0.707331 0.698121 0.962988
C94   C     C_2   0.878259 0.288647 0.287134 0.962695
C95   C     C_2   0.705514 0.700904 0.120043 0.945226
C96   C     C_2   0.256332 0.257016 0.046039 0.978755
H1    H     H_    0.376376 0.925981 0.731583 0.147223
H2    H     H_    0.336744 0.681375 0.051452 0.145777
H3    H     H_    0.902346 0.678839 0.325868 0.141455
H4    H     H_    0.063521 0.329902 0.678881 0.147165
H5    H     H_    0.836038 0.951199 0.827828 0.333539
H6    H     H_    0.122694 0.155139 0.231762 0.364521
H7    H     H_    0.130137 0.782988 0.762234 0.312275
H8    H     H_    0.899009 0.210660 0.211307 0.317085
H9    H     H_    0.772819 0.772923 0.126626 0.313103
H10   H     H_    0.174485 0.180400 0.079600 0.344569
H11   H     H_    0.423806 0.903122 0.879414 0.214158
H12   H     H_    0.663856 0.927367 0.319726 0.141621
H13   H     H_    0.537178 0.847729 0.856846 0.191935
H14   H     H_    0.646627 0.888365 0.198450 0.191145
H15   H     H_    0.625396 0.800895 0.291190 0.219295
H16   H     H_    0.873197 0.870869 0.457627 0.202054
H17   H     H_    0.800913 0.827352 0.554350 0.185094
H18   H     H_    0.908281 0.177157 0.660109 0.195960
H19   H     H_    0.813180 0.264017 0.658042 0.172441
H20   H     H_    0.875965 0.462310 0.877976 0.223090
H21   H     H_    0.847256 0.579007 0.854871 0.205290
H22   H     H_    0.178925 0.659938 0.906043 0.190936
H23   H     H_    0.867450 0.738956 0.430389 0.138872
H24   H     H_    0.260755 0.658060 0.807502 0.204890
H25   H     H_    0.134625 0.077461 0.589282 0.202742
H26   H     H_    0.159402 0.132445 0.474556 0.222584
H27   H     H_    0.795749 0.104715 0.354807 0.192799
H28   H     H_    0.699402 0.186212 0.380271 0.221476
H29   H     H_    0.642686 0.263191 0.786673 0.181750
H30   H     H_    0.656568 0.189737 0.887694 0.201033
H31   H     H_    0.345934 0.804359 0.096489 0.198218
H32   H     H_    0.360277 0.708512 0.183499 0.189376
H33   H     H_    0.830758 0.581877 0.222471 0.226382
H34   H     H_    0.950587 0.298837 0.669545 0.137781
H35   H     H_    0.900785 0.649957 0.179148 0.205504
H36   H     H_    0.099347 0.340852 0.807712 0.194430
H37   H     H_    0.188644 0.353522 0.715550 0.188679
H38   H     H_    0.741406 0.428950 0.861868 0.144235
H39   H     H_    0.305414 0.674624 0.936022 0.141263
H40   H     H_    0.283300 0.036819 0.640098 0.147217
H41   H     H_    0.682049 0.052996 0.341686 0.152047
H42   H     H_    0.678281 0.331993 0.881458 0.134522
N1    N     N_3   0.480022 0.871842 0.834669 -0.446550
N2    N     N_3   0.394283 0.750242 0.125476 -0.410722
N3    N     N_3   0.857581 0.618513 0.237543 -0.437195
N4    N     N_3   0.129694 0.388935 0.754535 -0.421348
N5    N     N_3   0.594983 0.862799 0.250118 -0.404070
N6    N     N_3   0.867642 0.829527 0.524740 -0.423976
N7    N     N_3   0.871449 0.230080 0.617066 -0.410843
N8    N     N_3   0.829698 0.524700 0.857697 -0.443797
N9    N     N_3   0.229418 0.616837 0.868349 -0.409653
N10   N     N_3   0.181931 0.104791 0.532377 -0.443259
N11   N     N_3   0.744122 0.126641 0.408619 -0.408813
N12   N     N_3   0.608315 0.235477 0.853786 -0.404969
O1    O     O_R   0.982940 0.138950 0.510160 -0.642761
O2    O     O_R   0.982940 0.510160 0.138950 -0.643854
O3    O     O_R   0.861050 0.017060 0.489840 -0.635763
O4    O     O_R   0.138950 0.982940 0.510160 -0.654880
O5    O     O_R   0.867700 0.025880 0.612340 -0.605798
O6    O     O_R   0.132300 0.974120 0.387660 -0.596101
O7    O     O_R   0.025880 0.612340 0.867700 -0.580319
O8    O     O_R   0.974120 0.387660 0.132300 -0.575331
O9    O     O_R   0.612340 0.867700 0.025880 -0.600220
O10   O     O_R   0.387660 0.132300 0.974120 -0.585869
O11   O     O_R   0.387660 0.974120 0.132300 -0.587057
O12   O     O_R   0.017060 0.861050 0.489840 -0.626180
O13   O     O_R   0.612340 0.025880 0.867700 -0.584254
O14   O     O_R   0.132300 0.387660 0.974120 -0.597191
O15   O     O_R   0.867700 0.612340 0.025880 -0.594388
O16   O     O_R   0.974120 0.132300 0.387660 -0.596109
O17   O     O_R   0.025880 0.867700 0.612340 -0.589379
O18   O     O_2   0.797794 0.856244 0.781503 -0.633276
O19   O     O_R   0.792552 0.990511 0.789854 -0.769408
O20   O     O_2   0.226736 0.016357 0.200581 -0.609784
O21   O     O_R   0.174559 0.135058 0.257856 -0.768263
O22   O     O_2   0.205521 0.684586 0.665445 -0.644799
O23   O     O_R   0.138950 0.510160 0.982940 -0.620655
O24   O     O_R   0.084604 0.762765 0.755741 -0.758207
O25   O     O_2   0.796791 0.312344 0.300739 -0.646156
O26   O     O_R   0.934100 0.229817 0.233784 -0.778837
O27   O     O_2   0.673524 0.677332 0.202426 -0.649031
O28   O     O_R   0.763031 0.756242 0.080298 -0.761760
O29   O     O_2   0.239105 0.256568 0.123992 -0.609711
O30   O     O_R   0.217285 0.211283 0.024926 -0.753570
O31   O     O_R   0.861050 0.489840 0.017060 -0.644946
O32   O     O_R   0.510160 0.982940 0.138950 -0.626357
O33   O     O_R   0.489840 0.017060 0.861050 -0.637380
O34   O     O_R   0.489840 0.861050 0.017060 -0.658605
O35   O     O_R   0.510160 0.138950 0.982940 -0.619013
O36   O     O_R   0.017060 0.489840 0.861050 -0.652256
Zn1   Zn    Zn3+2 0.004880 0.004880 0.583590 0.969747
Zn2   Zn    Zn3+2 0.995120 0.995120 0.416410 0.986837
Zn3   Zn    Zn3+2 0.004880 0.583590 0.004880 0.992949
Zn4   Zn    Zn3+2 0.995120 0.416410 0.995120 0.979585
Zn5   Zn    Zn3+2 0.583590 0.004880 0.004880 0.986461
Zn6   Zn    Zn3+2 0.416410 0.995120 0.995120 0.989959

loop_
_geom_bond_atom_site_label_1
_geom_bond_atom_site_label_2
_ccdc_geom_bond_type
C8    O31   A    
C15   C75   S    
H28   N11   S    
H27   N11   S    
C93   O22   D    
O36   Zn4   S    
C10   O13   A    
C65   C79   A    
C64   C77   A    
C20   N6    S    
C36   C42   A    
C16   C72   S    
H9    O28   S    
O33   Zn6   S    
C7    C70   S    
C71   C79   A    
C11   O9    A    
O2    Zn3   S    
H8    O26   S    
C36   C88   A    
C2    H2    S    
O1    Zn1   S    
C45   H38   S    
C26   C78   A    
C37   C90   A    
O16   Zn2   S    
C68   C81   A    
C52   C85   A    
C51   C64   A    
C27   C60   A    
C5    C68   S    
C23   H23   S    
C54   C87   A    
C14   O36   A    
C58   C71   A    
H33   N3    S    
C63   C76   A    
C83   C96   S    
C92   O21   S    
C40   C49   A    
C60   C73   A    
H22   N9    S    
C32   C39   A    
C55   C88   A    
C3    C29   A    
C1    C18   A    
C69   C82   A    
C6    O17   A    
C35   C87   A    
C19   C52   A    
C95   O27   D    
C77   C91   S    
C6    O12   A    
C92   O20   D    
C24   C57   A    
C31   C46   A    
C28   N2    S    
C35   C49   A    
O15   Zn3   S    
O34   Zn6   S    
H5    O19   S    
C53   C86   A    
C9    O32   A    
H26   N10   S    
C57   C70   A    
C37   C47   A    
C43   C48   A    
C13   O10   A    
H35   N3    S    
H15   N5    S    
C59   C72   A    
C28   C61   A    
C29   N3    S    
C30   C63   A    
C10   O33   A    
C18   N1    S    
C74   C82   A    
O11   Zn6   S    
O14   Zn4   S    
C17   O4    A    
H10   O30   S    
C15   O2    A    
C18   C51   A    
O35   Zn5   S    
C36   C48   A    
C9    C65   S    
O6    Zn2   S    
H36   N4    S    
C33   C40   A    
C13   O35   A    
C57   C90   A    
C91   O19   S    
C14   O7    A    
C4    C40   A    
C91   O18   D    
C59   C84   A    
O10   Zn6   S    
C15   O8    A    
C8    O15   A    
C1    H1    S    
C12   H12   S    
C8    C69   S    
C75   C81   A    
C23   C50   A    
C21   C34   A    
C38   C78   A    
C33   C50   A    
C11   C74   S    
H7    O24   S    
C31   C84   A    
H21   N8    S    
C21   N7    S    
C37   C43   A    
C33   C86   A    
C38   C44   A    
C72   C77   A    
C70   C83   A    
C61   C88   A    
O9    Zn5   S    
O31   Zn4   S    
C95   O28   S    
C20   C23   A    
O17   Zn1   S    
C16   O5    A    
H37   N4    S    
H25   N10   S    
C78   H41   S    
C43   C89   A    
C5    O16   A    
C96   O30   S    
C9    O11   A    
C53   C66   A    
C34   H34   S    
C79   C92   S    
C55   C69   A    
H24   N9    S    
C39   C46   A    
C13   C73   S    
C17   C71   S    
C27   N12   S    
C4    H4    S    
C63   C86   A    
C93   O24   S    
C62   C75   A    
H31   N2    S    
C58   C85   A    
C41   C50   A    
C56   H39   S    
C25   C58   A    
O4    Zn1   S    
C45   C48   A    
H6    O21   S    
H19   N7    S    
C29   C62   A    
C3    C41   A    
C34   C49   A    
C19   N5    S    
C82   C95   S    
C39   C67   A    
C26   N11   S    
C10   C64   S    
C11   O34   A    
C76   C80   A    
H18   N7    S    
C20   C53   A    
C24   N9    S    
C5    O1    A    
C2    C28   A    
H17   N6    S    
C22   C55   A    
O3    Zn2   S    
C60   C90   A    
C61   C74   A    
C24   C56   A    
C66   C80   A    
C62   C87   A    
C94   O25   D    
C30   N4    S    
C31   C38   A    
H13   N1    S    
H16   N6    S    
O8    Zn4   S    
C67   H40   S    
H32   N2    S    
C12   C44   A    
O5    Zn1   S    
H20   N8    S    
C81   C94   S    
H30   N12   S    
C21   C54   A    
C2    C42   A    
C32   C85   A    
C7    O23   A    
C12   C19   A    
O23   Zn3   S    
C27   C89   A    
C25   N10   S    
C42   C47   A    
C96   O29   D    
H11   N1    S    
H14   N5    S    
C35   C41   A    
O7    Zn3   S    
H29   N12   S    
C22   N8    S    
C3    H3    S    
C6    C66   S    
C22   C45   A    
C54   C68   A    
C32   C44   A    
C25   C67   A    
C89   H42   S    
O32   Zn5   S    
C94   O26   S    
C16   O3    A    
C26   C59   A    
O13   Zn5   S    
C7    O14   A    
C1    C46   A    
C80   C93   S    
C17   O6    A    
C51   C84   A    
C73   C83   A    
C4    C30   A    
C52   C65   A    
C14   C76   S    
C47   C56   A    
O12   Zn2   S    
