data_mof_unit_42018.cif
_audit_creation_date              2012-12-10T20:44:46-0500
_audit_creation_method            fapswitch 2.2
_symmetry_space_group_name_H-M    P1
_symmetry_Int_Tables_number       1
_space_group_crystal_system       triclinic
_cell_length_a                    9.869796
_cell_length_b                    10.664715
_cell_length_c                    16.735982
_cell_angle_alpha                 89.166068
_cell_angle_beta                  94.958888
_cell_angle_gamma                 89.972613
_cell_volume                      1754.8231084

loop_
_atom_site_label
_atom_site_type_symbol
_atom_type_description
_atom_site_fract_x
_atom_site_fract_y
_atom_site_fract_z
_atom_type_partial_charge
C1    C     C_R   0.500427 0.259916 0.502319 0.866199
C2    C     C_R   0.503474 0.128283 0.515231 -0.107739
C3    C     C_R   0.386295 0.064194 0.534463 -0.229095
C4    C     C_R   0.518133 0.496492 0.653348 0.851991
C5    C     C_R   0.386302 0.934480 0.534562 -0.229187
C6    C     C_R   0.503588 0.871052 0.515620 -0.102828
C7    C     C_R   0.625393 0.935808 0.511954 0.136438
C8    C     C_3   0.727995 0.929727 0.451374 -0.503414
C9    C     C_3   0.727274 0.071857 0.450647 -0.465418
C10   C     C_R   0.077735 0.407974 0.539830 0.130170
C11   C     C_R   0.065100 0.583085 0.453994 -0.128675
C12   C     C_R   0.634463 0.534423 0.787259 -0.230334
C13   C     C_R   0.921132 0.582840 0.453775 -0.144880
C14   C     C_R   0.935409 0.409026 0.541413 0.144781
C15   C     C_3   0.951374 0.378207 0.630766 0.378695
C16   C     C_R   0.500429 0.739965 0.502611 0.877311
C17   C     C_3   0.105065 0.373953 0.625971 -0.590194
C18   C     C_R   0.481962 0.496411 0.346611 0.885895
C19   C     C_R   0.529624 0.477714 0.739250 -0.015987
C20   C     C_R   0.436829 0.398411 0.773299 -0.243300
C21   C     C_R   0.445119 0.380046 0.855509 -0.162808
C22   C     C_R   0.546645 0.441620 0.904283 0.322548
C23   C     C_R   0.552318 0.376328 0.144744 -0.233443
C24   C     C_R   0.643610 0.515249 0.869760 -0.202836
C25   C     C_3   0.808150 0.416810 0.267998 -0.733475
C26   C     C_3   0.932212 0.607215 0.665758 -0.785263
C27   C     C_3   0.773695 0.240833 0.686666 -0.720051
C28   C     C_R   0.569032 0.400418 0.226317 0.176324
C29   C     C_R   0.440768 0.426610 0.097193 0.292926
C30   C     C_R   0.469846 0.472515 0.261011 -0.076590
C31   C     C_R   0.353304 0.514002 0.214157 -0.275267
C32   C     C_R   0.338958 0.490881 0.132457 -0.188870
C33   C     C_R   0.625216 0.063648 0.511546 0.133392
H1    H     H_    0.292922 0.885101 0.543861 0.170124
H2    H     H_    0.150730 0.278735 0.633839 0.177309
H3    H     H_    0.722458 0.562122 0.907193 0.140914
H4    H     H_    0.706138 0.596072 0.761274 0.169774
H5    H     H_    0.274992 0.566869 0.240428 0.166004
H6    H     H_    0.371497 0.319584 0.881072 0.148039
H7    H     H_    0.251874 0.528262 0.095925 0.145613
H8    H     H_    0.358584 0.350151 0.736326 0.151988
H9    H     H_    0.292949 0.113271 0.543798 0.166406
H10   H     H_    0.695516 0.253662 0.263561 0.207950
H11   H     H_    0.842785 0.409555 0.206782 0.218160
H12   H     H_    0.826070 0.888702 0.477131 0.201296
H13   H     H_    0.888029 0.377001 0.311950 0.234153
H14   H     H_    0.793975 0.517220 0.282046 0.248103
H15   H     H_    0.941012 0.454437 0.744364 0.226508
H16   H     H_    0.925440 0.664437 0.720180 0.211904
H17   H     H_    0.851654 0.641093 0.620408 0.274681
H18   H     H_    0.033592 0.623726 0.643803 0.233974
H19   H     H_    0.916630 0.185159 0.609132 0.202055
H20   H     H_    0.756906 0.140588 0.701644 0.217808
H21   H     H_    0.688088 0.272639 0.644596 0.255762
H22   H     H_    0.775772 0.293939 0.743225 0.246064
H23   H     H_    0.686272 0.888779 0.393649 0.199197
H24   H     H_    0.825147 0.113012 0.475442 0.195630
H25   H     H_    0.684464 0.113691 0.392631 0.202060
H26   H     H_    0.114079 0.651970 0.418195 0.142417
H27   H     H_    0.861519 0.651373 0.417727 0.143284
H28   H     H_    0.162538 0.446989 0.661094 0.221753
H29   H     H_    0.628925 0.322167 0.117799 0.150131
N1    N     N_2   0.549864 0.437062 0.988321 -0.202879
N2    N     N_2   0.435242 0.423622 0.013107 -0.200483
N3    N     N_R   0.142860 0.499130 0.500540 -0.090663
N4    N     N_R   0.857210 0.499170 0.500530 -0.103448
N5    N     N_2   0.682798 0.348059 0.273340 -0.291585
N6    N     N_2   0.911184 0.475613 0.685087 -0.263442
N7    N     N_2   0.900981 0.253513 0.650393 -0.318916
O1    O     O_R   0.614690 0.316790 0.499990 -0.615468
O2    O     O_R   0.385350 0.316760 0.500000 -0.615798
O3    O     O_R   0.627460 0.498860 0.616130 -0.600774
O4    O     O_R   0.398120 0.498820 0.616130 -0.621349
O5    O     O_R   0.614650 0.683240 0.500000 -0.627274
O6    O     O_R   0.385310 0.683210 0.500010 -0.623756
O7    O     O_R   0.601880 0.501180 0.383870 -0.586937
O8    O     O_R   0.372540 0.501140 0.383870 -0.619976
Zn1   Zn    Zn3+2 0.653130 0.500020 0.499990 0.948712
Zn2   Zn    Zn3+2 0.346870 0.499980 0.500010 0.937957

loop_
_geom_bond_atom_site_label_1
_geom_bond_atom_site_label_2
_ccdc_geom_bond_type
C3    H9    S    
N3    Zn2   S    
O1    Zn1   S    
C16   O6    A    
C19   C20   A    
C25   N5    S    
C8    H23   S    
O2    Zn2   S    
C20   H8    S    
C27   H21   S    
C7    C8    S    
C13   H27   S    
C24   H3    S    
C16   O5    A    
C23   C29   A    
O7    Zn1   S    
C9    H25   S    
C29   C32   A    
C26   H17   S    
C30   C31   A    
C27   H22   S    
C10   C17   S    
C1    C2    S    
C12   H4    S    
C8    H12   S    
O3    Zn1   S    
H19   N7    S    
C17   H28   S    
C22   N1    S    
C4    C19   S    
C23   H29   S    
C8    C9    S    
C18   C30   S    
C25   H14   S    
C27   N7    S    
C29   N2    S    
C21   C22   A    
C9    C33   S    
C7    C33   A    
N4    Zn1   S    
C25   H11   S    
C13   N4    A    
O8    Zn2   S    
C14   N4    A    
C15   N7    S    
C28   N5    S    
C10   C14   A    
C26   H16   S    
C31   C32   A    
C21   H6    S    
C5    H1    S    
O4    Zn2   S    
C1    O2    A    
C23   C28   A    
H15   N6    S    
C4    O4    A    
C2    C33   A    
C22   C24   A    
C4    O3    A    
C10   N3    A    
C15   C17   S    
C18   O7    A    
C11   H26   S    
C3    C5    A    
C27   H20   S    
C6    C7    A    
C12   C24   A    
C1    O1    A    
C31   H5    S    
C26   N6    S    
C28   C30   A    
C2    C3    A    
C26   H18   S    
C11   C13   A    
C5    C6    A    
C18   O8    A    
C15   N6    S    
C12   C19   A    
C9    H24   S    
C32   H7    S    
C6    C16   S    
N1    N2    D    
C20   C21   A    
H10   N5    S    
O5    Zn1   S    
C14   C15   S    
C17   H2    S    
O6    Zn2   S    
C25   H13   S    
C11   N3    A    
