data_mof_unit_38205.cif
_audit_creation_date              2012-12-11T14:52:22-0500
_audit_creation_method            fapswitch 2.2
_symmetry_space_group_name_H-M    P1
_symmetry_Int_Tables_number       1
_space_group_crystal_system       triclinic
_cell_length_a                    8.215628
_cell_length_b                    15.13256
_cell_length_c                    26.92541
_cell_angle_alpha                 97.084436
_cell_angle_beta                  92.453063
_cell_angle_gamma                 80.743703
_cell_volume                      3277.74777476

loop_
_atom_site_label
_atom_site_type_symbol
_atom_type_description
_atom_site_fract_x
_atom_site_fract_y
_atom_site_fract_z
_atom_type_partial_charge
Ba1   Ba    Ba6+2 0.860900 0.457020 0.523210 1.639807
Ba2   Ba    Ba6+2 0.328940 0.542910 0.476780 1.644094
C1    C     C_3   0.651031 0.148404 0.660932 -0.385086
C2    C     C_R   0.880279 0.580764 0.178160 0.575630
C3    C     C_2   0.737443 0.530094 0.270823 -0.088617
C4    C     C_3   0.184897 0.262763 0.658250 0.296878
C5    C     C_3   0.693577 0.521369 0.324027 -0.074432
C6    C     C_1   0.985070 0.483448 0.342964 0.049071
C7    C     C_2   0.026414 0.481571 0.295411 -0.105834
C8    C     C_2   0.896565 0.507773 0.256171 0.197911
C9    C     C_R   0.018794 0.505286 0.102136 -0.078208
C10   C     C_R   0.078470 0.431064 0.128363 -0.030187
C11   C     C_R   0.177525 0.356108 0.103185 -0.075326
C12   C     C_3   0.673685 0.233168 0.639084 0.342244
C13   C     C_R   0.917861 0.580258 0.127243 -0.031026
C14   C     C_2   0.840839 0.525760 0.358985 -0.258662
C15   C     C_2   0.360114 0.485027 0.640743 -0.271182
C16   C     C_3   0.163132 0.242889 0.711354 -0.348407
C17   C     C_R   0.210959 0.430040 0.975584 0.019662
C18   C     C_R   0.028820 0.576107 0.972499 0.020067
C19   C     C_R   0.140323 0.502756 0.948670 0.049185
C20   C     C_R   0.326259 0.360721 0.950653 -0.101120
C21   C     C_R   0.366308 0.361346 0.900889 -0.061722
C22   C     C_R   0.294450 0.431200 0.873472 -0.032136
C23   C     C_3   0.474801 0.685617 0.630105 0.275952
C24   C     C_R   0.181753 0.502211 0.897357 -0.078492
C25   C     C_R   0.110836 0.572887 0.869971 -0.028771
C26   C     C_R   0.154718 0.572321 0.819585 0.587592
C27   C     C_R   0.333671 0.431445 0.822702 0.578235
C28   C     C_3   0.226622 0.267459 0.415853 0.310596
C29   C     C_2   0.465832 0.488889 0.729449 -0.069662
C30   C     C_3   0.507852 0.492791 0.675335 -0.048383
C31   C     C_1   0.212739 0.520927 0.656831 0.012115
C32   C     C_2   0.173610 0.518973 0.704097 -0.141043
C33   C     C_2   0.306216 0.501995 0.743697 0.211220
C34   C     C_3   0.445039 0.721375 0.684902 -0.401423
C35   C     C_R   0.165409 0.429243 0.026290 0.021701
C36   C     C_R   0.059183 0.504331 0.050698 0.048800
C37   C     C_R   0.992607 0.578397 0.024236 0.019667
C38   C     C_R   0.221006 0.355263 0.053594 -0.103023
C39   C     C_R   0.856598 0.653663 0.101036 -0.062142
C40   C     C_3   0.257775 0.165799 0.401514 -0.384564
C41   C     C_R   0.956650 0.644715 0.943353 -0.101152
C42   C     C_R   0.997268 0.643122 0.893499 -0.063601
C43   C     C_R   0.892519 0.652839 0.050872 -0.101284
C44   C     C_R   0.758897 0.767981 0.483434 -0.257311
C45   C     C_3   0.007396 0.745061 0.342592 0.287918
C46   C     C_R   0.846925 0.827899 0.465711 0.024210
C47   C     C_R   0.787419 0.920924 0.472344 -0.139466
C48   C     C_R   0.635416 0.955034 0.496826 0.006785
C49   C     C_R   0.550095 0.891094 0.514330 -0.114874
C50   C     C_R   0.612786 0.799283 0.508026 0.033751
C51   C     C_R   0.418825 0.087929 0.531291 -0.129171
C52   C     C_3   0.913627 0.739815 0.641181 0.297284
C53   C     C_R   0.354362 0.179772 0.537453 0.009294
C54   C     C_R   0.584394 0.212529 0.494263 0.080557
C55   C     C_R   0.648514 0.120219 0.486862 -0.115716
C56   C     C_3   0.042403 0.764359 0.290395 -0.331230
C57   C     C_R   0.568496 0.055251 0.505638 0.001358
C58   C     C_R   0.439829 0.241750 0.520324 -0.286829
C59   C     C_3   0.951066 0.747458 0.697894 -0.365281
C60   C     C_3   0.652815 0.324327 0.365441 0.272979
C61   C     C_3   0.576836 0.284910 0.316055 -0.244919
C62   C     C_3   0.871500 0.834597 0.623151 -0.143828
C63   C     C_3   0.026642 0.877299 0.616438 -0.178676
C64   C     C_3   0.980586 0.977609 0.607978 -0.406063
C65   C     C_3   0.584519 0.341484 0.273247 -0.273124
C66   C     C_3   0.530903 0.294282 0.223057 -0.186544
C67   C     C_3   0.511091 0.773381 0.368242 0.356293
C68   C     C_3   0.545491 0.350813 0.180664 -0.393488
C69   C     C_3   0.510274 0.865072 0.350609 -0.374569
C70   C     C_R   0.036133 0.432541 0.179021 0.575937
H1    H     H_    0.791354 0.219870 0.618525 0.092175
H2    H     H_    0.570953 0.385295 0.381727 0.060369
H3    H     H_    0.754243 0.129869 0.687563 0.126496
H4    H     H_    0.645123 0.215952 0.305056 0.131219
H5    H     H_    0.446276 0.278712 0.322087 0.127064
H6    H     H_    0.568330 0.249660 0.612851 -0.030104
H7    H     H_    0.359344 0.665108 0.613158 0.068470
H8    H     H_    0.574824 0.626453 0.627609 0.017597
H9    H     H_    0.360568 0.786951 0.687706 0.129341
H10   H     H_    0.387539 0.673336 0.703736 0.079287
H11   H     H_    0.563933 0.731392 0.704500 0.107915
H12   H     H_    0.343651 0.148259 0.369776 0.117597
H13   H     H_    0.534359 0.159832 0.681643 0.131142
H14   H     H_    0.206433 0.296012 0.738524 0.122112
H15   H     H_    0.067835 0.675018 0.346691 0.080169
H16   H     H_    0.871488 0.750376 0.346347 -0.016608
H17   H     H_    0.176199 0.766656 0.287289 0.148982
H18   H     H_    0.007691 0.710081 0.262166 0.125787
H19   H     H_    0.970461 0.830095 0.282641 0.116489
H20   H     H_    0.628099 0.755959 0.389859 -0.054341
H21   H     H_    0.526228 0.915850 0.383333 0.075076
H22   H     H_    0.114244 0.330350 0.654076 0.092671
H23   H     H_    0.313024 0.131312 0.433555 0.066003
H24   H     H_    0.612529 0.861800 0.324445 0.127798
H25   H     H_    0.154133 0.461724 0.284782 0.125268
H26   H     H_    0.222832 0.297159 0.121910 0.114914
H27   H     H_    0.565435 0.480863 0.757125 0.103875
H28   H     H_    0.455331 0.306369 0.883924 0.120860
H29   H     H_    0.296273 0.294227 0.037452 0.066436
H30   H     H_    0.638756 0.544879 0.243510 0.109792
H31   H     H_    0.779443 0.712727 0.119316 0.120979
H32   H     H_    0.865814 0.700662 0.957662 0.067734
H33   H     H_    0.317288 0.264073 0.652551 -0.024353
H34   H     H_    0.139604 0.141270 0.390358 0.134563
H35   H     H_    0.938215 0.697750 0.873266 0.118197
H36   H     H_    0.045617 0.527650 0.714339 0.123877
H37   H     H_    0.841398 0.712919 0.034343 0.067712
H38   H     H_    0.831887 0.569943 0.394256 0.064564
H39   H     H_    0.375699 0.452892 0.602518 0.073388
H40   H     H_    0.345993 0.044390 0.545704 0.065919
H41   H     H_    0.863451 0.964440 0.459237 0.076766
H42   H     H_    0.757117 0.101013 0.464663 0.085031
H43   H     H_    0.437893 0.909888 0.534914 0.074974
H44   H     H_    0.388233 0.312619 0.524456 0.067683
H45   H     H_    0.804500 0.706384 0.633291 0.067991
H46   H     H_    0.030525 0.242015 0.717752 0.141861
H47   H     H_    0.807575 0.696708 0.480033 0.073792
H48   H     H_    0.235805 0.176381 0.717470 0.117258
H49   H     H_    0.345521 0.291065 0.425498 -0.012506
H50   H     H_    0.145010 0.283100 0.448624 0.071623
H51   H     H_    0.882183 0.987370 0.578354 0.135827
H52   H     H_    0.937792 0.017617 0.644185 0.135277
H53   H     H_    0.090729 0.003247 0.596056 0.150424
H54   H     H_    0.110044 0.872189 0.650121 0.113842
H55   H     H_    0.095944 0.839611 0.583122 0.162672
H56   H     H_    0.958108 0.680092 0.711270 0.127063
H57   H     H_    0.807801 0.827317 0.585593 0.063501
H58   H     H_    0.780856 0.880833 0.648858 0.082976
H59   H     H_    0.459165 0.415505 0.186261 0.138327
H60   H     H_    0.673423 0.365121 0.179151 0.143711
H61   H     H_    0.514868 0.313315 0.144337 0.121607
H62   H     H_    0.610397 0.227748 0.214834 0.125216
H63   H     H_    0.401100 0.283146 0.224840 0.167931
H64   H     H_    0.501645 0.406835 0.281404 0.132234
H65   H     H_    0.713848 0.352579 0.270188 0.128949
H66   H     H_    0.646657 0.092492 0.630308 0.069345
H67   H     H_    0.848995 0.794538 0.718084 0.086833
H68   H     H_    0.403913 0.778416 0.392931 0.101642
H69   H     H_    0.390827 0.886372 0.331142 0.132287
H70   H     H_    0.390679 0.305190 0.968791 0.067223
H71   H     H_    0.070694 0.772218 0.707771 0.123367
H72   H     H_    0.774862 0.342489 0.358550 0.003326
N1    N     N_R   0.939297 0.507346 0.203793 -0.423030
N2    N     N_R   0.264331 0.501733 0.796086 -0.423270
O1    O     O_2   0.905540 0.548000 0.618290 -0.492462
O2    O     O_2   0.184588 0.820515 0.469436 -0.484193
O3    O     O_3   0.071395 0.807983 0.377769 -0.604762
O4    O     O_3   0.137550 0.547930 0.558110 -0.442507
O5    O     O_3   0.574690 0.391440 0.474610 -0.495890
O6    O     O_2   0.341330 0.720570 0.525000 -0.435289
O7    O     O_3   0.521774 0.754031 0.606138 -0.659312
O8    O     O_2   0.347080 0.571043 0.327051 -0.504166
O9    O     O_3   0.499425 0.708781 0.326431 -0.590216
O10   O     O_2   0.083534 0.366418 0.200741 -0.616967
O11   O     O_2   0.428603 0.368467 0.802122 -0.595609
O12   O     O_3   0.677409 0.255391 0.396321 -0.641437
O13   O     O_2   0.795548 0.647119 0.199702 -0.603295
O14   O     O_2   0.096962 0.635730 0.796938 -0.620511
O15   O     O_3   0.688580 0.383890 0.587540 -0.486403
O16   O     O_2   0.849084 0.430324 0.672021 -0.501330
O17   O     O_3   0.050013 0.692404 0.613980 -0.626382
O18   O     O_3   0.677324 0.303410 0.678308 -0.585365
O19   O     O_2   0.848360 0.279400 0.474970 -0.448703
O20   O     O_3   0.104690 0.337720 0.562900 -0.490850
O21   O     O_2   0.015103 0.178155 0.531925 -0.485988
O22   O     O_3   0.126568 0.196181 0.624329 -0.608039
O23   O     O_2   0.284150 0.451970 0.381680 -0.486401
O24   O     O_3   0.052160 0.451990 0.441880 -0.482662
O25   O     O_3   0.501140 0.616030 0.412450 -0.480739
O26   O     O_3   0.152855 0.307724 0.374779 -0.630867
O27   O     O_3   0.615020 0.608480 0.525380 -0.472905
O28   O     O_3   0.085020 0.662210 0.437090 -0.482285
P1    P     P_3+3 0.070480 0.574800 0.610950 0.992494
P2    P     P_3+3 0.668430 0.292880 0.460530 0.988730
P3    P     P_3+3 0.149876 0.221208 0.563590 0.932946
P4    P     P_3+3 0.119230 0.425130 0.389040 0.992775
P5    P     P_3+3 0.046712 0.780075 0.437761 0.956732
P6    P     P_3+3 0.681201 0.404365 0.652988 0.974016
P7    P     P_3+3 0.526043 0.721316 0.541624 0.950848
P8    P     P_3+3 0.510168 0.602426 0.347289 0.958593

loop_
_geom_bond_atom_site_label_1
_geom_bond_atom_site_label_2
_ccdc_geom_bond_type
Ba2   O4    S    
C47   H41   S    
C19   C24   A    
Ba1   P2    S    
C70   O10   D    
C1    H13   S    
C23   H8    S    
O25   P8    S    
O3    P5    S    
O17   P1    S    
C51   C57   A    
O9    P8    S    
C14   H38   S    
O19   P2    D    
C10   C11   A    
Ba1   O27   S    
C24   C25   A    
C67   O9    S    
C54   P2    S    
C48   C57   S    
C63   H55   S    
C17   C19   A    
C22   C24   A    
C32   C33   S    
C35   C38   A    
Ba2   O27   S    
C61   H5    S    
C36   C37   A    
O1    P1    D    
C55   C57   A    
C2    O13   D    
C61   H4    S    
C34   H11   S    
O22   P3    S    
C44   C50   A    
Ba1   O24   S    
C26   O14   D    
C54   C55   A    
Ba1   Ba2   S    
C11   H26   S    
C67   C69   S    
C41   H32   S    
C11   C38   A    
C17   C35   A    
C38   H29   S    
C22   C27   A    
C9    C13   A    
C25   C42   A    
C59   H71   S    
C45   O3    S    
C34   H10   S    
C6    C7    D    
C4    H22   S    
C68   H61   S    
C60   H2    S    
C21   C22   A    
C60   O12   S    
C29   H27   S    
C52   O17   S    
C67   H20   S    
C1    H3    S    
C7    C8    S    
C16   H46   S    
C43   H37   S    
O16   P6    D    
O18   P6    S    
Ba2   O25   S    
C37   C43   A    
C67   H68   S    
O4    P1    S    
C10   C70   A    
Ba1   O15   S    
C6    C14   D    
C53   C58   A    
C53   P3    S    
C15   C31   D    
C65   C66   S    
C65   H65   S    
C15   H39   S    
Ba2   O23   S    
C48   C49   A    
C4    O22   S    
C51   C53   A    
Ba2   O6    S    
C4    C16   S    
C44   C46   A    
C23   O7    S    
C49   C50   A    
C12   H1    S    
C28   H50   S    
C17   C20   A    
C40   H12   S    
C50   P7    S    
C13   C39   A    
C27   N2    Am   
C3    C5    S    
C18   C37   A    
C59   H67   S    
C27   O11   D    
C69   H24   S    
C8    N1    S    
C49   H43   S    
C40   H23   S    
C33   N2    S    
C45   H15   S    
C62   H58   S    
C9    C36   A    
C41   C42   A    
C61   C65   S    
C35   C36   A    
C6    P4    S    
C56   H18   S    
C29   C30   S    
C28   H49   S    
Ba1   O19   S    
C34   H9    S    
C20   H70   S    
C60   C61   S    
C68   H60   S    
C31   C32   D    
Ba1   O4    S    
C1    H66   S    
C16   H14   S    
C62   H57   S    
O15   P6    S    
C40   H34   S    
C28   O26   S    
C1    C12   S    
Ba2   O24   S    
C51   H40   S    
O12   P2    S    
C46   C47   A    
O21   P3    D    
O7    P7    S    
C47   C48   A    
O2    P5    D    
O20   P3    S    
C64   H52   S    
C58   H44   S    
C16   H48   S    
O23   P4    D    
C18   C41   A    
C56   H19   S    
C42   H35   S    
O26   P4    S    
Ba2   O5    S    
C3    H30   S    
Ba1   P1    S    
C7    H25   S    
O5    P2    S    
C5    P8    S    
C23   H7    S    
C28   C40   S    
C66   H63   S    
C5    C14   S    
C60   H72   S    
C9    C10   A    
C55   H42   S    
C69   H21   S    
C52   C59   S    
C26   N2    Am   
C64   H53   S    
C69   H69   S    
C21   H28   S    
C32   H36   S    
C45   H16   S    
C2    C13   A    
C66   H62   S    
C65   H64   S    
C3    C8    D    
C63   H54   S    
C45   C56   S    
C52   C62   S    
Ba1   O20   S    
C2    N1    Am   
O8    P8    D    
C62   C63   S    
C68   H59   S    
C4    H33   S    
C44   H47   S    
Ba1   O5    S    
C59   H56   S    
C29   C33   D    
C12   H6    S    
C12   O18   S    
C31   P1    S    
C56   H17   S    
Ba1   O1    S    
C23   C34   S    
O27   P7    S    
C64   H51   S    
C39   H31   S    
C54   C58   A    
C18   C19   A    
C66   C68   S    
C63   C64   S    
C52   H45   S    
C25   C26   A    
C15   C30   S    
C39   C43   A    
C20   C21   A    
C30   P6    S    
Ba2   P4    S    
O6    P7    D    
O28   P5    S    
C46   P5    S    
Ba2   O28   S    
C70   N1    Am   
O24   P4    S    
