data_mof_unit_53686.cif
_audit_creation_date              2012-12-10T19:49:43-0500
_audit_creation_method            fapswitch 2.2
_symmetry_space_group_name_H-M    P1
_symmetry_Int_Tables_number       1
_space_group_crystal_system       triclinic
_cell_length_a                    10.89018
_cell_length_b                    16.042848
_cell_length_c                    17.311687
_cell_angle_alpha                 97.968602
_cell_angle_beta                  90.521163
_cell_angle_gamma                 91.090842
_cell_volume                      2994.55887888

loop_
_atom_site_label
_atom_site_type_symbol
_atom_type_description
_atom_site_fract_x
_atom_site_fract_y
_atom_site_fract_z
_atom_type_partial_charge
C1    C     C_R   0.500448 0.488172 0.349269 0.858812
C2    C     C_R   0.499364 0.511865 0.650477 0.854482
C3    C     C_R   0.871628 0.496723 0.500944 -0.064119
C4    C     C_R   0.128870 0.503727 0.503846 -0.054126
C5    C     C_R   0.938555 0.421426 0.491237 0.091180
C6    C     C_R   0.062392 0.579149 0.515877 0.069693
C7    C     C_R   0.506607 0.481323 0.263699 -0.182998
C8    C     C_R   0.490258 0.519805 0.735468 -0.183065
C9    C     C_R   0.549721 0.552142 0.231766 -0.361635
C10   C     C_R   0.435111 0.453488 0.768395 -0.359424
C11   C     C_R   0.553585 0.552338 0.151037 0.537807
C12   C     C_R   0.424930 0.457437 0.849495 0.535649
C13   C     C_R   0.515993 0.479113 0.101940 0.007896
C14   C     C_R   0.466410 0.531010 0.897189 -0.025325
C15   C     C_R   0.477209 0.407349 0.132858 -0.352451
C16   C     C_R   0.516387 0.598686 0.864490 -0.309354
C17   C     C_R   0.473813 0.406247 0.214169 0.442276
C18   C     C_R   0.531932 0.592911 0.784093 0.460895
C19   C     C_2   0.514560 0.475362 0.017031 -0.096999
C20   C     C_2   0.466117 0.536650 0.982173 -0.089069
C21   C     C_R   0.438057 0.747609 0.463366 0.084589
C22   C     C_R   0.564647 0.252743 0.535192 0.075285
C23   C     C_R   0.262559 0.501565 0.501631 0.836542
C24   C     C_R   0.737642 0.498576 0.499945 0.794259
C25   C     C_R   0.433237 0.834684 0.468659 -0.248789
C26   C     C_R   0.566641 0.165848 0.532391 -0.241269
C27   C     C_R   0.509703 0.885348 0.522415 0.091759
C28   C     C_R   0.484321 0.115273 0.482915 0.095120
C29   C     C_R   0.589932 0.846412 0.569616 -0.260297
C30   C     C_R   0.398976 0.153739 0.438872 -0.301825
C31   C     C_R   0.592005 0.758687 0.562170 0.091181
C32   C     C_R   0.400008 0.241323 0.443515 0.063166
C33   C     C_2   0.502338 0.978732 0.533279 0.298028
C34   C     C_2   0.492902 0.022164 0.471557 0.294803
C35   C     C_R   0.211633 0.776281 0.625497 -0.255322
C36   C     C_R   0.819339 0.210066 0.392508 -0.332384
C37   C     C_R   0.175314 0.691616 0.606251 0.573136
C38   C     C_R   0.845632 0.297717 0.404735 0.570886
C39   C     C_R   0.118259 0.664686 0.533572 -0.051486
C40   C     C_R   0.884463 0.335336 0.479528 -0.002048
C41   C     C_R   0.097287 0.723114 0.481781 -0.290636
C42   C     C_R   0.895176 0.286572 0.540466 -0.376229
C43   C     C_R   0.130011 0.808282 0.501117 0.505650
C44   C     C_R   0.873322 0.199254 0.527067 0.487514
C45   C     C_R   0.186989 0.834486 0.574632 -0.342582
C46   C     C_R   0.833088 0.161866 0.453230 -0.264529
C47   C     C_R   0.934972 0.574323 0.513640 -0.274016
C48   C     C_R   0.065627 0.426268 0.492282 -0.235307
Cu1   Cu    Cu3+1 0.493640 0.415410 0.495980 0.953760
Cu2   Cu    Cu3+1 0.506360 0.584590 0.504020 0.973599
H1    H     H_    0.214418 0.899059 0.593137 0.120935
H2    H     H_    0.813532 0.094850 0.442738 0.153954
H3    H     H_    0.446829 0.353195 0.092436 0.151110
H4    H     H_    0.548352 0.654994 0.901747 0.179057
H5    H     H_    0.377010 0.708455 0.423430 0.132351
H6    H     H_    0.629226 0.292031 0.572385 0.138417
H7    H     H_    0.335699 0.271689 0.409044 0.151170
H8    H     H_    0.652630 0.727891 0.598480 0.133862
H9    H     H_    0.649768 0.883497 0.612025 0.168417
H10   H     H_    0.333884 0.116244 0.400347 0.166711
H11   H     H_    0.635342 0.138629 0.566144 0.216112
H12   H     H_    0.366660 0.861487 0.433105 0.199376
H13   H     H_    0.257769 0.797234 0.680632 0.168443
H14   H     H_    0.792335 0.177902 0.335687 0.149094
H15   H     H_    0.052078 0.702438 0.426200 0.181146
H16   H     H_    0.924513 0.316482 0.597769 0.157334
H17   H     H_    0.885139 0.632674 0.523556 0.166916
H18   H     H_    0.115247 0.367763 0.483208 0.160688
H19   H     H_    0.583059 0.607140 0.270012 0.186927
H20   H     H_    0.397624 0.399363 0.730709 0.182428
H21   H     H_    0.432691 0.593556 0.016143 0.163290
H22   H     H_    0.547853 0.418737 0.982407 0.153507
N1    N     N_R   0.515930 0.711660 0.510070 -0.179617
N2    N     N_R   0.484070 0.288340 0.489930 -0.180999
O1    O     O_R   0.494030 0.420280 0.382610 -0.543083
O2    O     O_R   0.505970 0.579720 0.617390 -0.528394
O3    O     O_R   0.504770 0.563150 0.389400 -0.606045
O4    O     O_R   0.495230 0.436850 0.610600 -0.609965
O5    O     O_R   0.314270 0.428570 0.496610 -0.602606
O6    O     O_R   0.685730 0.571430 0.503390 -0.602450
O7    O     O_R   0.325020 0.571440 0.503400 -0.577692
O8    O     O_R   0.674980 0.428560 0.496600 -0.593368
O9    O     O_3   0.364429 0.394787 0.883496 -0.570532
C49   C     C_3   0.405693 0.313970 0.853169 -0.363065
H23   H     H_    0.506893 0.312876 0.844110 0.152029
H24   H     H_    0.355647 0.289700 0.798226 0.173570
H25   H     H_    0.384507 0.270316 0.895864 0.191797
O10   O     O_3   0.605163 0.619287 0.118561 -0.575870
C50   C     C_3   0.555778 0.696748 0.151704 -0.356245
H26   H     H_    0.605344 0.721729 0.206623 0.176394
H27   H     H_    0.455070 0.692081 0.161762 0.155653
H28   H     H_    0.569829 0.743042 0.110424 0.193213
O11   O     O_3   0.482142 0.979407 0.396409 -0.607958
C51   C     C_3   0.589156 0.994691 0.354775 0.078064
H29   H     H_    0.672511 0.975224 0.385011 0.139751
H30   H     H_    0.598513 0.062360 0.347400 0.149877
C52   C     C_3   0.581052 0.943260 0.274190 -0.796789
H31   H     H_    0.499518 0.961870 0.242059 0.246725
H32   H     H_    0.664975 0.954458 0.240825 0.197937
H33   H     H_    0.572964 0.875168 0.279518 0.245854
O12   O     O_3   0.518042 0.022266 0.607824 -0.599077
C53   C     C_3   0.409475 0.014693 0.650209 0.066087
H34   H     H_    0.398072 0.949444 0.664390 0.158699
H35   H     H_    0.327377 0.031911 0.617273 0.116324
C54   C     C_3   0.418119 0.074707 0.726261 -0.792216
H36   H     H_    0.428755 0.140555 0.713857 0.242803
H37   H     H_    0.333282 0.069218 0.760449 0.192383
H38   H     H_    0.498317 0.059158 0.761292 0.253547
O13   O     O_3   0.200724 0.634399 0.656744 -0.572378
C55   C     C_3   0.110353 0.640427 0.714861 -0.358377
H39   H     H_    0.016957 0.626387 0.689037 0.154040
H40   H     H_    0.113395 0.703415 0.751091 0.161421
H41   H     H_    0.129044 0.592885 0.754061 0.204861
O14   O     O_3   0.848524 0.346842 0.344454 -0.584284
C56   C     C_3   0.751075 0.326110 0.290664 -0.308026
H42   H     H_    0.663023 0.315332 0.320126 0.198798
H43   H     H_    0.774046 0.270688 0.247794 0.154634
H44   H     H_    0.738047 0.379767 0.257558 0.191895
O15   O     O_3   0.107119 0.860081 0.444248 -0.582687
C57   C     C_3   0.118904 0.947035 0.471291 0.057296
H45   H     H_    0.216293 0.964995 0.486022 0.133941
H46   H     H_    0.059269 0.964651 0.522494 0.152472
C58   C     C_3   0.078435 0.996196 0.406726 -0.761272
H47   H     H_    0.980652 0.981133 0.390936 0.242544
H48   H     H_    0.088782 0.064813 0.426568 0.188556
H49   H     H_    0.135988 0.979690 0.354397 0.255306
O16   O     O_3   0.881801 0.150306 0.586699 -0.582178
C59   C     C_3   0.005162 0.148978 0.612480 0.072518
H50   H     H_    0.036895 0.212077 0.641310 0.144103
H51   H     H_    0.067015 0.127662 0.563076 0.128934
C60   C     C_3   0.015270 0.087996 0.672062 -0.802461
H52   H     H_    0.980459 0.024519 0.646667 0.244770
H53   H     H_    0.112765 0.083464 0.690089 0.191172
H54   H     H_    0.960380 0.110605 0.724286 0.255546
O17   O     O_3   0.585120 0.660222 0.753961 -0.556503
C61   C     C_3   0.714414 0.652711 0.754603 0.044707
H55   H     H_    0.743836 0.619012 0.697490 0.139531
H56   H     H_    0.749879 0.618299 0.801810 0.130792
C62   C     C_3   0.773791 0.740275 0.766819 -0.795642
H57   H     H_    0.747809 0.773937 0.824598 0.250352
H58   H     H_    0.875242 0.735370 0.764868 0.191442
H59   H     H_    0.743335 0.777201 0.720779 0.239163
O18   O     O_3   0.432248 0.336267 0.247232 -0.565620
C63   C     C_3   0.455517 0.258875 0.200021 0.051525
H60   H     H_    0.548971 0.258463 0.174206 0.125847
H61   H     H_    0.384471 0.246126 0.153121 0.157850
C64   C     C_3   0.447900 0.187313 0.248884 -0.803500
H62   H     H_    0.517620 0.197133 0.296561 0.240879
H63   H     H_    0.354696 0.183915 0.273811 0.247958
H64   H     H_    0.465908 0.126665 0.211834 0.201404

loop_
_geom_bond_atom_site_label_1
_geom_bond_atom_site_label_2
_ccdc_geom_bond_type
C38   C40   A    
C59   C60   S    
C44   O16   S    
O11   C51   S    
C46   H2    S    
C27   C29   A    
C1    O3    A    
C19   C20   D    
C49   H25   S    
C60   H54   S    
C59   H50   S    
C52   H31   S    
C3    C24   S    
O17   C61   S    
C39   C41   A    
C60   H53   S    
C27   C33   S    
C54   H37   S    
O12   C53   S    
C33   O12   S    
C15   H3    S    
C31   H8    S    
C64   H63   S    
C26   H11   S    
C9    H19   S    
C61   C62   S    
C32   N2    A    
C38   O14   S    
C62   H59   S    
C58   H48   S    
C45   H1    S    
C56   H42   S    
C21   N1    A    
C11   C13   A    
Cu1   O4    S    
C53   C54   S    
C15   C17   A    
C24   O8    A    
C55   H39   S    
C64   H62   S    
C24   O6    A    
C29   H9    S    
C57   H46   S    
C7    C17   A    
C30   H10   S    
Cu1   O1    S    
C20   H21   S    
C36   C46   A    
C50   H27   S    
C37   O13   S    
C57   C58   S    
C40   C42   A    
C28   C34   S    
C41   C43   A    
C19   H22   S    
C53   H34   S    
C42   C44   A    
C32   H7    S    
C63   C64   S    
C47   H17   S    
C52   H32   S    
C44   C46   A    
O14   C56   S    
C55   H40   S    
C37   C39   A    
C5    C48   A    
C6    C47   A    
C13   C19   S    
C1    O1    A    
C14   C20   S    
C58   H47   S    
C64   H64   S    
C49   H23   S    
C4    C6    A    
Cu2   N1    S    
C21   H5    S    
C4    C23   S    
C63   H60   S    
C58   H49   S    
C41   H15   S    
C51   C52   S    
C56   H43   S    
C8    C18   A    
Cu1   O5    S    
C12   O9    S    
Cu2   O6    S    
Cu1   O8    S    
C53   H35   S    
C2    O4    A    
Cu2   O2    S    
C43   C45   A    
O9    C49   S    
C11   O10   S    
C62   H57   S    
C56   H44   S    
C6    C39   S    
C33   C34   D    
C18   O17   S    
C54   H38   S    
C48   H18   S    
C50   H28   S    
C51   H30   S    
C9    C11   A    
C55   H41   S    
C10   C12   A    
C10   H20   S    
C63   H61   S    
C12   C14   A    
C13   C15   A    
C14   C16   A    
C22   N2    A    
C60   H52   S    
C35   C45   A    
Cu2   O3    S    
C52   H33   S    
C2    O2    A    
C57   H45   S    
C61   H56   S    
C4    C48   A    
C7    C9    A    
C21   C25   A    
C23   O7    A    
C35   C37   A    
C1    C7    S    
C8    C10   A    
C2    C8    S    
C49   H24   S    
C61   H55   S    
C3    C5    A    
C59   H51   S    
C22   H6    S    
O15   C57   S    
O16   C59   S    
C25   C27   A    
C54   H36   S    
C26   C28   A    
C17   O18   S    
C28   C30   A    
C29   C31   A    
O13   C55   S    
C36   C38   A    
C30   C32   A    
C62   H58   S    
C3    C47   A    
C25   H12   S    
C51   H29   S    
C34   O11   S    
C16   H4    S    
C31   N1    A    
O10   C50   S    
C16   C18   A    
Cu1   Cu2   S    
C22   C26   A    
C5    C40   S    
C42   H16   S    
Cu1   N2    S    
C35   H13   S    
C23   O5    A    
C50   H26   S    
C36   H14   S    
O18   C63   S    
Cu2   O7    S    
C43   O15   S    
