data_mof_unit_10089.cif
_audit_creation_date              2013-03-05T15:47:04-0500
_audit_creation_method            fapswitch 2.2
_symmetry_space_group_name_H-M    P1
_symmetry_Int_Tables_number       1
_space_group_crystal_system       triclinic
_cell_length_a                    23.633603
_cell_length_b                    11.108329
_cell_length_c                    9.829988
_cell_angle_alpha                 110.715551
_cell_angle_beta                  99.05923
_cell_angle_gamma                 90.266347
_cell_volume                      2378.61791348

loop_
_atom_site_label
_atom_site_type_symbol
_atom_site_description
_atom_site_fract_x
_atom_site_fract_y
_atom_site_fract_z
_atom_type_partial_charge
O1    O     O_R   0.505330 0.332340 0.577400 -0.570815
O2    O     O_R   0.494670 0.667660 0.422600 -0.571725
O3    O     O_R   0.488470 0.295500 0.332650 -0.512390
O4    O     O_R   0.511530 0.704500 0.667350 -0.513258
C1    C     C_R   0.495134 0.254276 0.442502 0.750969
C2    C     C_R   0.503457 0.745110 0.557774 0.759019
O5    O     O_R   0.426310 0.518390 0.622390 -0.597549
O6    O     O_R   0.573690 0.481610 0.377610 -0.609762
O7    O     O_R   0.409450 0.481550 0.377650 -0.547308
O8    O     O_R   0.590550 0.518450 0.622350 -0.549621
C3    C     C_R   0.390983 0.497792 0.499702 0.716537
C4    C     C_R   0.609190 0.500056 0.499366 0.736589
Cu1   Cu    Cu3+1 0.509980 0.521810 0.644910 1.114464
Cu2   Cu    Cu3+1 0.490020 0.478190 0.355090 1.109786
C5    C     C_R   0.884267 0.600818 0.515440 0.545847
C6    C     C_R   0.114527 0.368660 0.440298 0.541447
N1    N     N_R   0.853069 0.491175 0.498039 -0.490042
N2    N     N_R   0.148406 0.480372 0.507342 -0.491509
C7    C     C_R   0.878912 0.378850 0.484567 0.503289
C8    C     C_R   0.125823 0.593833 0.578305 0.513001
C9    C     C_R   0.937472 0.369815 0.469573 -0.074661
C10   C     C_R   0.065640 0.601849 0.565026 -0.072697
C11   C     C_R   0.971253 0.486608 0.508364 -0.012846
C12   C     C_R   0.031078 0.484550 0.511204 -0.012833
C13   C     C_R   0.944852 0.605498 0.542920 -0.051518
C14   C     C_R   0.056503 0.365145 0.458675 -0.051977
C15   C     C_R   0.963263 0.249775 0.422945 -0.089808
C16   C     C_R   0.039527 0.721731 0.606983 -0.105712
C17   C     C_R   0.022960 0.247612 0.420217 -0.068357
C18   C     C_R   0.979242 0.723495 0.598388 -0.083585
O9    O     O_2   0.856360 0.703507 0.504449 -0.462879
O10   O     O_2   0.136947 0.263074 0.354020 -0.465973
O11   O     O_2   0.847891 0.277879 0.487611 -0.495721
O12   O     O_2   0.161887 0.697355 0.660730 -0.482486
C19   C     C_R   0.231492 0.547738 0.421347 0.017729
C20   C     C_R   0.753384 0.421408 0.368495 0.009236
C21   C     C_R   0.291157 0.552775 0.419694 -0.112823
C22   C     C_R   0.693532 0.421209 0.369363 -0.088246
C23   C     C_R   0.328088 0.489636 0.497517 -0.180613
C24   C     C_R   0.672258 0.499553 0.497660 -0.191263
C25   C     C_R   0.304919 0.415143 0.569341 -0.084752
C26   C     C_R   0.711393 0.577244 0.624565 -0.111847
C27   C     C_R   0.245215 0.412313 0.572685 -0.011914
C28   C     C_R   0.771212 0.571916 0.625169 -0.009862
C29   C     C_R   0.209033 0.479856 0.500278 0.161577
C30   C     C_R   0.791862 0.494911 0.497055 0.163379
C31   C     C_2   0.492891 0.115733 0.416621 0.058109
C32   C     C_2   0.510976 0.881786 0.584206 0.080832
C33   C     C_2   0.485815 0.072596 0.527181 0.216977
C34   C     C_2   0.478113 0.934567 0.496521 0.214898
H1    H     H_    0.457954 0.432357 0.849269 0.161239
H2    H     H_    0.542834 0.566527 0.153194 0.164553
N3    N     N_2   0.475010 0.445410 0.137370 -0.084155
N4    N     N_2   0.524990 0.554590 0.862630 -0.079868
C35   C     C_2   0.505681 0.507418 0.081247 0.117614
C36   C     C_2   0.494229 0.494931 0.921151 0.135358
C37   C     C_2   0.927389 0.125963 0.366314 0.460149
H3    H     H_    0.888329 0.113899 0.286838 0.144287
O13   O     O_2   0.940373 0.038173 0.410234 -0.542759
C38   C     C_2   0.074440 0.845520 0.650123 0.480619
H4    H     H_    0.104416 0.855954 0.581323 0.148035
O14   O     O_2   0.070953 0.935121 0.763940 -0.485886
N5    N     N_R   0.575596 0.622880 0.947797 0.233735
O15   O     O_R   0.586326 0.739617 0.953725 -0.225897
O16   O     O_R   0.617029 0.562428 0.993701 -0.280477
N6    N     N_R   0.419735 0.399588 0.062602 0.255229
O17   O     O_R   0.399604 0.289322 0.059334 -0.203611
O18   O     O_R   0.383779 0.479651 0.034658 -0.278518
C39   C     C_2   0.049732 0.121596 0.383304 0.568279
H5    H     H_    0.031445 0.040786 0.284987 0.081990
O19   O     O_2   0.090790 0.105898 0.466382 -0.468822
C40   C     C_2   0.953569 0.849940 0.655530 0.587946
H6    H     H_    0.965174 0.928624 0.622118 0.119823
O20   O     O_2   0.921583 0.868762 0.746199 -0.464274
C41   C     C_2   0.191215 0.614758 0.344002 0.498165
H7    H     H_    0.148878 0.569808 0.288589 0.051450
O21   O     O_2   0.203549 0.723137 0.348484 -0.450771
C42   C     C_2   0.777516 0.344236 0.235288 0.521287
H8    H     H_    0.815161 0.382414 0.209602 0.056902
O22   O     O_2   0.757760 0.235393 0.157903 -0.453519
C43   C     C_2   0.315612 0.623693 0.337138 0.627994
H9    H     H_    0.355986 0.680207 0.384499 0.097295
O23   O     O_2   0.292361 0.614866 0.213606 -0.427934
C44   C     C_2   0.653093 0.337671 0.237097 0.567828
H10   H     H_    0.620152 0.275439 0.249006 0.089264
O24   O     O_2   0.654947 0.341348 0.115167 -0.427928
C45   C     C_2   0.343539 0.337007 0.634854 0.551091
H11   H     H_    0.379344 0.293711 0.582656 0.055662
O25   O     O_2   0.336903 0.322896 0.748955 -0.416366
C46   C     C_2   0.689487 0.666088 0.755252 0.605024
H12   H     H_    0.654996 0.726801 0.740351 0.103332
O26   O     O_2   0.708350 0.668897 0.879406 -0.427771
C47   C     C_2   0.218789 0.338400 0.649221 0.595467
H13   H     H_    0.186813 0.381284 0.716902 0.063091
O27   O     O_2   0.229618 0.226764 0.629835 -0.414148
C48   C     C_2   0.813704 0.646867 0.758130 0.552308
H14   H     H_    0.852643 0.603735 0.787512 0.058311
O28   O     O_2   0.807330 0.759021 0.830744 -0.439261
N7    N     N_R   0.429413 0.865304 0.388511 0.091244
O29   O     O_R   0.379433 0.913253 0.398065 -0.297345
O30   O     O_R   0.437314 0.782067 0.262250 -0.267814
N8    N     N_R   0.480012 0.156891 0.673602 0.098214
O31   O     O_R   0.434357 0.141503 0.725820 -0.280174
O32   O     O_R   0.525619 0.217407 0.766270 -0.267022
N9    N     N_R   0.558592 0.954760 0.693585 0.140801
O33   O     O_R   0.567167 0.947133 0.824193 -0.216892
O34   O     O_R   0.598039 0.012687 0.655771 -0.278798
N10   N     N_R   0.499952 0.026820 0.273236 0.151086
O35   O     O_R   0.474769 0.043267 0.154061 -0.216274
O36   O     O_R   0.536864 0.938650 0.262041 -0.275724

loop_
_geom_bond_atom_site_label_1
_geom_bond_atom_site_label_2
_geom_bond_distance
_ccdc_geom_bond_type
N6    O18   1.301880 A    
C35   C36   1.510041 S    
N5    O16   1.301838 A    
C41   H7    1.085581 S    
C47   H13   1.085409 S    
C15   C17   1.415471 A    
C40   O20   1.221209 D    
C45   H11   1.084699 S    
C43   H9    1.081238 S    
C37   H3    1.085419 S    
C31   C33   1.365150 D    
O5    C3    1.299930 A    
N9    O34   1.301594 A    
C19   C41   1.489130 S    
C34   N7    1.439783 S    
C2    C32   1.451902 S    
O1    C1    1.285444 A    
C19   C21   1.413840 A    
C12   C14   1.416885 A    
C42   O22   1.220959 D    
C5    C13   1.411881 A    
N4    N5    1.390584 S    
N10   O35   1.301094 A    
C38   O14   1.221144 D    
H1    C36   1.083350 S    
O4    Cu1   1.961748 S    
C41   O21   1.221260 D    
N1    C7    1.364960 A    
C32   N9    1.439938 S    
C48   O28   1.220983 D    
C11   C12   1.410220 A    
C20   C30   1.411336 A    
C24   C26   1.422681 A    
H2    C35   1.082986 S    
C8    O12   1.348921 S    
C32   C34   1.356785 D    
N6    O17   1.299853 A    
C9    C15   1.422272 A    
C47   O27   1.220960 D    
C10   C16   1.422539 A    
Cu1   Cu2   2.678015 S    
C25   C27   1.417026 A    
C21   C43   1.486251 S    
O2    C2    1.285148 A    
C26   C28   1.414421 A    
C43   O23   1.221173 D    
C28   C30   1.411097 A    
C17   C39   1.487517 S    
N3    C35   1.301689 D    
C6    C14   1.413222 A    
C25   C45   1.489584 S    
N4    C36   1.302140 D    
C39   O19   1.221344 D    
N8    O31   1.300666 A    
N1    C30   1.445935 S    
C23   C25   1.419124 A    
C15   C37   1.489693 S    
C33   N8    1.441222 S    
C42   H8    1.085420 S    
C38   H4    1.085483 S    
C26   C46   1.486462 S    
C4    C24   1.493282 S    
C3    C23   1.485091 S    
O7    Cu2   1.950428 S    
C28   C48   1.489624 S    
C1    C31   1.467648 S    
C46   O26   1.220969 D    
N7    O29   1.301228 A    
O6    C4    1.298861 A    
C48   H14   1.085445 S    
C44   H10   1.085638 S    
N8    O32   1.301660 A    
N3    N6    1.390183 S    
O7    C3    1.294202 A    
O3    Cu2   1.961748 S    
O8    C4    1.300427 A    
O4    C2    1.296129 A    
N7    O30   1.301128 A    
C8    C10   1.413840 A    
C33   C34   1.458796 S    
C9    C11   1.417918 A    
C7    O11   1.348851 S    
C10   C12   1.418182 A    
O1    Cu1   1.966971 S    
C19   C29   1.411464 A    
N2    C29   1.445340 S    
Cu1   N4    2.011769 S    
C13   C18   1.421577 A    
C5    N1    1.364124 A    
O6    Cu2   1.953498 S    
C22   C44   1.487233 S    
C44   O24   1.221199 D    
C40   H6    1.084571 S    
O3    C1    1.302888 A    
O8    Cu1   1.950433 S    
C18   C40   1.487829 S    
C5    O9    1.348933 S    
C6    O10   1.348801 S    
N9    O33   1.300679 A    
C20   C22   1.415878 A    
C21   C23   1.419141 A    
C20   C42   1.490092 S    
C22   C24   1.424063 A    
C46   H12   1.085442 S    
C16   C18   1.414549 A    
C27   C47   1.486750 S    
N10   O36   1.301668 A    
N2    C8    1.364358 A    
C11   C13   1.416300 A    
C39   H5    1.085229 S    
O2    Cu2   1.966971 S    
C37   O13   1.220856 D    
N5    O15   1.299259 A    
O5    Cu1   1.953498 S    
Cu2   N3    2.011768 S    
C16   C38   1.489386 S    
C14   C17   1.422230 A    
C6    N2    1.364308 A    
C31   N10   1.442471 S    
C45   O25   1.219320 D    
C27   C29   1.411681 A    
C7    C9    1.415004 A    
