data_mof_unit_10479.cif
_audit_creation_date              2012-12-10T17:33:14-0500
_audit_creation_method            fapswitch 2.2
_symmetry_space_group_name_H-M    P1
_symmetry_Int_Tables_number       1
_space_group_crystal_system       triclinic
_cell_length_a                    11.991112
_cell_length_b                    12.833076
_cell_length_c                    13.651288
_cell_angle_alpha                 90.97039
_cell_angle_beta                  79.406388
_cell_angle_gamma                 94.398674
_cell_volume                      2058.80379072

loop_
_atom_site_label
_atom_site_type_symbol
_atom_type_description
_atom_site_fract_x
_atom_site_fract_y
_atom_site_fract_z
_atom_type_partial_charge
C1    C     C_R   0.523937 0.700564 0.495323 0.928910
C2    C     C_R   0.476062 0.299436 0.504677 0.928911
C3    C     C_R   0.455282 0.973628 0.533109 0.102822
C4    C     C_R   0.544718 0.026372 0.466891 0.102823
C5    C     C_R   0.965832 0.404247 0.405108 -0.257916
C6    C     C_R   0.034168 0.595753 0.594892 -0.257915
C7    C     C_R   0.848280 0.413184 0.414763 0.061189
C8    C     C_R   0.151720 0.586816 0.585237 0.061189
C9    C     C_R   0.853056 0.540948 0.541730 0.072515
C10   C     C_R   0.146944 0.459052 0.458270 0.072515
C11   C     C_R   0.971498 0.534681 0.534667 0.065562
C12   C     C_R   0.028502 0.465319 0.465333 0.065564
C13   C     C_R   0.480108 0.501296 0.686779 0.916124
C14   C     C_R   0.519892 0.498704 0.313221 0.916125
C15   C     C_1   0.535402 0.499602 0.209052 -0.050757
C16   C     C_1   0.464598 0.500398 0.790948 -0.050756
C17   C     C_2   0.549330 0.501981 0.017029 0.278570
C18   C     C_2   0.450670 0.498019 0.982971 0.278577
C19   C     C_1   0.454199 0.499287 0.879014 0.095868
C20   C     C_1   0.545801 0.500713 0.120986 0.095865
C21   C     C_R   0.459151 0.187595 0.511360 -0.190874
C22   C     C_R   0.540849 0.812405 0.488640 -0.190874
C23   C     C_R   0.633236 0.972554 0.413324 -0.226409
C24   C     C_R   0.366764 0.027446 0.586676 -0.226408
C25   C     C_R   0.632164 0.864719 0.422611 0.437166
C26   C     C_R   0.367836 0.135281 0.577390 0.437168
C27   C     C_R   0.455033 0.867363 0.544537 -0.267442
C28   C     C_R   0.544967 0.132637 0.455463 -0.267444
H1    H     H_    0.614032 0.173459 0.404374 0.171206
H2    H     H_    0.385967 0.826541 0.595626 0.171207
H3    H     H_    0.701665 0.014640 0.363035 0.203019
H4    H     H_    0.298335 0.985360 0.636965 0.203020
H5    H     H_    0.192036 0.405897 0.405561 0.149581
H6    H     H_    0.807963 0.594103 0.594439 0.149582
H7    H     H_    0.199735 0.633824 0.631928 0.137093
H8    H     H_    0.800265 0.366175 0.368072 0.137090
H9    H     H_    0.007237 0.350210 0.351008 0.175178
H10   H     H_    0.992763 0.649790 0.648992 0.175183
N1    N     N_R   0.206090 0.519450 0.517820 -0.105423
N2    N     N_R   0.793910 0.480550 0.482180 -0.105422
O1    O     O_R   0.421240 0.658850 0.504760 -0.636734
O2    O     O_R   0.578760 0.341150 0.495240 -0.636734
O3    O     O_R   0.609960 0.646370 0.493320 -0.562214
O4    O     O_R   0.390040 0.353630 0.506680 -0.562214
O5    O     O_R   0.392060 0.507120 0.646890 -0.592928
O6    O     O_R   0.607940 0.492880 0.353110 -0.592929
O7    O     O_R   0.580780 0.494630 0.635450 -0.606611
O8    O     O_R   0.419220 0.505370 0.364550 -0.606611
Zn1   Zn    Zn3+2 0.373990 0.508340 0.507630 1.036037
Zn2   Zn    Zn3+2 0.626010 0.491660 0.492370 1.036037
S1    S     S_3+6 0.315049 0.490866 0.061636 0.035108
O9    O     O_2   0.301137 0.394077 0.124541 -0.301536
O10   O     O_2   0.305698 0.585395 0.128357 -0.285448
O11   O     O_3   0.212384 0.486619 0.992342 -0.511847
H11   H     H_    0.140072 0.482716 0.041219 0.394308
S2    S     S_3+6 0.684951 0.509129 0.938363 0.035111
O12   O     O_2   0.694298 0.414597 0.871647 -0.285481
O13   O     O_2   0.698867 0.605916 0.875455 -0.301503
O14   O     O_3   0.787619 0.513376 0.007655 -0.511841
H12   H     H_    0.859930 0.517213 0.958777 0.394307
S3    S     S_3+6 0.258684 0.200644 0.653990 0.050464
O15   O     O_2   0.310811 0.286847 0.710737 -0.291483
O16   O     O_2   0.185411 0.246155 0.589829 -0.288559
O17   O     O_3   0.177046 0.116986 0.735590 -0.538525
H13   H     H_    0.118927 0.159705 0.774526 0.403965
S4    S     S_3+6 0.741316 0.799356 0.346010 0.050468
O18   O     O_2   0.814589 0.753844 0.410172 -0.288554
O19   O     O_2   0.689189 0.713154 0.289263 -0.291482
O20   O     O_3   0.822956 0.883014 0.264411 -0.538525
H14   H     H_    0.881070 0.840294 0.225471 0.403970

loop_
_geom_bond_atom_site_label_1
_geom_bond_atom_site_label_2
_ccdc_geom_bond_type
O4    Zn1   S    
S3    O17   S    
S4    O19   D    
C11   C12   A    
C6    H10   S    
O3    Zn2   S    
C10   N1    A    
C8    N1    A    
C5    H9    S    
O7    Zn2   S    
C7    H8    S    
O6    Zn2   S    
C22   C27   A    
C6    C11   A    
S2    O14   S    
O5    Zn1   S    
C8    H7    S    
C21   C26   A    
S1    O11   S    
O17   H13   S    
C2    C21   S    
C3    C27   A    
S4    O18   D    
C1    C22   S    
C14   O6    A    
C27   H2    S    
C13   O5    A    
C9    C11   A    
C17   S2    S    
C3    C24   A    
S3    O15   D    
C10   C12   A    
C2    O2    A    
C16   C19   T    
N2    Zn2   S    
C1    O1    A    
C28   H1    S    
C4    C28   A    
C26   S3    S    
O2    Zn2   S    
C18   S1    S    
C17   C18   D    
C10   H5    S    
O20   H14   S    
C23   C25   A    
C9    H6    S    
C24   C26   A    
S4    O20   S    
C21   C28   A    
C3    C4    A    
O14   H12   S    
C17   C20   S    
S2    O12   D    
C5    C12   A    
C5    C7    A    
C18   C19   S    
C13   C16   S    
O1    Zn1   S    
C24   H4    S    
S3    O16   D    
C4    C23   A    
C14   O8    A    
C14   C15   S    
O8    Zn1   S    
C6    C8    A    
N1    Zn1   S    
O11   H11   S    
C7    N2    A    
C13   O7    A    
C1    O3    A    
C9    N2    A    
C2    O4    A    
C25   S4    S    
S1    O9    D    
S2    O13   D    
C15   C20   T    
S1    O10   D    
C22   C25   A    
C23   H3    S    
