data_mof_unit_45393.cif
_audit_creation_date              2012-12-10T19:53:48-0500
_audit_creation_method            fapswitch 2.2
_symmetry_space_group_name_H-M    P1
_symmetry_Int_Tables_number       1
_space_group_crystal_system       triclinic
_cell_length_a                    18.243186
_cell_length_b                    18.24317
_cell_length_c                    47.196003
_cell_angle_alpha                 89.999729
_cell_angle_beta                  90.000097
_cell_angle_gamma                 90.000179
_cell_volume                      15707.4689991

loop_
_atom_site_label
_atom_site_type_symbol
_atom_type_description
_atom_site_fract_x
_atom_site_fract_y
_atom_site_fract_z
_atom_type_partial_charge
C1    C     C_R   0.000000 0.859028 0.000000 0.912934
C2    C     C_R   0.048553 0.546695 0.868719 0.469263
C3    C     C_R   0.959879 0.551553 0.690326 0.714818
C4    C     C_R   0.448431 0.040136 0.309673 0.714825
C5    C     C_R   0.040204 0.551517 0.309672 0.714836
C6    C     C_R   0.551570 0.959863 0.309673 0.714824
C7    C     C_R   0.959796 0.448485 0.309672 0.714836
C8    C     C_R   0.041850 0.552971 0.220174 -0.184577
C9    C     C_R   0.446985 0.041790 0.220176 -0.184587
C10   C     C_R   0.958151 0.447031 0.220175 -0.184577
C11   C     C_R   0.553018 0.958210 0.220176 -0.184585
C12   C     C_R   0.041755 0.446922 0.779823 -0.184453
C13   C     C_R   0.453206 0.048475 0.868724 0.469249
C14   C     C_R   0.447029 0.958158 0.779825 -0.184574
C15   C     C_R   0.958232 0.552999 0.779823 -0.184581
C16   C     C_R   0.552989 0.041831 0.779825 -0.184548
C17   C     C_R   0.556385 0.037069 0.720089 -0.181280
C18   C     C_R   0.963003 0.556399 0.720088 -0.181285
C19   C     C_R   0.443628 0.962924 0.720089 -0.181287
C20   C     C_R   0.037002 0.443544 0.720087 -0.181283
C21   C     C_R   0.556418 0.962986 0.279912 -0.181298
C22   C     C_R   0.962916 0.443630 0.279910 -0.181285
C23   C     C_R   0.443584 0.037014 0.279912 -0.181297
C24   C     C_R   0.951445 0.453255 0.868724 0.469298
C25   C     C_R   0.037084 0.556372 0.279910 -0.181285
C26   C     C_R   0.000000 0.500001 0.235098 -0.059643
C27   C     C_R   0.500001 1.000000 0.235099 -0.059662
C28   C     C_R   0.999997 0.499964 0.764899 -0.059584
C29   C     C_R   0.500008 0.999995 0.764901 -0.059638
C30   C     C_R   0.500007 0.999996 0.735021 -0.053953
C31   C     C_R   0.000001 0.499969 0.735019 -0.053957
C32   C     C_R   0.500001 1.000000 0.264979 -0.053954
C33   C     C_R   1.000000 0.500001 0.264978 -0.053955
C34   C     C_R   0.084719 0.604541 0.235443 0.269052
C35   C     C_R   0.546777 0.048501 0.131276 0.469246
C36   C     C_R   0.395363 0.084597 0.235444 0.269055
C37   C     C_R   0.915281 0.395461 0.235443 0.269054
C38   C     C_R   0.604639 0.915404 0.235445 0.269057
C39   C     C_R   0.084543 0.395285 0.764555 0.269070
C40   C     C_R   0.395450 0.915300 0.764557 0.269062
C41   C     C_R   0.915438 0.604632 0.764556 0.269042
C42   C     C_R   0.604569 0.084688 0.764556 0.269069
C43   C     C_R   0.613397 0.072335 0.735316 0.260076
C44   C     C_R   0.927803 0.613450 0.735316 0.260065
C45   C     C_R   0.386618 0.927655 0.735317 0.260081
C46   C     C_R   0.048462 0.453183 0.131275 0.469262
C47   C     C_R   0.072189 0.386481 0.735314 0.260078
C48   C     C_R   0.613462 0.927773 0.264684 0.260060
C49   C     C_R   0.927635 0.386628 0.264683 0.260090
C50   C     C_R   0.386540 0.072227 0.264683 0.260058
C51   C     C_R   0.072365 0.613375 0.264682 0.260092
C52   C     C_R   0.453226 0.951498 0.131276 0.469244
C53   C     C_R   0.951539 0.546818 0.131275 0.469263
C54   C     C_R   0.050523 0.455430 0.368721 0.469591
C55   C     C_R   0.544527 0.050562 0.368723 0.469582
C56   C     C_R   0.949477 0.544572 0.368721 0.469590
C57   C     C_R   0.140971 1.000000 0.000000 0.912936
C58   C     C_R   0.455473 0.949437 0.368723 0.469582
C59   C     C_R   0.050577 0.544504 0.631277 0.469597
C60   C     C_R   0.544559 0.949464 0.631278 0.469598
C61   C     C_R   0.949436 0.455469 0.631276 0.469588
C62   C     C_R   0.455446 0.050535 0.631279 0.469595
C63   C     C_R   0.548819 0.953881 0.898438 -0.030990
C64   C     C_R   0.046197 0.548725 0.898431 -0.030993
C65   C     C_R   0.451190 0.046118 0.898436 -0.030992
C66   C     C_R   0.953796 0.451252 0.898436 -0.030890
C67   C     C_R   0.548796 0.046139 0.101563 -0.031005
C68   C     C_R   1.000000 0.140971 1.000000 0.912932
C69   C     C_R   0.046102 0.451170 0.101562 -0.030994
C70   C     C_R   0.451206 0.953860 0.101564 -0.031007
C71   C     C_R   0.953899 0.548831 0.101562 -0.030992
C72   C     C_R   0.049892 0.455080 0.398445 -0.024110
C73   C     C_R   0.544883 0.049925 0.398447 -0.024110
C74   C     C_R   0.950108 0.544921 0.398445 -0.024112
C75   C     C_R   0.455116 0.950075 0.398447 -0.024110
C76   C     C_R   0.049937 0.544867 0.601553 -0.024112
C77   C     C_R   0.544907 0.950094 0.601554 -0.024106
C78   C     C_R   0.950068 0.455121 0.601552 -0.024103
C79   C     C_R   0.859028 0.000000 1.000000 0.912930
C80   C     C_R   0.455094 0.049904 0.601554 -0.024110
C81   C     C_R   0.500003 1.000000 0.913373 -0.245812
C82   C     C_R   0.999999 0.499991 0.913371 -0.245890
C83   C     C_R   0.500001 1.000000 0.086628 -0.245816
C84   C     C_R   0.000000 0.500000 0.086627 -0.245789
C85   C     C_R   0.000000 0.500000 0.413379 -0.251128
C86   C     C_R   0.500000 0.000000 0.413380 -0.251113
C87   C     C_R   0.000001 0.499997 0.586619 -0.251104
C88   C     C_R   0.500000 0.999999 0.586620 -0.251118
C89   C     C_R   0.500008 0.999997 0.853926 -0.081202
C90   C     C_R   0.500000 0.359029 0.500000 0.914036
C91   C     C_R   1.000000 0.499967 0.853923 -0.081297
C92   C     C_R   0.500001 1.000000 0.146074 -0.081145
C93   C     C_R   0.000000 0.500001 0.146073 -0.081179
C94   C     C_R   0.000000 0.500001 0.353918 -0.088843
C95   C     C_R   0.500000 1.000000 0.353920 -0.088834
C96   C     C_R   0.000009 0.499983 0.646079 -0.088843
C97   C     C_R   0.500003 0.999999 0.646081 -0.088845
C98   C     C_1   0.782539 0.000000 1.000000 -0.145592
C99   C     C_1   0.000000 0.782539 0.000000 -0.145583
C100  C     C_1   0.217461 1.000000 0.000000 -0.145577
C101  C     C_R   0.640971 0.500000 0.500000 0.914036
C102  C     C_1   1.000000 0.217461 1.000000 -0.145587
C103  C     C_1   0.282539 0.500000 0.500000 -0.147281
C104  C     C_1   0.500000 0.282539 0.500000 -0.147282
C105  C     C_1   0.717461 0.500000 0.500000 -0.147282
C106  C     C_1   0.500000 0.717461 0.500000 -0.147282
C107  C     C_1   0.717722 0.000000 1.000000 -0.165867
C108  C     C_1   0.000000 0.717722 0.000000 -0.165854
C109  C     C_1   0.282278 1.000000 0.000000 -0.165854
C110  C     C_1   1.000000 0.282278 1.000000 -0.165857
C111  C     C_1   0.217722 0.500000 0.500000 -0.166779
C112  C     C_R   0.500000 0.640971 0.500000 0.914036
C113  C     C_1   0.500000 0.217722 0.500000 -0.166779
C114  C     C_1   0.782278 0.500000 0.500000 -0.166779
C115  C     C_1   0.500000 0.782278 0.500000 -0.166779
C116  C     C_R   0.500001 1.000000 0.944517 0.901730
C117  C     C_R   1.000000 0.499999 0.944516 0.901785
C118  C     C_R   0.500000 1.000000 0.055483 0.901743
C119  C     C_R   1.000000 0.500000 0.055482 0.901718
C120  C     C_R   0.000000 0.500000 0.444520 0.901482
C121  C     C_R   0.500000 0.000000 0.444520 0.901459
C122  C     C_R   0.000000 0.500000 0.555480 0.901455
C123  C     C_R   0.359028 0.500000 0.500000 0.914036
C124  C     C_R   0.500000 1.000000 0.555480 0.901472
C125  C     C_R   0.641244 0.000000 0.000000 0.917200
C126  C     C_R   1.000000 0.641244 0.000000 0.917225
C127  C     C_R   0.358756 1.000000 1.000000 0.917207
C128  C     C_R   1.000000 0.358756 0.000000 0.917223
C129  C     C_R   0.141244 0.500000 0.500000 0.917478
C130  C     C_R   0.500000 0.141244 0.500000 0.917477
C131  C     C_R   0.858756 0.500000 0.500000 0.917478
C132  C     C_R   0.500000 0.858756 0.500000 0.917476
C133  C     C_R   0.963481 0.445800 0.190398 0.714134
C134  C     C_R   0.546808 0.951521 0.868725 0.469269
C135  C     C_R   0.554241 0.963538 0.190399 0.714126
C136  C     C_R   0.036519 0.554202 0.190398 0.714134
C137  C     C_R   0.445763 0.036462 0.190399 0.714108
C138  C     C_R   0.963569 0.554225 0.809599 0.713983
C139  C     C_R   0.554221 0.036498 0.809601 0.714194
C140  C     C_R   0.036411 0.445692 0.809599 0.714355
C141  C     C_R   0.445798 0.963490 0.809601 0.714100
C142  C     C_R   0.448481 0.959804 0.690328 0.714830
C143  C     C_R   0.040135 0.448402 0.690325 0.714832
C144  C     C_R   0.551529 0.040192 0.690327 0.714841
H1    H     H_    0.213604 0.544337 0.207260 0.375089
H2    H     H_    0.026382 0.714201 0.706691 0.378523
H3    H     H_    0.285756 0.026118 0.706690 0.378521
H4    H     H_    0.973604 0.285754 0.706676 0.378563
H5    H     H_    0.714215 0.026350 0.293305 0.378515
H6    H     H_    0.026078 0.285745 0.293310 0.378522
H7    H     H_    0.285785 0.973650 0.293304 0.378513
H8    H     H_    0.973922 0.714257 0.293309 0.378522
H9    H     H_    0.718398 0.891180 0.836886 0.411556
H10   H     H_    0.109048 0.718108 0.836779 0.411577
H11   H     H_    0.281684 0.108707 0.836799 0.411567
H12   H     H_    0.455417 0.213569 0.207269 0.375086
H13   H     H_    0.890527 0.281576 0.837123 0.411592
H14   H     H_    0.718234 0.108815 0.163231 0.411559
H15   H     H_    0.108664 0.281627 0.163181 0.411551
H16   H     H_    0.281782 0.891205 0.163247 0.411561
H17   H     H_    0.891345 0.718374 0.163182 0.411551
H18   H     H_    0.228851 0.370591 0.356926 0.407367
H19   H     H_    0.629263 0.228949 0.356938 0.407368
H20   H     H_    0.771148 0.629410 0.356925 0.407368
H21   H     H_    0.370736 0.771051 0.356940 0.407368
H22   H     H_    0.228982 0.629199 0.643060 0.407361
H23   H     H_    0.786397 0.455666 0.207260 0.375089
H24   H     H_    0.629313 0.771098 0.643077 0.407360
H25   H     H_    0.771027 0.370785 0.643061 0.407362
H26   H     H_    0.370656 0.228886 0.643074 0.407361
H27   H     H_    0.576387 0.870274 0.924908 0.237273
H28   H     H_    0.632448 0.945039 0.926794 0.193201
H29   H     H_    0.129862 0.576184 0.924892 0.237302
H30   H     H_    0.055176 0.632351 0.926783 0.193264
H31   H     H_    0.423618 0.129726 0.924905 0.237257
H32   H     H_    0.367556 0.054962 0.926790 0.193220
H33   H     H_    0.870108 0.423843 0.924894 0.237309
H34   H     H_    0.544588 0.786431 0.207270 0.375086
H35   H     H_    0.944777 0.367653 0.926799 0.193271
H36   H     H_    0.576340 0.129757 0.075094 0.237280
H37   H     H_    0.632426 0.055009 0.073209 0.193222
H38   H     H_    0.129695 0.423571 0.075091 0.237259
H39   H     H_    0.054912 0.367534 0.073208 0.193201
H40   H     H_    0.423661 0.870242 0.075095 0.237278
H41   H     H_    0.367575 0.944989 0.073210 0.193224
H42   H     H_    0.870306 0.576430 0.075090 0.237258
H43   H     H_    0.945089 0.632467 0.073208 0.193201
H44   H     H_    0.073643 0.368710 0.424109 0.232990
H45   H     H_    0.213524 0.455258 0.792754 0.375105
H46   H     H_    0.131131 0.442046 0.427605 0.197134
H47   H     H_    0.631235 0.073726 0.424112 0.232967
H48   H     H_    0.557866 0.131170 0.427608 0.197119
H49   H     H_    0.926357 0.631291 0.424109 0.232990
H50   H     H_    0.868869 0.557955 0.427605 0.197134
H51   H     H_    0.368764 0.926274 0.424112 0.232967
H52   H     H_    0.442134 0.868831 0.427608 0.197120
H53   H     H_    0.073750 0.631217 0.575888 0.232965
H54   H     H_    0.131182 0.557839 0.572392 0.197111
H55   H     H_    0.631264 0.926315 0.575888 0.232986
H56   H     H_    0.455631 0.786409 0.792742 0.375086
H57   H     H_    0.557910 0.868849 0.572395 0.197121
H58   H     H_    0.926244 0.368781 0.575884 0.232965
H59   H     H_    0.868817 0.442165 0.572392 0.197110
H60   H     H_    0.368733 0.073678 0.575890 0.232985
H61   H     H_    0.442084 0.131147 0.572395 0.197124
H62   H     H_    0.786519 0.544581 0.792748 0.375048
H63   H     H_    0.544398 0.213584 0.792742 0.375092
H64   H     H_    0.714256 0.973872 0.706686 0.378531
N1    N     N_R   0.000000 0.500001 0.176427 -0.327342
N2    N     N_3   0.089182 0.602614 0.913145 -0.342643
N3    N     N_3   0.397242 0.089020 0.913153 -0.342652
N4    N     N_3   0.910786 0.397389 0.913154 -0.342682
N5    N     N_3   0.602730 0.089058 0.086846 -0.342661
N6    N     N_3   0.088983 0.397207 0.086844 -0.342678
N7    N     N_3   0.397271 0.910941 0.086846 -0.342652
N8    N     N_3   0.911018 0.602793 0.086843 -0.342675
N9    N     N_3   0.101802 0.409817 0.413211 -0.338790
N10   N     N_3   0.590114 0.101861 0.413214 -0.338774
N11   N     N_3   0.898199 0.590184 0.413211 -0.338788
N12   N     N_R   0.500002 1.000000 0.176428 -0.327340
N13   N     N_3   0.409886 0.898139 0.413214 -0.338775
N14   N     N_3   0.101880 0.590091 0.586786 -0.338782
N15   N     N_3   0.590151 0.898169 0.586788 -0.338800
N16   N     N_3   0.898120 0.409906 0.586784 -0.338786
N17   N     N_3   0.409846 0.101826 0.586788 -0.338792
N18   N     N_R   0.999997 0.499963 0.823570 -0.327324
N19   N     N_R   0.500009 0.999995 0.823573 -0.327335
N20   N     N_R   0.500004 0.999999 0.676377 -0.325270
N21   N     N_R   0.000009 0.499980 0.676376 -0.325271
N22   N     N_R   0.500000 1.000000 0.323623 -0.325269
N23   N     N_R   0.000000 0.500001 0.323622 -0.325271
N24   N     N_3   0.602765 0.910980 0.913157 -0.342695
O1    O     O_R   0.999960 0.892740 0.023680 -0.607582
O2    O     O_R   0.607260 0.499960 0.523680 -0.608352
O3    O     O_3   0.020025 0.280350 0.695988 -0.423092
O4    O     O_2   0.703135 0.840592 0.295139 -0.128026
O5    O     O_2   0.760812 0.914639 0.258156 -0.188794
O6    O     O_3   0.719628 0.979934 0.303995 -0.423089
O7    O     O_2   0.840334 0.297069 0.295137 -0.128044
O8    O     O_2   0.914318 0.239292 0.258159 -0.188820
O9    O     O_3   0.979653 0.280403 0.303999 -0.423137
O10   O     O_2   0.296867 0.159408 0.295137 -0.128024
O11   O     O_2   0.239190 0.085362 0.258154 -0.188799
O12   O     O_3   0.280373 0.020066 0.303994 -0.423089
O13   O     O_R   0.500040 0.607260 0.523680 -0.608352
O14   O     O_2   0.159665 0.702935 0.295136 -0.128044
O15   O     O_2   0.085681 0.760711 0.258158 -0.188823
O16   O     O_3   0.020347 0.719599 0.303999 -0.423137
O17   O     O_2   0.612332 0.818879 0.866989 -0.221395
O18   O     O_2   0.576687 0.870837 0.821408 -0.301503
O19   O     O_3   0.688561 0.927567 0.847358 -0.471938
O20   O     O_2   0.181278 0.612067 0.866980 -0.221260
O21   O     O_2   0.129312 0.576392 0.821405 -0.301687
O22   O     O_3   0.072693 0.688383 0.847315 -0.471895
O23   O     O_2   0.387644 0.181103 0.866986 -0.221251
O24   O     O_R   0.392740 0.500040 0.523680 -0.608350
O25   O     O_2   0.423355 0.129174 0.821409 -0.301661
O26   O     O_3   0.311467 0.072401 0.847336 -0.471901
O27   O     O_2   0.818558 0.388297 0.866951 -0.221613
O28   O     O_2   0.870938 0.423251 0.821361 -0.301448
O29   O     O_3   0.927036 0.311407 0.847533 -0.471933
O30   O     O_2   0.612319 0.181145 0.133002 -0.221252
O31   O     O_2   0.576522 0.129274 0.178579 -0.301603
O32   O     O_3   0.688473 0.072483 0.152698 -0.471894
O33   O     O_2   0.181059 0.387555 0.133007 -0.221301
O34   O     O_2   0.129174 0.423324 0.178585 -0.301571
O35   O     O_R   0.499960 0.607260 0.476320 -0.608350
O36   O     O_3   0.072330 0.311446 0.152674 -0.471914
O37   O     O_2   0.387676 0.818857 0.133003 -0.221221
O38   O     O_2   0.423485 0.870722 0.178579 -0.301632
O39   O     O_3   0.311532 0.927521 0.152701 -0.471893
O40   O     O_2   0.818943 0.612448 0.133007 -0.221294
O41   O     O_2   0.870829 0.576680 0.178585 -0.301579
O42   O     O_3   0.927673 0.688556 0.152672 -0.471913
O43   O     O_2   0.091449 0.319337 0.355249 -0.214457
O44   O     O_2   0.119592 0.412686 0.319651 -0.297811
O45   O     O_3   0.197990 0.409681 0.365287 -0.497020
O46   O     O_R   0.607260 0.500040 0.476320 -0.608350
O47   O     O_2   0.680577 0.091568 0.355222 -0.214405
O48   O     O_2   0.587149 0.119721 0.319657 -0.297814
O49   O     O_3   0.590208 0.198058 0.365307 -0.497047
O50   O     O_2   0.908552 0.680665 0.355248 -0.214453
O51   O     O_2   0.880408 0.587316 0.319651 -0.297813
O52   O     O_3   0.802010 0.590322 0.365287 -0.497020
O53   O     O_2   0.319423 0.908432 0.355222 -0.214406
O54   O     O_2   0.412852 0.880278 0.319657 -0.297814
O55   O     O_3   0.409792 0.801942 0.365308 -0.497048
O56   O     O_2   0.091617 0.680545 0.644775 -0.214416
O57   O     O_R   0.500040 0.392740 0.476320 -0.608350
O58   O     O_2   0.119739 0.587115 0.680343 -0.297804
O59   O     O_3   0.198083 0.590145 0.634695 -0.497049
O60   O     O_2   0.680640 0.908475 0.644740 -0.214458
O61   O     O_2   0.587304 0.880397 0.680349 -0.297819
O62   O     O_3   0.590232 0.801977 0.634718 -0.497020
O63   O     O_2   0.908388 0.319424 0.644764 -0.214422
O64   O     O_2   0.880286 0.412835 0.680342 -0.297803
O65   O     O_3   0.801927 0.409841 0.634697 -0.497042
O66   O     O_2   0.319364 0.091497 0.644751 -0.214454
O67   O     O_2   0.412719 0.119613 0.680349 -0.297815
O68   O     O_R   0.392740 0.499960 0.476320 -0.608351
O69   O     O_3   0.409737 0.198014 0.634713 -0.497023
O70   O     O_R   0.500020 0.060670 0.958090 -0.620513
O71   O     O_R   0.939330 0.500020 0.958090 -0.620555
O72   O     O_R   0.499980 0.939330 0.958090 -0.620501
O73   O     O_R   0.107260 0.999960 0.023680 -0.607582
O74   O     O_R   0.060670 0.499980 0.958090 -0.620541
O75   O     O_R   0.500020 0.939330 0.041910 -0.620515
O76   O     O_R   0.939330 0.499980 0.041910 -0.620494
O77   O     O_R   0.499980 0.060670 0.041910 -0.620514
O78   O     O_R   0.060670 0.500020 0.041910 -0.620494
O79   O     O_R   0.000020 0.560670 0.458090 -0.620862
O80   O     O_R   0.439330 0.000020 0.458090 -0.620845
O81   O     O_R   0.999980 0.439330 0.458090 -0.620862
O82   O     O_R   0.560670 0.999980 0.458090 -0.620845
O83   O     O_R   0.000020 0.439330 0.541910 -0.620840
O84   O     O_R   0.000040 0.107260 0.023680 -0.607583
O85   O     O_R   0.439330 0.999980 0.541910 -0.620853
O86   O     O_R   0.999980 0.560670 0.541910 -0.620837
O87   O     O_R   0.560670 0.000020 0.541910 -0.620852
O88   O     O_R   0.607320 0.060650 0.000010 -0.612357
O89   O     O_R   0.939350 0.607320 0.000010 -0.612350
O90   O     O_R   0.392680 0.939350 0.000010 -0.612351
O91   O     O_R   0.060650 0.392680 0.000010 -0.612345
O92   O     O_R   0.607320 0.939350 0.999990 -0.612350
O93   O     O_R   0.939350 0.392680 0.999990 -0.612361
O94   O     O_R   0.392680 0.060650 0.999990 -0.612349
O95   O     O_R   0.892740 0.000040 0.023680 -0.607579
O96   O     O_R   0.060650 0.607320 0.999990 -0.612350
O97   O     O_R   0.107320 0.560650 0.500010 -0.612733
O98   O     O_R   0.439350 0.107320 0.500010 -0.612736
O99   O     O_R   0.892680 0.439350 0.500010 -0.612734
O100  O     O_R   0.560650 0.892680 0.500010 -0.612736
O101  O     O_R   0.107320 0.439350 0.499990 -0.612737
O102  O     O_R   0.439350 0.892680 0.499990 -0.612734
O103  O     O_R   0.892680 0.560650 0.499990 -0.612736
O104  O     O_R   0.560650 0.107320 0.499990 -0.612734
O105  O     O_2   0.934726 0.390150 0.175279 -0.418887
O106  O     O_R   0.999960 0.107260 0.976320 -0.607590
O107  O     O_2   0.609917 0.934836 0.175280 -0.418884
O108  O     O_2   0.065274 0.609853 0.175279 -0.418886
O109  O     O_2   0.390086 0.065165 0.175279 -0.418890
O110  O     O_2   0.934913 0.609928 0.824717 -0.418958
O111  O     O_2   0.609881 0.065233 0.824720 -0.418933
O112  O     O_2   0.065039 0.389974 0.824717 -0.418991
O113  O     O_2   0.390139 0.934751 0.824720 -0.418922
O114  O     O_2   0.404550 0.915064 0.675236 -0.433992
O115  O     O_2   0.084823 0.404419 0.675233 -0.434000
O116  O     O_2   0.595458 0.084933 0.675235 -0.434000
O117  O     O_R   0.107260 0.000040 0.976320 -0.607581
O118  O     O_2   0.915196 0.595541 0.675234 -0.433996
O119  O     O_2   0.404449 0.084824 0.324765 -0.434003
O120  O     O_2   0.084952 0.595439 0.324764 -0.433998
O121  O     O_2   0.595552 0.915175 0.324766 -0.434003
O122  O     O_2   0.915048 0.404563 0.324764 -0.433999
O123  O     O_2   0.141506 0.715895 0.204946 -0.128290
O124  O     O_2   0.219778 0.664967 0.242098 -0.198702
O125  O     O_3   0.202555 0.589396 0.196354 -0.439495
O126  O     O_2   0.283949 0.141258 0.204946 -0.128283
O127  O     O_2   0.334773 0.219581 0.242102 -0.198704
O128  O     O_R   0.000040 0.892740 0.976320 -0.607586
O129  O     O_3   0.410376 0.202462 0.196361 -0.439491
O130  O     O_2   0.858493 0.284108 0.204947 -0.128290
O131  O     O_2   0.780222 0.335037 0.242098 -0.198699
O132  O     O_3   0.797445 0.410607 0.196354 -0.439498
O133  O     O_2   0.716055 0.858744 0.204947 -0.128279
O134  O     O_2   0.665230 0.780420 0.242104 -0.198706
O135  O     O_3   0.589628 0.797538 0.196362 -0.439492
O136  O     O_2   0.141128 0.283824 0.795049 -0.128246
O137  O     O_2   0.219508 0.334642 0.757909 -0.198729
O138  O     O_3   0.202378 0.410218 0.803657 -0.439558
O139  O     O_R   0.892740 0.999960 0.976320 -0.607601
O140  O     O_2   0.284085 0.858536 0.795053 -0.128310
O141  O     O_2   0.334999 0.780252 0.757903 -0.198697
O142  O     O_3   0.410572 0.797463 0.803647 -0.439515
O143  O     O_2   0.858799 0.716063 0.795050 -0.128279
O144  O     O_2   0.780456 0.665227 0.757903 -0.198661
O145  O     O_3   0.797591 0.589643 0.803648 -0.439557
O146  O     O_2   0.715939 0.141444 0.795052 -0.128319
O147  O     O_2   0.665026 0.219733 0.757903 -0.198664
O148  O     O_3   0.589456 0.202523 0.803647 -0.439559
O149  O     O_2   0.702973 0.159619 0.704862 -0.128030
O150  O     O_R   0.499960 0.392740 0.523680 -0.608352
O151  O     O_2   0.760736 0.085617 0.741839 -0.188750
O152  O     O_3   0.719605 0.020297 0.695997 -0.423145
O153  O     O_2   0.840623 0.703129 0.704863 -0.128018
O154  O     O_2   0.914684 0.760803 0.741842 -0.188766
O155  O     O_3   0.979964 0.719610 0.696001 -0.423091
O156  O     O_2   0.297042 0.840371 0.704864 -0.128034
O157  O     O_2   0.239280 0.914367 0.741842 -0.188798
O158  O     O_3   0.280404 0.979693 0.696001 -0.423134
O159  O     O_2   0.159366 0.296803 0.704860 -0.128045
O160  O     O_2   0.085280 0.239122 0.741830 -0.188699
S1    S     S_3+6 0.163607 0.646621 0.219917 0.177062
S2    S     S_3+6 0.913486 0.701595 0.719712 0.184364
S3    S     S_3+6 0.298491 0.913236 0.719712 0.184339
S4    S     S_3+6 0.086497 0.298341 0.719705 0.184400
S5    S     S_3+6 0.701607 0.913452 0.280287 0.184350
S6    S     S_3+6 0.913199 0.298503 0.280288 0.184329
S7    S     S_3+6 0.298395 0.086549 0.280286 0.184348
S8    S     S_3+6 0.086800 0.701499 0.280287 0.184327
S9    S     S_3+6 0.605286 0.888929 0.850432 0.107269
S10   S     S_3+6 0.111232 0.605070 0.850418 0.107247
S11   S     S_3+6 0.394727 0.111062 0.850426 0.107260
S12   S     S_3+6 0.353193 0.163439 0.219920 0.177060
S13   S     S_3+6 0.888733 0.394875 0.850445 0.107346
S14   S     S_3+6 0.605213 0.111126 0.149574 0.107254
S15   S     S_3+6 0.111030 0.394685 0.149572 0.107262
S16   S     S_3+6 0.394789 0.888874 0.149575 0.107253
S17   S     S_3+6 0.888971 0.605317 0.149571 0.107263
S18   S     S_3+6 0.114526 0.397611 0.350877 0.102249
S19   S     S_3+6 0.602286 0.114617 0.350877 0.102228
S20   S     S_3+6 0.885475 0.602392 0.350877 0.102249
S21   S     S_3+6 0.397714 0.885382 0.350878 0.102228
S22   S     S_3+6 0.114644 0.602249 0.649123 0.102231
S23   S     S_3+6 0.836392 0.353382 0.219917 0.177062
S24   S     S_3+6 0.602358 0.885441 0.649121 0.102257
S25   S     S_3+6 0.885369 0.397720 0.649120 0.102235
S26   S     S_3+6 0.397643 0.114552 0.649123 0.102248
S27   S     S_3+6 0.646811 0.836562 0.219921 0.177061
S28   S     S_3+6 0.163353 0.353069 0.780086 0.177032
S29   S     S_3+6 0.353355 0.836420 0.780084 0.177044
S30   S     S_3+6 0.836607 0.646814 0.780083 0.177065
S31   S     S_3+6 0.646669 0.163564 0.780083 0.177041
S32   S     S_3+6 0.701523 0.086752 0.719710 0.184361
Zn1   Zn    Zn3+2 1.000000 0.000000 0.031620 1.067510
Zn2   Zn    Zn3+2 0.419020 0.000000 0.500000 1.011024
Zn3   Zn    Zn3+2 0.000000 0.419020 0.500000 1.011023
Zn4   Zn    Zn3+2 0.580980 0.000000 0.500000 1.011025
Zn5   Zn    Zn3+2 1.000000 0.000000 0.968380 1.067480
Zn6   Zn    Zn3+2 0.500000 0.500000 0.531620 1.059907
Zn7   Zn    Zn3+2 0.500000 0.500000 0.468380 1.059913
Zn8   Zn    Zn3+2 0.500000 0.080980 0.000000 1.013518
Zn9   Zn    Zn3+2 0.919020 0.500000 0.000000 1.013506
Zn10  Zn    Zn3+2 0.500000 0.919020 0.000000 1.013530
Zn11  Zn    Zn3+2 0.080980 0.500000 0.000000 1.013522
Zn12  Zn    Zn3+2 1.000000 0.580980 0.500000 1.011024

loop_
_geom_bond_atom_site_label_1
_geom_bond_atom_site_label_2
_ccdc_geom_bond_type
C141  N19   A    
H13   O29   S    
C8    C26   A    
H29   N2    S    
C52   S16   S    
C103  C123  S    
C41   S30   S    
C1    C99   S    
H28   N24   S    
H44   N9    S    
O15   S8    D    
H9    O19   S    
C40   S29   S    
O44   S18   D    
H36   N5    S    
O86   Zn12  S    
C13   S11   S    
C71   N8    S    
C68   O84   A    
C127  O90   A    
H56   O142  S    
C138  N18   A    
O93   Zn9   S    
O20   S10   D    
C109  C127  S    
O153  S2    D    
H19   O49   S    
C77   C88   A    
C1    O1    A    
O151  S32   D    
C58   C75   A    
O45   S18   S    
C5    N23   A    
C80   N17   S    
O63   S25   D    
C129  O101  A    
C21   C48   A    
O147  S31   D    
C37   S23   S    
C100  C109  T    
C17   C30   A    
O36   S15   S    
C64   N2    S    
C48   S5    S    
O56   S22   D    
C124  O87   A    
O17   S9    D    
C101  O46   A    
C24   S13   S    
H51   N13   S    
H11   O26   S    
C142  O114  S    
H40   N7    S    
C6    C21   A    
C139  O111  S    
O82   Zn4   S    
O69   S26   S    
C17   C43   A    
O28   S13   D    
C18   C44   A    
C66   C82   A    
O90   Zn10  S    
C75   C86   A    
C11   C27   A    
C86   C121  S    
H2    O155  S    
C51   S8    S    
C90   C104  S    
C123  O24   A    
C22   C49   A    
C5    C25   A    
H14   O32   S    
C120  O79   A    
O70   Zn8   S    
C140  O112  S    
C66   N4    S    
C53   C71   A    
H46   N9    S    
C36   C50   A    
C39   C47   A    
C124  O85   A    
H64   O152  S    
O35   Zn7   S    
C69   N6    S    
H26   O69   S    
O13   Zn6   S    
C87   C122  S    
O131  S23   D    
O134  S27   D    
C128  O91   A    
H50   N11   S    
C7    C22   A    
C140  N18   A    
C106  C115  T    
C121  O82   A    
O59   S22   S    
O71   Zn9   S    
O91   Zn11  S    
C120  O81   A    
O137  S28   D    
O1    Zn1   S    
C121  O80   A    
O92   Zn10  S    
H59   N16   S    
O14   S8    D    
O22   S10   S    
O98   Zn2   S    
C20   C47   A    
C97   N20   S    
C117  O74   A    
C80   C88   A    
C118  O77   A    
C101  O2    A    
O43   S18   D    
C128  O93   A    
C138  O110  S    
O85   Zn2   S    
O96   Zn11  S    
C108  C126  S    
H60   N17   S    
C19   C30   A    
C78   N16   S    
O81   Zn3   S    
C78   C87   A    
C67   C83   A    
O47   S19   D    
O49   S19   S    
C4    O119  S    
C133  N1    A    
O79   Zn12  S    
O50   S20   D    
C95   N22   S    
O160  S4    D    
C72   C85   A    
C61   C96   A    
O145  S30   S    
C1    O128  A    
C34   C51   A    
C17   C144  A    
O61   S24   D    
C139  N19   A    
O4    S5    D    
C125  O88   A    
C84   C119  S    
C116  O72   A    
C90   O57   A    
C143  O115  S    
C5    O120  S    
O29   S13   S    
C50   S7    S    
H20   O52   S    
H45   O138  S    
C134  S9    S    
O126  S12   D    
H6    O9    S    
C60   S24   S    
C119  O78   A    
C9    C36   A    
C135  O107  S    
H31   N3    S    
C2    S10   S    
C34   S1    S    
C38   C48   A    
O48   S19   D    
C118  O75   A    
C117  O71   A    
C62   S26   S    
H18   O45   S    
C77   N15   S    
O127  S12   D    
C3    O118  S    
C115  C132  S    
C112  O13   A    
O136  S28   D    
C113  C130  S    
C127  O94   A    
O135  S27   S    
C107  C125  S    
O124  S1    D    
O141  S29   D    
H62   O145  S    
C137  O109  S    
H15   O36   S    
C43   S32   S    
H35   N4    S    
C57   O73   A    
C58   C95   A    
C29   C30   A    
C7    O122  S    
C62   C97   A    
C26   C33   A    
O143  S30   D    
C35   C67   A    
O10   S7    D    
C8    C34   A    
C96   N21   S    
O9    S6    S    
C76   C87   A    
O55   S21   S    
O42   S17   S    
O58   S22   D    
H22   O59   S    
C122  O86   A    
C6    N22   A    
C91   N18   S    
O99   Zn3   S    
H23   O132  S    
C79   O95   A    
C59   C96   A    
O104  Zn4   S    
C14   C29   A    
O38   S16   D    
O75   Zn10  S    
C45   S3    S    
H49   N11   S    
H43   N8    S    
O146  S31   D    
C125  O92   A    
C36   S12   S    
O23   S11   D    
C19   C45   A    
C142  N20   A    
C18   C31   A    
C24   C66   A    
C133  O105  S    
O16   S8    S    
H12   O129  S    
H4    O3    S    
H21   O55   S    
C69   C84   A    
C57   O117  A    
O87   Zn4   S    
O68   Zn7   S    
C135  N12   A    
C81   C116  S    
C38   S27   S    
C73   N10   S    
O21   S10   D    
C74   C85   A    
C2    C91   A    
O57   Zn7   S    
C67   N5    S    
O60   S24   D    
C104  C113  T    
C55   C73   A    
C16   C29   A    
C110  C128  S    
O40   S17   D    
O152  S32   S    
H57   N15   S    
H37   N5    S    
O7    S6    D    
C59   C76   A    
O77   Zn8   S    
C25   C33   A    
C8    C136  A    
C114  C131  S    
C10   C133  A    
O41   S17   D    
C3    N21   A    
O72   Zn10  S    
O46   Zn7   S    
O144  S30   D    
C7    N23   A    
C56   C94   A    
C122  O83   A    
C12   C28   A    
C70   N7    S    
H33   N4    S    
H34   O135  S    
C68   C102  S    
O11   S7    D    
O130  S23   D    
C42   S31   S    
C103  C111  T    
H63   O148  S    
C9    C137  A    
C111  C129  S    
C12   C140  A    
H61   N17   S    
O88   Zn8   S    
O12   S7    S    
H52   N13   S    
O150  Zn6   S    
C88   C124  S    
C35   C92   A    
C20   C143  A    
O83   Zn3   S    
H47   N10   S    
C40   C45   A    
O27   S13   D    
C56   C74   A    
C63   C134  A    
H58   N16   S    
O149  S32   D    
C15   C41   A    
C60   C97   A    
O133  S27   D    
O158  S3    S    
O125  S1    S    
C23   C50   A    
C13   C65   A    
O129  S12   S    
C98   C107  T    
H41   N7    S    
C11   C38   A    
O32   S14   S    
C53   S17   S    
C99   C108  T    
C11   C135  A    
O34   S15   D    
O31   S14   D    
C37   C49   A    
O138  S28   S    
C130  O98   A    
O101  Zn3   S    
H5    O6    S    
C143  N21   A    
C70   C83   A    
C112  O35   A    
O157  S3    D    
C19   C142  A    
C59   S22   S    
C102  C110  T    
H55   N15   S    
C42   C43   A    
O154  S2    D    
C9    C27   A    
H10   O22   S    
C62   C80   A    
O51   S20   D    
C4    C23   A    
O33   S15   D    
H16   O39   S    
O80   Zn2   S    
C27   C32   A    
C28   C31   A    
C35   S14   S    
H24   O62   S    
H32   N3    S    
C23   C32   A    
C12   C39   A    
O62   S24   S    
O139  Zn5   S    
O155  S2    S    
H3    O158  S    
C15   C28   A    
O89   Zn9   S    
O117  Zn5   S    
C144  O116  S    
H8    O16   S    
H17   O42   S    
C136  N1    A    
C6    O121  S    
C126  O96   A    
O3    S4    S    
O123  S1    D    
C82   C117  S    
C141  O113  S    
C136  O108  S    
O94   Zn8   S    
O19   S9    S    
O54   S21   D    
O65   S25   S    
C79   C98   S    
C123  O68   A    
H48   N10   S    
C129  O97   A    
C49   S6    S    
C90   O150  A    
O132  S23   S    
C106  C112  S    
O156  S3    D    
C72   N9    S    
C126  O89   A    
C63   C81   A    
C10   C37   A    
O84   Zn1   S    
C83   C118  S    
H54   N14   S    
C132  O100  A    
C130  O104  A    
O102  Zn2   S    
C131  O99   A    
O78   Zn11  S    
C3    C18   A    
C92   N12   S    
O100  Zn4   S    
O76   Zn9   S    
C46   C69   A    
C44   S2    S    
H7    O12   S    
O97   Zn12  S    
C65   C81   A    
C58   S21   S    
H42   N8    S    
C74   N11   S    
C54   S18   S    
O6    S5    S    
O95   Zn1   S    
C116  O70   A    
C15   C138  A    
C131  O103  A    
C10   C26   A    
H39   N6    S    
O2    Zn6   S    
C14   C141  A    
C89   N19   S    
O39   S16   S    
C2    C64   A    
C94   N23   S    
C101  C105  S    
O159  S4    D    
C21   C32   A    
C60   C77   A    
C65   N3    S    
C119  O76   A    
C53   C93   A    
C105  C114  T    
C55   C95   A    
H53   N14   S    
H1    O125  S    
O53   S21   D    
C76   N14   S    
O26   S11   S    
C57   C100  S    
C4    N22   A    
C85   C120  S    
C25   C51   A    
C79   O139  A    
O148  S31   S    
O24   Zn6   S    
O106  Zn5   S    
C61   C78   A    
C56   S20   S    
C39   S28   S    
C55   S19   S    
C64   C82   A    
C93   N1    S    
C61   S25   S    
O140  S29   D    
O25   S11   D    
C16   C139  A    
C24   C91   A    
C16   C42   A    
O52   S20   S    
C71   C84   A    
C22   C33   A    
H27   N24   S    
O5    S5    D    
C89   C134  A    
C13   C89   A    
H30   N2    S    
O37   S16   D    
C47   S4    S    
O66   S26   D    
C132  O102  A    
O128  Zn5   S    
O142  S29   S    
O74   Zn11  S    
C68   O106  A    
O64   S25   D    
O73   Zn1   S    
C46   C93   A    
C137  N12   A    
C41   C44   A    
C46   S15   S    
C73   C86   A    
C54   C94   A    
C52   C70   A    
C14   C40   A    
O30   S14   D    
O67   S26   D    
C54   C72   A    
C75   N13   S    
O18   S9    D    
O8    S6    D    
H38   N6    S    
O103  Zn12  S    
C144  N20   A    
H25   O65   S    
C52   C92   A    
C63   N24   S    
C20   C31   A    
