data_mof_unit_55099.cif
_audit_creation_date              2013-03-05T16:04:39-0500
_audit_creation_method            fapswitch 2.2
_symmetry_space_group_name_H-M    P1
_symmetry_Int_Tables_number       1
_space_group_crystal_system       triclinic
_cell_length_a                    9.661076
_cell_length_b                    10.90177
_cell_length_c                    15.888402
_cell_angle_alpha                 88.99941
_cell_angle_beta                  70.284237
_cell_angle_gamma                 89.19835
_cell_volume                      1575.01379315

loop_
_atom_site_label
_atom_site_type_symbol
_atom_site_description
_atom_site_fract_x
_atom_site_fract_y
_atom_site_fract_z
_atom_type_partial_charge
O1    O     O_R   0.118740 0.319660 0.500000 -0.575692
O2    O     O_R   0.881260 0.680340 0.500000 -0.591384
O3    O     O_R   0.881170 0.319630 0.500010 -0.539407
O4    O     O_R   0.118830 0.680370 0.499990 -0.548875
C1    C     C_R   0.001653 0.262425 0.500556 0.892695
C2    C     C_R   0.996798 0.737357 0.502622 0.800161
O5    O     O_R   0.055570 0.500030 0.629830 -0.622297
O6    O     O_R   0.944430 0.499970 0.370170 -0.594410
O7    O     O_R   0.818000 0.500000 0.629840 -0.510889
O8    O     O_R   0.182000 0.500000 0.370160 -0.541770
C3    C     C_R   0.913474 0.510807 0.671580 0.806927
C4    C     C_R   0.086473 0.496177 0.328614 0.844771
Cu1   Cu    Cu3+1 0.140660 0.500020 0.500000 0.997068
Cu2   Cu    Cu3+1 0.859340 0.499980 0.500000 1.022270
C5    C     C_R   0.857433 0.527909 0.770279 -0.129645
C6    C     C_R   0.142375 0.480326 0.231255 -0.135633
C7    C     C_R   0.896922 0.554235 0.911393 -0.199340
C8    C     C_R   0.120651 0.516242 0.085505 -0.127568
C9    C     C_R   0.950301 0.562532 0.817942 0.004879
C10   C     C_R   0.086451 0.552297 0.175014 0.022303
C11   C     C_R   0.706336 0.511756 0.819175 -0.056453
C12   C     C_R   0.260691 0.398036 0.191351 -0.062751
C13   C     C_R   0.665861 0.470750 0.909693 0.015728
C14   C     C_R   0.323830 0.399924 0.097769 0.007915
C15   C     C_R   0.759502 0.501878 0.958057 0.018353
C16   C     C_R   0.231631 0.429338 0.048877 0.006438
C17   C     C_R   0.526640 0.418318 0.956776 0.036090
C18   C     C_R   0.476809 0.408902 0.051372 0.038743
C19   C     C_R   0.572541 0.437045 0.096932 -0.195552
C20   C     C_R   0.428588 0.382775 0.913683 -0.214125
C21   C     C_R   0.709627 0.487201 0.052335 0.014407
C22   C     C_R   0.277242 0.396139 0.958651 -0.007837
H1    H     H_    0.965356 0.587545 0.946738 0.146219
H2    H     H_    0.077650 0.567134 0.041414 0.141906
H3    H     H_    0.534030 0.436679 0.169187 0.153072
H4    H     H_    0.469359 0.359611 0.844074 0.169900
C23   C     C_R   0.871843 0.068846 0.515243 -0.207433
C24   C     C_R   0.124802 0.930498 0.493771 -0.209959
H5    H     H_    0.772554 0.121911 0.523528 0.197198
H6    H     H_    0.223688 0.877070 0.485888 0.195551
C25   C     C_R   0.861267 0.941881 0.519617 0.140698
C26   C     C_R   0.134702 0.057407 0.492680 0.175301
C27   C     C_R   0.991801 0.871385 0.505728 -0.089243
C28   C     C_R   0.005245 0.128135 0.502190 -0.069373
C29   C     C_R   0.534091 0.445399 0.568246 0.127200
C30   C     C_R   0.465726 0.553541 0.431042 0.104967
C31   C     C_R   0.387060 0.448162 0.568357 -0.117814
C32   C     C_R   0.612764 0.552040 0.431410 -0.083105
H7    H     H_    0.300786 0.405939 0.623092 0.161425
H8    H     H_    0.698575 0.594876 0.376745 0.141488
N1    N     N_R   0.352080 0.500030 0.499980 -0.178081
N2    N     N_R   0.647920 0.499970 0.500020 -0.169075
C33   C     C_2   0.784019 0.542647 0.108946 0.281927
H9    H     H_    0.838660 0.629430 0.089121 0.129426
O9    O     O_2   0.777735 0.495132 0.180346 -0.569293
C34   C     C_2   0.168902 0.371655 0.914172 0.422687
H10   H     H_    0.052841 0.369361 0.953354 0.073791
O10   O     O_2   0.207724 0.349957 0.834393 -0.561961
C35   C     C_2   0.306145 0.297806 0.241268 0.350358
H11   H     H_    0.410406 0.250431 0.211479 0.085800
O11   O     O_2   0.222958 0.259873 0.312722 -0.570262
C36   C     C_2   0.596034 0.583326 0.790284 0.355873
H12   H     H_    0.479546 0.578451 0.826985 0.127108
O12   O     O_2   0.634555 0.658571 0.729192 -0.553379
C37   C     C_2   0.004910 0.668830 0.206561 0.400856
H13   H     H_    0.960189 0.689370 0.277129 0.062679
O13   O     O_2   0.993165 0.746992 0.153362 -0.551618
C38   C     C_2   0.095290 0.621398 0.773265 0.413603
H14   H     H_    0.121567 0.662557 0.707207 0.084855
O14   O     O_2   0.185989 0.628318 0.811028 -0.553155
C39   C     C_3   0.707783 0.889849 0.541425 -0.351448
C40   C     C_3   0.670690 0.869588 0.456596 -0.779301
H15   H     H_    0.753716 0.809253 0.409701 0.256671
H16   H     H_    0.560899 0.826463 0.474256 0.240574
H17   H     H_    0.667564 0.958857 0.422448 0.247616
H18   H     H_    0.691651 0.805514 0.583241 0.262510
H19   H     H_    0.624847 0.955032 0.583913 0.200085
C41   C     C_3   0.285095 0.108371 0.483676 -0.360548
C42   C     C_3   0.296108 0.134106 0.575350 -0.792796
H20   H     H_    0.405317 0.173631 0.567011 0.240017
H21   H     H_    0.208868 0.199252 0.613035 0.266115
H22   H     H_    0.284425 0.047359 0.614799 0.253289
H23   H     H_    0.373101 0.040703 0.450535 0.191330
H24   H     H_    0.314900 0.189598 0.438853 0.258334
C43   C     C_2   0.553937 0.381759 0.645532 0.390250
H25   H     H_    0.471279 0.395365 0.710116 0.073593
O15   O     O_2   0.650551 0.305625 0.637833 -0.548571
C44   C     C_2   0.443292 0.614981 0.353366 0.381923
H26   H     H_    0.513830 0.591320 0.286548 0.075079
O16   O     O_2   0.355584 0.699238 0.362527 -0.539977

loop_
_geom_bond_atom_site_label_1
_geom_bond_atom_site_label_2
_geom_bond_distance
_ccdc_geom_bond_type
C15   C21   1.417171 A    
O5    Cu1   1.945962 S    
C24   H6    1.083453 S    
C16   C22   1.402736 A    
C8    C16   1.398457 A    
C31   H7    1.081931 S    
C33   H9    1.079044 S    
C5    C9    1.413790 A    
C7    H1    1.071775 S    
O1    C1    1.296841 A    
C18   C19   1.393159 A    
C14   C16   1.396385 A    
C24   C26   1.387572 A    
C39   H18   1.106249 S    
C34   H10   1.083837 S    
C29   C31   1.419788 A    
O4    Cu1   1.974480 S    
C36   O12   1.220884 D    
Cu1   N1    2.042438 S    
C3    C5    1.490502 S    
C41   H23   1.112797 S    
Cu2   N2    2.042439 S    
C4    C6    1.468824 S    
C38   H14   1.083666 S    
C37   O13   1.220757 D    
C6    C12   1.419709 A    
C13   C17   1.422368 A    
C6    C10   1.412580 A    
C25   C39   1.520064 S    
C32   H8    1.081926 S    
C35   H11   1.085211 S    
Cu1   Cu2   2.717861 S    
C17   C20   1.404787 A    
C25   C27   1.421536 A    
O2    C2    1.298363 A    
C26   C28   1.425195 A    
C40   H17   1.110936 S    
O5    C3    1.312325 A    
C30   C44   1.471841 S    
C33   O9    1.221820 D    
C30   C32   1.422381 A    
C35   O11   1.217822 D    
C43   O15   1.216524 D    
C10   C37   1.487815 S    
C40   H16   1.110577 S    
C12   C35   1.485626 S    
C42   H21   1.109449 S    
C41   C42   1.526839 S    
C31   N1    1.354668 A    
C29   N2    1.389183 A    
C43   H25   1.077859 S    
C30   N1    1.389140 A    
C24   C27   1.398792 A    
C29   C43   1.466744 S    
O7    Cu2   1.964531 S    
C36   H12   1.080368 S    
O7    C3    1.312622 A    
C32   N2    1.359684 A    
O6    C4    1.307231 A    
C9    C38   1.488690 S    
C21   C33   1.469093 S    
C8    H2    1.071207 S    
C11   C36   1.499781 S    
O3    Cu2   1.974480 S    
O8    C4    1.304713 A    
O4    C2    1.313321 A    
C1    C28   1.463913 S    
C44   O16   1.217625 D    
C26   C41   1.523094 S    
C2    C27   1.462402 S    
C11   C13   1.422709 A    
C12   C14   1.403779 A    
O1    Cu1   1.980558 S    
C39   H19   1.112909 S    
O6    Cu2   1.945962 S    
C14   C18   1.415540 A    
C40   H15   1.109199 S    
O3    C1    1.315370 A    
O8    Cu1   1.964533 S    
C42   H22   1.111067 S    
C19   H3    1.080786 S    
C20   H4    1.074770 S    
C7    C15   1.407260 A    
C23   C28   1.400026 A    
C39   C40   1.527171 S    
C23   H5    1.083549 S    
C20   C22   1.400874 A    
C7    C9    1.399535 A    
C34   O10   1.220891 D    
C8    C10   1.408913 A    
C13   C15   1.418032 A    
C23   C25   1.388143 A    
O2    Cu2   1.980558 S    
C42   H20   1.110317 S    
C41   H24   1.104987 S    
C5    C11   1.415171 A    
C44   H26   1.083749 S    
C19   C21   1.388756 A    
C37   H13   1.083127 S    
C17   C18   1.417418 A    
C38   O14   1.221327 D    
C22   C34   1.476373 S    
