data_mof_unit_44271.cif
_audit_creation_date              2012-12-10T17:22:02-0500
_audit_creation_method            fapswitch 2.2
_symmetry_space_group_name_H-M    P1
_symmetry_Int_Tables_number       1
_space_group_crystal_system       triclinic
_cell_length_a                    10.25553
_cell_length_b                    10.335122
_cell_length_c                    15.743944
_cell_angle_alpha                 90.885422
_cell_angle_beta                  81.993533
_cell_angle_gamma                 95.06644
_cell_volume                      1646.00363706

loop_
_atom_site_label
_atom_site_type_symbol
_atom_type_description
_atom_site_fract_x
_atom_site_fract_y
_atom_site_fract_z
_atom_type_partial_charge
C1    C     C_R   0.553795 0.734434 0.487124 0.915488
C2    C     C_2   0.488796 0.927952 0.421182 0.188528
C3    C     C_2   0.416230 0.125185 0.492143 0.276007
C4    C     C_R   0.500705 0.499738 0.661262 0.906958
C5    C     C_2   0.491130 0.068085 0.428174 -0.238689
C6    C     C_2   0.932112 0.538003 0.491512 0.188678
C7    C     C_2   0.081057 0.526807 0.475721 0.044246
C8    C     C_R   0.444958 0.264570 0.503395 0.775561
C9    C     C_R   0.499166 0.499647 0.338736 0.868378
C10   C     C_3   0.372836 0.547603 0.959723 0.161933
C11   C     C_3   0.620180 0.596297 0.940747 -0.129823
C12   C     C_3   0.360385 0.536226 0.059305 0.791402
C13   C     C_3   0.614534 0.600996 0.041335 -0.207246
C14   C     C_1   0.497363 0.500629 0.250240 -0.202489
C15   C     C_3   0.506235 0.495979 0.916325 -0.058994
C16   C     C_3   0.373511 0.854593 0.384396 -0.303710
C17   C     C_3   0.319796 0.929374 0.314884 -0.387858
C18   C     C_3   0.191981 0.859279 0.291766 -0.849769
C19   C     C_3   0.890951 0.669742 0.525444 -0.326032
C20   C     C_3   0.992256 0.770144 0.559120 -0.361172
C21   C     C_3   0.938032 0.903379 0.570821 -0.902616
C22   C     C_3   0.900568 0.344455 0.412750 -0.286078
C23   C     C_3   0.498147 0.502118 0.083243 0.008203
C24   C     C_3   0.800944 0.235405 0.391990 -0.287935
C25   C     C_3   0.867387 0.133218 0.334083 -0.978443
C26   C     C_3   0.760967 0.574518 0.893249 -0.367923
C27   C     C_3   0.839952 0.702529 0.862542 -0.395928
C28   C     C_3   0.981404 0.680310 0.824634 -0.804880
C29   C     C_3   0.612020 0.742439 0.079080 -0.352150
C30   C     C_3   0.742251 0.790616 0.111856 -0.371294
C31   C     C_3   0.739916 0.930546 0.144117 -0.887260
C32   C     C_3   0.626687 0.277603 0.900517 -0.420449
C33   C     C_3   0.605334 0.131951 0.922213 -0.311639
C34   C     C_3   0.530847 0.364302 0.048007 0.173897
C35   C     C_3   0.711908 0.056194 0.871785 -0.911522
C36   C     C_3   0.517421 0.355430 0.950981 -0.100696
C37   C     C_1   0.496616 0.501472 0.175122 -0.002842
C38   C     C_1   0.504524 0.496122 0.824750 -0.014060
C39   C     C_1   0.502503 0.497735 0.749760 -0.185076
C40   C     C_2   0.577410 0.870450 0.461426 -0.398790
H1    H     H_    0.635377 0.350904 0.056240 0.106468
H2    H     H_    0.267996 0.402430 0.910149 0.329094
H3    H     H_    0.260360 0.363421 0.055665 0.361497
H4    H     H_    0.205813 0.756266 0.275223 0.257302
H5    H     H_    0.111773 0.862488 0.346853 0.251570
H6    H     H_    0.161600 0.907624 0.236065 0.271750
H7    H     H_    0.297344 0.028352 0.337511 0.244750
H8    H     H_    0.394968 0.938514 0.256666 0.223467
H9    H     H_    0.405744 0.762484 0.354846 0.181831
H10   H     H_    0.292391 0.832026 0.437738 0.240827
H11   H     H_    0.279777 0.112829 0.590362 0.328863
H12   H     H_    0.558451 0.124457 0.381109 0.102918
H13   H     H_    0.919716 0.941246 0.508275 0.258987
H14   H     H_    0.844328 0.896851 0.616062 0.257864
H15   H     H_    0.011074 0.972865 0.597306 0.280445
H16   H     H_    0.013775 0.741092 0.622774 0.275858
H17   H     H_    0.084714 0.781598 0.513242 0.232960
H18   H     H_    0.865876 0.718515 0.468404 0.212040
H19   H     H_    0.807674 0.653549 0.578241 0.242334
H20   H     H_    0.163370 0.545159 0.652407 0.377325
H21   H     H_    0.912523 0.176615 0.271571 0.282504
H22   H     H_    0.945049 0.091699 0.365236 0.274221
H23   H     H_    0.661047 0.927746 0.482672 0.138582
H24   H     H_    0.792494 0.053224 0.322108 0.259883
H25   H     H_    0.755093 0.186461 0.452455 0.239808
H26   H     H_    0.726783 0.276483 0.357812 0.250777
H27   H     H_    0.952314 0.386309 0.351085 0.175911
H28   H     H_    0.973330 0.299233 0.446748 0.183590
H29   H     H_    0.034746 0.642517 0.874464 0.295042
H30   H     H_    0.981114 0.609666 0.770870 0.280504
H31   H     H_    0.034322 0.773470 0.799953 0.247700
H32   H     H_    0.791199 0.746360 0.812489 0.223583
H33   H     H_    0.842653 0.772471 0.916382 0.232981
H34   H     H_    0.126642 0.506121 0.411193 0.079800
H35   H     H_    0.818448 0.522619 0.934610 0.204601
H36   H     H_    0.754261 0.513148 0.835322 0.219699
H37   H     H_    0.726356 0.996204 0.091476 0.263617
H38   H     H_    0.658513 0.938282 0.197971 0.254673
H39   H     H_    0.835200 0.961959 0.167253 0.263014
H40   H     H_    0.758097 0.727661 0.165503 0.229889
H41   H     H_    0.826841 0.784954 0.060226 0.235724
H42   H     H_    0.589593 0.812586 0.031544 0.211915
H43   H     H_    0.533739 0.747436 0.134826 0.241274
H44   H     H_    0.711026 0.066552 0.801749 0.269367
H45   H     H_    0.378096 0.652826 0.943828 0.173845
H46   H     H_    0.810933 0.091729 0.887919 0.270890
H47   H     H_    0.692563 0.951724 0.888628 0.239466
H48   H     H_    0.607686 0.117562 0.991699 0.243703
H49   H     H_    0.507270 0.091592 0.906727 0.228530
H50   H     H_    0.626246 0.287397 0.830440 0.218070
H51   H     H_    0.725827 0.314746 0.915129 0.202746
H52   H     H_    0.490868 0.239802 0.142259 0.335922
H53   H     H_    0.596908 0.691952 0.918032 0.156707
H54   H     H_    0.706219 0.563621 0.058070 0.173786
H55   H     H_    0.423306 0.297037 0.944253 0.175869
H56   H     H_    0.299319 0.645331 0.156568 0.348847
N1    N     N_2   0.842720 0.448890 0.465540 -0.102771
N2    N     N_2   0.157250 0.551040 0.534500 0.039788
O1    O     O_R   0.431050 0.692470 0.506940 -0.594778
O2    O     O_3   0.257895 0.493726 0.927472 -0.750772
O3    O     O_3   0.257825 0.442015 0.092310 -0.715449
O4    O     O_3   0.320731 0.053009 0.546712 -0.763625
O5    O     O_3   0.094121 0.533986 0.614700 -0.719122
O6    O     O_3   0.447999 0.264190 0.092721 -0.771857
O7    O     O_R   0.651130 0.659650 0.484820 -0.639826
O8    O     O_R   0.389910 0.516410 0.633920 -0.608471
O9    O     O_R   0.609990 0.483590 0.611800 -0.610046
O10   O     O_R   0.348870 0.340350 0.515180 -0.587916
O11   O     O_R   0.568950 0.307530 0.493060 -0.626913
O12   O     O_R   0.390010 0.516410 0.388200 -0.631380
O13   O     O_R   0.610090 0.483590 0.366080 -0.615572
O14   O     O_3   0.327719 0.657332 0.094169 -0.797505
Zn1   Zn    Zn3+2 0.353060 0.521920 0.514770 0.959036
Zn2   Zn    Zn3+2 0.646940 0.478080 0.485230 0.918075

loop_
_geom_bond_atom_site_label_1
_geom_bond_atom_site_label_2
_ccdc_geom_bond_type
C9    O13   A    
C10   H45   S    
C7    N2    D    
C19   C20   S    
C17   H8    S    
C20   H16   S    
C1    O1    A    
C15   C38   S    
H11   O4    S    
C6    C19   S    
H56   O14   S    
C12   C23   S    
C26   C27   S    
C40   H23   S    
C32   C36   S    
C13   C29   S    
C33   H48   S    
C16   H10   S    
C29   H43   S    
C33   H49   S    
C10   C15   S    
C38   C39   T    
C35   H46   S    
C32   H51   S    
N2    O5    S    
C8    O10   A    
C13   C23   S    
H2    O2    S    
C1    C40   S    
C11   C15   S    
C32   H50   S    
C28   H29   S    
C16   C17   S    
C26   H36   S    
C5    H12   S    
H20   O5    S    
C2    C16   S    
C21   H14   S    
C24   H26   S    
C30   H40   S    
C11   H53   S    
C22   N1    S    
C34   H1    S    
C35   H47   S    
C18   H6    S    
C31   H37   S    
C7    H34   S    
C19   H18   S    
C4    O9    A    
O8    Zn1   S    
C6    N1    D    
O7    Zn2   S    
C24   C25   S    
C3    C8    S    
C21   H15   S    
N2    Zn1   S    
C11   C26   S    
C19   H19   S    
C23   C37   S    
C4    O8    A    
C34   O6    S    
C25   H24   S    
O10   Zn1   S    
C9    C14   S    
H3    O3    S    
O9    Zn2   S    
C29   C30   S    
C18   H4    S    
C4    C39   S    
C23   C34   S    
C17   C18   S    
C25   H21   S    
C16   H9    S    
C10   O2    S    
O12   Zn1   S    
C22   H28   S    
C10   C12   S    
O11   Zn2   S    
C24   H25   S    
C3    O4    S    
C22   C24   S    
C28   H31   S    
C18   H5    S    
C15   C36   S    
C12   O14   S    
C31   H38   S    
C9    O12   A    
C28   H30   S    
C17   H7    S    
C3    C5    D    
O1    Zn1   S    
C35   H44   S    
C31   H39   S    
C6    C7    S    
C13   H54   S    
C32   C33   S    
C30   H41   S    
N1    Zn2   S    
C29   H42   S    
C8    O11   A    
C14   C37   T    
C21   H13   S    
C11   C13   S    
C36   H55   S    
C30   C31   S    
C33   C35   S    
O13   Zn2   S    
C34   C36   S    
C25   H22   S    
C22   H27   S    
H52   O6    S    
C2    C5    S    
C2    C40   D    
C12   O3    S    
C20   C21   S    
C26   H35   S    
C27   C28   S    
C20   H17   S    
C27   H33   S    
C27   H32   S    
C1    O7    A    
