data_mof_unit_11385.cif
_audit_creation_date              2012-12-10T18:11:46-0500
_audit_creation_method            fapswitch 2.2
_symmetry_space_group_name_H-M    P1
_symmetry_Int_Tables_number       1
_space_group_crystal_system       triclinic
_cell_length_a                    10.492463
_cell_length_b                    12.649115
_cell_length_c                    13.138812
_cell_angle_alpha                 82.422417
_cell_angle_beta                  90.704692
_cell_angle_gamma                 102.747301
_cell_volume                      1685.70107672

loop_
_atom_site_label
_atom_site_type_symbol
_atom_type_description
_atom_site_fract_x
_atom_site_fract_y
_atom_site_fract_z
_atom_type_partial_charge
C1    C     C_R   0.480641 0.438939 0.691043 0.846274
C2    C     C_R   0.468400 0.447128 0.973325 0.086780
C3    C     C_R   0.434794 0.466541 0.869564 0.081715
C4    C     C_R   0.742393 0.500989 0.500332 0.857311
C5    C     C_R   0.465618 0.528839 0.036393 0.077396
C6    C     C_R   0.409936 0.619260 0.000582 0.177220
C7    C     C_R   0.359678 0.628288 0.902037 -0.259637
C8    C     C_R   0.371795 0.552833 0.837143 -0.223229
C9    C     C_R   0.518912 0.523855 0.133843 -0.260792
C10   C     C_R   0.446611 0.685534 0.165487 -0.209577
C11   C     C_R   0.467112 0.399866 0.800532 -0.110744
C12   C     C_3   0.062949 0.578681 0.427644 -0.174007
C13   C     C_R   0.319404 0.088359 0.344873 -0.311791
C14   C     C_R   0.654348 0.804962 0.631399 0.341703
C15   C     C_R   0.694229 0.913474 0.648811 -0.239427
C16   C     C_R   0.512797 0.560865 0.308901 0.855823
C17   C     C_R   0.640187 0.992753 0.594735 -0.255024
C18   C     C_R   0.542917 0.965121 0.522583 0.020039
C19   C     C_R   0.510268 0.855103 0.500695 0.194696
C20   C     C_R   0.477413 0.043222 0.471787 0.000977
C21   C     C_R   0.384821 0.012151 0.395740 0.193309
C22   C     C_R   0.357984 0.905366 0.371878 -0.295739
C23   C     C_3   0.987702 0.598889 0.520839 -0.137267
C24   C     C_R   0.419274 0.828029 0.424033 -0.202370
C25   C     C_R   0.498181 0.151267 0.495147 -0.054338
C26   C     C_R   0.345432 0.193991 0.370656 0.005679
C27   C     C_R   0.257631 0.499025 0.499790 0.841370
C28   C     C_3   0.937249 0.421641 0.572664 -0.179644
C29   C     C_3   0.049364 0.517945 0.592813 -0.176140
C30   C     C_3   0.121897 0.497747 0.499622 0.034042
C31   C     C_3   0.012443 0.401414 0.479463 -0.136757
C32   C     C_3   0.950838 0.482376 0.407481 -0.173970
C33   C     C_3   0.706298 0.722714 0.704336 -0.825190
C34   C     C_3   0.878242 0.502505 0.500662 0.023557
C35   C     C_R   0.403311 0.698251 0.064838 -0.203464
C36   C     C_R   0.500926 0.595985 0.200362 -0.046866
C37   C     C_R   0.504390 0.302145 0.837525 -0.195474
C38   C     C_R   0.517998 0.274257 0.942138 -0.151254
C39   C     C_R   0.503409 0.346851 0.009666 -0.194206
H1    H     H_    0.094133 0.532059 0.668242 0.128280
H2    H     H_    0.563959 0.181895 0.553235 0.124482
H3    H     H_    0.881352 0.358043 0.631804 0.129368
H4    H     H_    0.676412 0.074686 0.612277 0.143464
H5    H     H_    0.765363 0.937048 0.706842 0.151485
H6    H     H_    0.393088 0.747513 0.402933 0.206299
H7    H     H_    0.026464 0.320962 0.462593 0.143527
H8    H     H_    0.906057 0.468286 0.332052 0.133217
H9    H     H_    0.118980 0.642313 0.368576 0.125907
H10   H     H_    0.973663 0.679330 0.537737 0.145450
H11   H     H_    0.431571 0.741957 0.216945 0.147432
H12   H     H_    0.570745 0.461367 0.161918 0.146553
H13   H     H_    0.313054 0.694769 0.874425 0.150170
H14   H     H_    0.359913 0.767020 0.038639 0.134499
H15   H     H_    0.786529 0.763122 0.751504 0.186594
H16   H     H_    0.628584 0.677401 0.759912 0.256012
H17   H     H_    0.749035 0.667371 0.664741 0.262381
H18   H     H_    0.527155 0.249045 0.785372 0.150783
H19   H     H_    0.516877 0.321172 0.089914 0.134934
H20   H     H_    0.545456 0.198251 0.970655 0.141854
H21   H     H_    0.330430 0.562314 0.761536 0.170232
H22   H     H_    0.296117 0.254004 0.331680 0.135582
H23   H     H_    0.287730 0.880951 0.313482 0.146611
H24   H     H_    0.248790 0.066410 0.286082 0.144492
N1    N     N_R   0.432930 0.222190 0.444670 -0.102914
N2    N     N_R   0.566370 0.776980 0.554790 -0.129429
O1    O     O_R   0.467970 0.366730 0.627150 -0.614162
O2    O     O_R   0.510820 0.544830 0.662520 -0.615128
O3    O     O_R   0.664630 0.410960 0.482340 -0.618091
O4    O     O_R   0.707470 0.589060 0.517710 -0.629032
O5    O     O_R   0.489180 0.455170 0.337480 -0.614188
O6    O     O_R   0.532030 0.633270 0.372850 -0.631717
O7    O     O_R   0.292530 0.410940 0.482290 -0.620998
O8    O     O_R   0.335370 0.589040 0.517660 -0.640546
Zn1   Zn    Zn3+2 0.471390 0.381080 0.476380 0.934137
Zn2   Zn    Zn3+2 0.528610 0.618920 0.523620 0.921472

loop_
_geom_bond_atom_site_label_1
_geom_bond_atom_site_label_2
_ccdc_geom_bond_type
C33   H16   S    
C35   H14   S    
C9    H12   S    
C12   H9    S    
C14   C33   S    
C7    C8    A    
C12   C23   S    
C37   C38   A    
C24   H6    S    
C23   C29   S    
C28   C29   S    
C26   H22   S    
C7    H13   S    
C2    C3    A    
C5    C6    A    
C23   H10   S    
C20   C25   A    
O3    Zn1   S    
O1    Zn1   S    
C6    C35   A    
C18   C19   A    
C11   C37   A    
C26   N1    A    
C2    C39   A    
C31   H7    S    
C1    C11   S    
O5    Zn1   S    
C9    C36   A    
O4    Zn2   S    
C10   C35   A    
C33   H17   S    
C28   C34   S    
C21   C22   A    
C12   C32   S    
C27   C30   S    
O8    Zn2   S    
C16   O6    A    
C4    O4    A    
C1    O1    A    
C38   C39   A    
C4    C34   S    
C16   O5    A    
O7    Zn1   S    
C3    C8    A    
C25   H2    S    
C4    O3    A    
C39   H19   S    
C25   N1    A    
C32   C34   S    
C17   H4    S    
C5    C9    A    
C29   C30   S    
C22   H23   S    
C31   C32   S    
C13   H24   S    
C23   C34   S    
C17   C18   A    
C13   C21   A    
C32   H8    S    
C22   C24   A    
C13   C26   A    
C2    C5    A    
O2    Zn2   S    
C10   H11   S    
C33   H15   S    
C15   C17   A    
C12   C30   S    
C28   C31   S    
C15   H5    S    
C6    C7    A    
N2    Zn2   S    
C19   C24   A    
C16   C36   S    
O6    Zn2   S    
C30   C31   S    
C29   H1    S    
C28   H3    S    
C1    O2    A    
C14   N2    A    
C19   N2    A    
C18   C20   A    
C37   H18   S    
C3    C11   A    
C38   H20   S    
C20   C21   A    
N1    Zn1   S    
C14   C15   A    
C10   C36   A    
C27   O8    A    
C8    H21   S    
C27   O7    A    
