data_mof_unit_28694.cif
_audit_creation_date              2013-03-05T16:08:57-0500
_audit_creation_method            fapswitch 2.2
_symmetry_space_group_name_H-M    P1
_symmetry_Int_Tables_number       1
_space_group_crystal_system       triclinic
_cell_length_a                    8.299514
_cell_length_b                    15.123499
_cell_length_c                    17.322754
_cell_angle_alpha                 100.396893
_cell_angle_beta                  97.046456
_cell_angle_gamma                 98.937216
_cell_volume                      2087.07956296

loop_
_atom_site_label
_atom_site_type_symbol
_atom_site_description
_atom_site_fract_x
_atom_site_fract_y
_atom_site_fract_z
_atom_type_partial_charge
P1    P     P_3+3 0.993930 0.412000 0.316950 0.571790
O1    O     O_2   0.823660 0.438400 0.305670 -0.355108
O2    O     O_3   0.097530 0.445010 0.403900 -0.331439
O3    O     O_3   0.626680 0.608380 0.360110 -0.347654
O4    O     O_2   0.710735 0.536162 0.225831 -0.385597
O5    O     O_3   0.983252 0.299352 0.261328 -0.607752
O6    O     O_3   0.647186 0.695070 0.228605 -0.494400
C1    C     C_3   0.485279 0.768327 0.145746 -0.987184
H1    H     H_    0.598372 0.803083 0.127549 0.267021
H2    H     H_    0.437475 0.703641 0.102112 0.244563
P2    P     P_3+3 0.694120 0.714590 0.569800 0.460816
P3    P     P_3+3 0.109969 0.774593 0.406608 0.506012
O7    O     O_2   0.863890 0.726710 0.546580 -0.377539
O8    O     O_3   0.059540 0.657940 0.401520 -0.375749
O9    O     O_2   0.010251 0.820706 0.466529 -0.314663
O10   O     O_3   0.727080 0.752124 0.673157 -0.568498
O11   O     O_3   0.021323 0.795531 0.316189 -0.449616
C2    C     C_3   0.112067 0.764501 0.257285 0.353743
H3    H     H_    0.128713 0.692871 0.257170 0.086421
H4    H     H_    0.232077 0.811424 0.267016 0.066077
C3    C     C_3   0.021529 0.767160 0.176144 -0.841344
H5    H     H_    0.901556 0.719419 0.163190 0.288633
H6    H     H_    0.999926 0.837472 0.174339 0.254111
C4    C     C_3   0.268149 0.748004 0.646004 0.298447
H7    H     H_    0.391601 0.739739 0.631378 0.088078
H8    H     H_    0.172232 0.719135 0.593084 0.123947
C5    C     C_3   0.263630 0.849188 0.672408 -0.027422
H9    H     H_    0.348084 0.877806 0.729782 0.161265
H10   H     H_    0.136622 0.856472 0.683008 0.146050
Ba1   Ba    Ba6+2 0.844380 0.541120 0.463220 1.614289
C6    C     C_3   0.951846 0.222039 0.296138 0.893999
C7    C     C_3   0.032342 0.146945 0.252003 -1.085258
H11   H     H_    0.999972 0.139061 0.186620 0.263838
H12   H     H_    0.991991 0.079991 0.268261 0.241260
H13   H     H_    0.167733 0.163629 0.268328 0.290334
C8    C     C_3   0.787010 0.686530 0.709729 0.292299
H14   H     H_    0.902195 0.672686 0.687573 0.091525
H15   H     H_    0.691750 0.623336 0.697764 0.102769
C9    C     C_3   0.828592 0.723557 0.799439 -0.731940
H16   H     H_    0.907056 0.792649 0.811681 0.199257
H17   H     H_    0.900757 0.678310 0.827061 0.171855
P4    P     P_3+3 0.195780 0.588080 0.683070 0.481299
O12   O     O_2   0.366060 0.561630 0.694380 -0.354854
O13   O     O_3   0.092190 0.555060 0.596110 -0.425483
O14   O     O_3   0.563040 0.391700 0.639900 -0.367402
O15   O     O_3   0.239763 0.707288 0.710437 -0.586028
P5    P     P_3+3 0.086113 0.224633 0.595667 0.544704
O16   O     O_3   0.598290 0.387090 0.455760 -0.396896
O17   O     O_3   0.130180 0.342130 0.598490 -0.367566
O18   O     O_2   0.216344 0.181796 0.552286 -0.360725
O19   O     O_3   0.134241 0.213251 0.694453 -0.443199
Ba2   Ba    Ba6+2 0.345460 0.458950 0.536790 1.602465
P6    P     P_3+3 0.583342 0.591354 0.257313 0.492194
C10   C     C_3   0.524749 0.749636 0.229434 0.498117
H18   H     H_    0.409814 0.716721 0.246718 -0.095284
H19   H     H_    0.390094 0.812287 0.143593 0.245876
O20   O     O_3   0.591420 0.612980 0.544250 -0.402936
C11   C     C_3   0.407778 0.321300 0.293960 0.426126
H20   H     H_    0.296263 0.337898 0.318150 0.111515
H21   H     H_    0.508088 0.382209 0.312111 0.117683
C12   C     C_3   0.369763 0.298633 0.203218 -0.856356
H22   H     H_    0.323060 0.224476 0.180551 0.280457
H23   H     H_    0.274066 0.335923 0.181874 0.212657
H24   H     H_    0.483038 0.318471 0.177615 0.271535
P7    P     P_3+3 0.498538 0.271605 0.424868 0.461168
O21   O     O_2   0.325830 0.273320 0.453470 -0.327627
O22   O     O_3   0.454556 0.245548 0.321251 -0.560840
H25   H     H_    0.096164 0.745739 0.129512 0.209773
C13   C     C_3   0.057436 0.273422 0.743325 0.419492
H26   H     H_    0.130965 0.343816 0.755632 0.087703
H27   H     H_    0.931112 0.275443 0.714828 0.017653
C14   C     C_3   0.040900 0.240749 0.821343 -0.861777
H28   H     H_    0.936678 0.267109 0.846553 0.166132
H29   H     H_    0.010033 0.164871 0.809002 0.238685
P8    P     P_3+3 0.605809 0.404753 0.743390 0.509108
C15   C     C_3   0.566701 0.228780 0.697832 0.386208
H30   H     H_    0.659212 0.248027 0.659841 0.043937
O23   O     O_2   0.470837 0.450599 0.780126 -0.361770
O24   O     O_3   0.579955 0.295898 0.767297 -0.507244
H31   H     H_    0.442133 0.219066 0.663380 0.177964
H32   H     H_    0.726011 0.145190 0.746372 0.198210
C16   C     C_3   0.595987 0.137798 0.718494 -0.796299
H33   H     H_    0.576050 0.084951 0.663054 0.145407
C17   C     C_2   0.255133 0.524698 0.278972 -0.512211
C18   C     C_3   0.375594 0.519508 0.219956 0.205448
C19   C     C_2   0.299833 0.531168 0.140035 -0.247553
C20   C     C_2   0.133849 0.510951 0.118797 -0.071674
C21   C     C_2   0.031586 0.481603 0.179781 -0.222606
C22   C     C_1   0.101648 0.481193 0.253657 0.361461
C23   C     C_R   0.887679 0.466360 0.862174 -0.170500
C24   C     C_R   0.816099 0.467336 0.785266 0.237799
C25   C     C_R   0.080475 0.538515 0.756831 0.307440
C26   C     C_R   0.152388 0.539768 0.835447 -0.302064
C27   C     C_R   0.054666 0.506438 0.889704 0.129686
C28   C     C_2   0.052671 0.518474 0.037456 0.498363
C29   C     C_2   0.131238 0.506485 0.972526 -0.239512
C30   C     C_R   0.911163 0.507134 0.735733 -0.464614
H34   H     H_    0.256928 0.494246 0.978765 0.143805
H35   H     H_    0.903846 0.448948 0.159496 0.176649
H36   H     H_    0.814365 0.431941 0.899215 0.194931
H37   H     H_    0.381494 0.550992 0.099567 0.140539
H38   H     H_    0.282158 0.567794 0.854681 0.177138
H39   H     H_    0.294290 0.559929 0.340350 0.160807
H40   H     H_    0.849749 0.517480 0.681534 0.143247
C31   C     C_R   0.869819 0.167996 0.546003 0.133488
C32   C     C_R   0.800453 0.074359 0.541100 -0.109131
C33   C     C_R   0.654509 0.887125 0.527526 -0.077998
C34   C     C_R   0.809174 0.924346 0.572950 -0.263515
C35   C     C_R   0.885547 0.014677 0.577709 0.508147
C36   C     C_R   0.586262 0.793056 0.518044 0.331722
H41   H     H_    0.875880 0.883486 0.605188 0.179716
C37   C     C_R   0.427495 0.759996 0.474408 -0.473226
C38   C     C_R   0.611067 0.190285 0.471202 0.129886
C39   C     C_R   0.542511 0.097771 0.464954 0.080719
C40   C     C_R   0.636473 0.039484 0.499396 -0.037689
C41   C     C_R   0.382049 0.061949 0.424725 -0.099460
C42   C     C_R   0.312987 0.971182 0.418502 -0.102325
C43   C     C_R   0.402689 0.911470 0.450557 0.094835
C44   C     C_R   0.565320 0.945741 0.491780 0.001185
C45   C     C_R   0.332958 0.818660 0.443265 0.125116
C46   C     C_R   0.772548 0.222842 0.511050 -0.488766
H42   H     H_    0.188754 0.948797 0.386952 0.155297
H43   H     H_    0.306878 0.103232 0.397015 0.155700
H44   H     H_    0.372259 0.689188 0.469662 0.158045
C47   C     C_2   0.590480 0.838932 0.287436 0.949435
O25   O     O_2   0.519809 0.903947 0.286310 -0.689513
O26   O     O_R   0.733017 0.847774 0.342194 -0.698880
H45   H     H_    0.770572 0.912286 0.374441 0.331716
O27   O     O_3   0.305355 0.897296 0.613824 -0.737830
H46   H     H_    0.424120 0.924742 0.629023 0.320473
C48   C     C_2   0.769430 0.185276 0.281431 0.941867
O28   O     O_2   0.679973 0.210991 0.231900 -0.597473
O29   O     O_R   0.706524 0.113425 0.316106 -0.833838
H47   H     H_    0.584550 0.089803 0.296545 0.367558
O30   O     O_3   0.019699 0.240921 0.376518 -0.710076
H48   H     H_    0.000005 0.183288 0.396639 0.299808
C49   C     C_2   0.675612 0.728251 0.837016 1.181723
O31   O     O_2   0.584183 0.780338 0.820237 -0.613388
O32   O     O_R   0.639733 0.673622 0.891941 -0.780451
H49   H     H_    0.535335 0.683844 0.914334 0.310497
C50   C     C_2   0.195930 0.271366 0.881816 1.197377
O33   O     O_2   0.329432 0.262546 0.862004 -0.522512
O34   O     O_R   0.189512 0.307020 0.961434 -0.789820
H50   H     H_    0.073129 0.308480 0.972975 0.289084
C51   C     C_2   0.484128 0.105923 0.773534 1.284602
O35   O     O_2   0.335264 0.085109 0.751408 -0.608625
O36   O     O_R   0.551344 0.099079 0.849765 -0.776564
H51   H     H_    0.463929 0.076632 0.881311 0.323907
O37   O     O_3   0.896495 0.540175 0.028143 -0.734355
H52   H     H_    0.864677 0.557931 0.081205 0.334830
O38   O     O_3   0.043916 0.044090 0.618061 -0.658593
H53   H     H_    0.080760 0.995922 0.643920 0.360438
C52   C     C_2   0.838418 0.318012 0.517306 1.167641
O39   O     O_2   0.886472 0.344801 0.460937 -0.554761
O40   O     O_R   0.832227 0.379521 0.585153 -0.815970
H54   H     H_    0.846525 0.442322 0.572747 0.342348

loop_
_geom_bond_atom_site_label_1
_geom_bond_atom_site_label_2
_geom_bond_distance
_ccdc_geom_bond_type
C20   C21   1.518393 S    
C9    C49   1.501628 S    
C26   C27   1.423463 A    
C41   H43   1.079428 S    
O3    P6    1.736442 S    
C5    H10   1.110523 S    
C2    C3    1.520717 S    
C28   C29   1.366103 D    
C15   O24   1.407980 S    
C1    H19   1.110125 S    
H32   C16   1.106981 S    
O37   H52   0.989570 S    
O30   H48   0.993617 S    
P5    O17   1.748164 S    
C18   C19   1.500717 S    
C34   C35   1.397261 A    
C49   O32   1.397603 S    
C46   C52   1.437667 S    
Ba1   O16   2.821875 S    
C8    H14   1.108263 S    
C35   O38   1.376508 S    
C4    H8    1.110506 S    
C2    H3    1.112839 S    
C50   O34   1.397962 S    
C51   O35   1.221430 D    
O2    Ba2   2.847056 S    
O12   Ba2   2.857608 S    
C11   H21   1.110607 S    
O34   H50   1.012853 S    
Ba1   O20   2.905231 S    
C41   C42   1.382552 A    
C13   H27   1.110064 S    
P1    O1    1.526540 D    
P4    O15   1.747238 S    
C23   H36   1.082051 S    
C12   H23   1.108118 S    
C43   C44   1.418798 A    
P1    Ba1   3.393043 S    
C6    C48   1.502942 S    
P3    C45   1.856925 S    
C17   C18   1.515597 S    
O36   H51   1.013868 S    
P2    Ba1   3.417563 S    
C1    H1    1.111641 S    
P5    C31   1.890421 S    
C20   C28   1.516913 S    
P3    O11   1.750289 S    
O38   H53   0.989048 S    
C4    C5    1.523717 S    
C28   O37   1.383410 S    
O16   P7    1.768302 S    
C52   O40   1.372712 S    
P4    C25   1.879664 S    
P8    C24   1.842938 S    
O13   Ba2   2.920154 S    
C11   C12   1.529109 S    
O5    C6    1.413170 S    
C37   H44   1.081719 S    
C3    H5    1.107449 S    
P2    C36   1.878957 S    
Ba1   O13   2.846448 S    
C12   H22   1.109450 S    
P4    O13   1.592193 S    
O8    Ba1   2.760810 S    
C33   C44   1.416604 A    
C51   O36   1.397228 S    
C25   C30   1.391982 A    
C23   C27   1.409989 A    
P5    O18   1.547190 D    
C36   C37   1.404342 A    
C14   C50   1.508788 S    
C10   C47   1.509216 S    
P1    O5    1.782768 S    
C21   H35   1.083804 S    
C7    H13   1.102036 S    
O7    Ba1   2.885818 S    
C4    H7    1.105278 S    
C6    O30   1.396994 S    
C15   C16   1.529968 S    
C9    H16   1.111588 S    
C37   C45   1.406765 A    
C19   C20   1.353059 D    
P5    O19   1.754279 S    
O14   Ba2   2.814361 S    
P7    O22   1.746310 S    
C11   H20   1.106600 S    
C24   C30   1.387790 A    
C29   H34   1.083375 S    
P1    O2    1.592074 S    
C7    H12   1.112428 S    
O2    Ba1   2.919315 S    
C42   H42   1.078388 S    
P2    O10   1.751411 S    
C6    C7    1.538940 S    
P3    O9    1.541925 D    
C33   C34   1.396992 A    
O17   Ba2   2.761404 S    
O11   C2    1.397896 S    
C31   C46   1.405620 A    
C15   H30   1.109512 S    
C27   C29   1.496011 S    
C14   H29   1.111250 S    
P3    O8    1.732276 S    
P7    O21   1.575413 D    
C40   C44   1.424545 A    
C3    H6    1.110735 S    
C3    H25   1.109887 S    
C47   O25   1.222495 D    
C5    O27   1.397710 S    
C33   C36   1.419232 A    
P4    O12   1.526974 D    
O6    P6    1.753947 S    
C1    C10   1.532648 S    
O26   H45   1.013498 S    
C5    H9    1.116235 S    
C16   C51   1.499110 S    
Ba2   O21   2.885968 S    
C38   C39   1.405682 A    
C49   O31   1.222728 D    
O4    P6    1.537333 D    
Ba1   Ba2   4.536763 S    
C10   H18   1.106208 S    
P1    C22   1.860187 S    
P7    C38   1.886306 S    
C8    C9    1.530342 S    
C15   H31   1.102899 S    
C13   C14   1.534589 S    
C14   H28   1.111240 S    
C48   O29   1.396564 S    
C26   H38   1.081568 S    
C39   C41   1.401635 A    
O32   H49   1.013688 S    
C39   C40   1.424935 A    
C31   C32   1.426646 A    
C42   C43   1.402343 A    
C34   H41   1.074806 S    
O14   P8    1.753058 S    
C32   C40   1.431958 A    
O1    Ba1   2.857096 S    
C4    O15   1.395693 S    
C7    H11   1.111690 S    
C8    H15   1.111279 S    
O27   H46   0.991445 S    
C50   O33   1.218994 D    
O10   C8    1.391281 S    
C12   H24   1.110511 S    
P2    O7    1.505361 D    
C23   C24   1.394159 A    
O29   H47   1.013424 S    
C25   C26   1.413851 A    
C2    H4    1.104577 S    
C13   H26   1.111550 S    
P8    O23   1.548404 D    
C43   C45   1.409493 A    
C30   H40   1.061207 S    
Ba2   O20   2.821240 S    
C11   O22   1.405480 S    
O16   Ba2   2.904322 S    
C38   C46   1.400142 A    
C21   C22   1.340646 D    
C9    H17   1.109558 S    
C1    H2    1.106670 S    
C16   H33   1.109666 S    
C17   C22   1.321476 D    
O40   H54   1.003618 S    
C47   O26   1.395305 S    
C17   H39   1.084866 S    
P6    C18   1.860818 S    
O19   C13   1.409163 S    
O6    C10   1.404879 S    
C52   O39   1.210307 D    
P2    O20   1.593375 S    
C19   H37   1.081632 S    
P8    O24   1.756653 S    
O3    Ba1   2.815066 S    
C48   O28   1.221697 D    
P4    Ba2   3.393829 S    
C32   C35   1.417899 A    
