data_mof_unit_23065.cif
_audit_creation_date              2012-10-26T19:40:41-0400
_audit_creation_method            fapswitch 2.2
_symmetry_space_group_name_H-M    P1
_symmetry_Int_Tables_number       1
_space_group_crystal_system       triclinic
_cell_length_a                    9.707683
_cell_length_b                    10.924795
_cell_length_c                    13.439866
_cell_angle_alpha                 90.387424
_cell_angle_beta                  72.571731
_cell_angle_gamma                 90.460175
_cell_volume                      1359.86515495

loop_
_atom_site_label
_atom_site_type_symbol
_atom_type_description
_atom_site_fract_x
_atom_site_fract_y
_atom_site_fract_z
_atom_type_partial_charge
Br1   Br    Br    0.813504 0.869522 0.400249 -0.548653
C1    C     C_R   0.502002 0.734738 0.497757 0.586247
C2    C     C_R   0.377505 0.489020 0.813897 -0.000645
C3    C     C_2   0.619905 0.068874 0.479628 -0.134679
C4    C     C_R   0.422622 0.501971 0.700004 0.579685
C5    C     C_2   0.500546 0.133518 0.487880 -0.152811
C6    C     C_2   0.624435 0.935610 0.467217 0.135751
C7    C     C_2   0.502996 0.867192 0.500954 -0.087850
C8    C     C_2   0.059821 0.584565 0.545014 0.008429
C9    C     C_2   0.900039 0.571325 0.558809 0.074048
C10   C     C_R   0.500311 0.265389 0.497489 0.550472
C11   C     C_R   0.577230 0.502113 0.300207 0.546037
C12   C     C_R   0.456133 0.473596 0.970197 0.015639
C13   C     C_R   0.767417 0.622957 0.034961 -0.128302
C14   C     C_R   0.620752 0.517831 0.187186 -0.010957
C15   C     C_R   0.263637 0.408014 0.857462 -0.174119
C16   C     C_R   0.252930 0.351232 0.951124 -0.126595
C17   C     C_R   0.355785 0.374014 0.002884 0.150479
C18   C     C_3   0.938349 0.346199 0.374493 -0.247250
C19   C     C_3   0.907132 0.733188 0.790775 -0.326390
C20   C     C_3   0.483444 0.202009 0.043602 -0.304374
C21   C     C_3   0.426568 0.798118 0.797614 -0.305303
C22   C     C_R   0.465578 0.532507 0.874244 -0.009693
C23   C     C_R   0.549296 0.514574 0.027840 -0.004595
C24   C     C_R   0.664483 0.596923 0.982425 0.021637
C25   C     C_R   0.667989 0.659027 0.890326 0.135753
C26   C     C_R   0.562472 0.632983 0.840550 0.163626
C27   C     C_R   0.523528 0.484941 0.133257 -0.104360
C28   C     C_R   0.747369 0.580799 0.135770 -0.135441
Cu1   Cu    Cu3+1 0.361370 0.499980 0.499980 0.943514
Cu2   Cu    Cu3+1 0.638630 0.500020 0.500020 0.981425
H1    H     H_    0.823935 0.607259 0.176502 0.144150
H2    H     H_    0.173211 0.279237 0.977706 0.112901
H3    H     H_    0.719995 0.115090 0.478173 0.168335
H4    H     H_    0.935577 0.533572 0.347113 0.283428
H5    H     H_    0.038559 0.325580 0.310760 0.113733
H6    H     H_    0.845062 0.326864 0.345306 0.177250
H7    H     H_    0.933620 0.285396 0.441414 0.144417
H8    H     H_    0.758283 0.827001 0.912122 0.251713
H9    H     H_    0.987674 0.760868 0.830615 0.128113
H10   H     H_    0.929556 0.785804 0.717294 0.148887
H11   H     H_    0.920711 0.633872 0.772004 0.142797
H12   H     H_    0.401966 0.090940 0.482153 0.106274
H13   H     H_    0.269677 0.244989 0.117947 0.247446
H14   H     H_    0.488057 0.142939 0.109421 0.149034
H15   H     H_    0.588307 0.251172 0.014281 0.162857
H16   H     H_    0.466522 0.143111 0.980457 0.143059
H17   H     H_    0.639176 0.757037 0.718258 0.282661
H18   H     H_    0.323339 0.747340 0.829822 0.143391
H19   H     H_    0.417869 0.853963 0.731119 0.133513
H20   H     H_    0.444363 0.860416 0.858394 0.147435
H21   H     H_    0.398804 0.908547 0.537096 0.057035
H22   H     H_    0.096995 0.665473 0.576615 0.126058
H23   H     H_    0.113012 0.417114 0.488655 0.243526
H24   H     H_    0.826313 0.624150 0.619974 0.112473
H25   H     H_    0.860623 0.680275 0.000771 0.129009
H26   H     H_    0.422050 0.444820 0.177399 0.179331
H27   H     H_    0.192932 0.377109 0.813326 0.131836
N1    N     N_2   0.152660 0.501340 0.501130 -0.334617
N2    N     N_2   0.846520 0.501370 0.501160 -0.135468
N3    N     N_2   0.940961 0.473342 0.404543 -0.415619
N4    N     N_2   0.762560 0.760990 0.856045 -0.533098
N5    N     N_2   0.365877 0.287754 0.079413 -0.542098
N6    N     N_2   0.545985 0.714156 0.762021 -0.488750
O1    O     O_R   0.382960 0.678040 0.499980 -0.504130
O2    O     O_R   0.617100 0.678080 0.500020 -0.443267
O3    O     O_R   0.325800 0.499940 0.650950 -0.512723
O4    O     O_R   0.559930 0.499980 0.650990 -0.483204
O5    O     O_R   0.382900 0.321920 0.499980 -0.504300
O6    O     O_R   0.617040 0.321960 0.500020 -0.505480
O7    O     O_R   0.440070 0.500020 0.349010 -0.489873
O8    O     O_R   0.674200 0.500060 0.349050 -0.508759

loop_
_geom_bond_atom_site_label_1
_geom_bond_atom_site_label_2
_ccdc_geom_bond_type
Cu2   N2    S    
Cu2   O2    S    
C13   H25   S    
C10   O5    A    
C14   C28   A    
C9    H24   S    
C18   H7    S    
C22   C26   A    
C8    C9    S    
C7    H21   S    
C2    C22   A    
Cu1   O3    S    
C11   C14   S    
C4    O3    A    
C21   H19   S    
C1    O1    A    
Cu1   N1    S    
Cu1   O7    S    
C11   O8    A    
C10   O6    A    
C6    C7    D    
H4    N3    S    
C20   N5    S    
C15   H27   S    
C27   H26   S    
C19   N4    S    
C19   H11   S    
C25   C26   A    
Cu1   Cu2   S    
C16   H2    S    
C12   C17   A    
C18   N3    S    
C4    O4    A    
C5    H12   S    
C13   C24   A    
C3    C5    D    
Cu2   O8    S    
C24   C25   A    
C11   O7    A    
C19   H10   S    
C28   H1    S    
C20   H14   S    
H23   N1    S    
C3    C6    S    
H13   N5    S    
C25   N4    S    
Cu2   O4    S    
C19   H9    S    
C3    H3    S    
C17   N5    S    
H17   N6    S    
Cu1   O1    S    
C8    H22   S    
C26   N6    S    
C13   C28   A    
C21   N6    S    
C14   C27   A    
C15   C16   A    
C2    C4    S    
Cu1   O5    S    
C23   C24   A    
C12   C22   A    
C16   C17   A    
C20   H15   S    
C21   H18   S    
C5    C10   S    
H8    N4    S    
C9    N2    D    
N2    N3    S    
C18   H6    S    
C20   H16   S    
C18   H5    S    
Br1   C6    S    
C8    N1    D    
Cu2   O6    S    
C1    C7    S    
C2    C15   A    
C23   C27   A    
C12   C23   A    
C21   H20   S    
C1    O2    A    
