data_mof_unit_17811.cif
_audit_creation_date              2012-12-10T17:36:48-0500
_audit_creation_method            fapswitch 2.2
_symmetry_space_group_name_H-M    P1
_symmetry_Int_Tables_number       1
_space_group_crystal_system       triclinic
_cell_length_a                    10.570465
_cell_length_b                    12.351813
_cell_length_c                    13.222916
_cell_angle_alpha                 117.091218
_cell_angle_beta                  78.580031
_cell_angle_gamma                 100.639543
_cell_volume                      1497.73978407

loop_
_atom_site_label
_atom_site_type_symbol
_atom_type_description
_atom_site_fract_x
_atom_site_fract_y
_atom_site_fract_z
_atom_type_partial_charge
C1    C     C_R   0.500486 0.854737 0.288058 0.829465
C2    C     C_3   0.014868 0.918927 0.536013 -0.139769
C3    C     C_3   0.951864 0.883258 0.427459 -0.174012
C4    C     C_3   0.877160 0.995576 0.494545 -0.036866
C5    C     C_R   0.485472 0.278265 0.033963 -0.286401
C6    C     C_R   0.479680 0.229846 0.835734 -0.217227
C7    C     C_R   0.500875 0.816187 0.086059 -0.265154
C8    C     C_R   0.507598 0.736693 0.969902 0.127850
C9    C     C_R   0.502433 0.610773 0.933636 0.448947
C10   C     C_R   0.460033 0.561353 0.014274 -0.062357
C11   C     C_R   0.439678 0.642314 0.132539 -0.026563
C12   C     C_R   0.740145 0.997456 0.497155 0.796167
C13   C     C_R   0.449899 0.434198 0.982748 0.034666
C14   C     C_R   0.451678 0.394830 0.066863 0.026192
C15   C     C_R   0.413423 0.471227 0.180940 -0.195075
C16   C     C_R   0.389751 0.589603 0.209870 0.218386
C17   C     C_R   0.434553 0.343680 0.872228 0.144579
C18   C     C_R   0.521842 0.203035 0.916424 0.428083
C19   C     C_R   0.477009 0.770371 0.168365 -0.118917
C20   C     C_R   0.740247 0.366656 0.369223 0.050052
C21   C     C_R   0.317700 0.754190 0.636454 -0.015049
C22   C     C_R   0.278065 0.654372 0.664352 0.422046
C23   C     C_R   0.487366 0.145441 0.713311 0.865265
C24   C     C_R   0.349920 0.554006 0.609615 -0.120554
C25   C     C_R   0.459771 0.550645 0.529080 -0.055851
C26   C     C_R   0.498217 0.655359 0.507619 0.293053
C27   C     C_R   0.535298 0.448263 0.472845 -0.062341
C28   C     C_R   0.658442 0.460417 0.411505 0.076903
C29   C     C_R   0.693018 0.562374 0.388368 -0.235467
C30   C     C_R   0.610838 0.653667 0.429776 -0.168615
C31   C     C_R   0.489079 0.330598 0.466896 0.309239
C32   C     C_R   0.698105 0.263445 0.389216 -0.024065
C33   C     C_R   0.259888 0.000555 0.499823 0.840770
C34   C     C_3   0.984676 0.075663 0.455548 -0.139290
C35   C     C_3   0.061768 0.963578 0.389411 0.201955
C36   C     C_3   0.123011 0.999206 0.497301 -0.019418
C37   C     C_3   0.047491 0.111153 0.563999 -0.171832
C38   C     C_3   0.937719 0.031187 0.602594 -0.178250
Cu1   Cu    Cu3+1 0.529830 0.098270 0.475420 0.980452
Cu2   Cu    Cu3+1 0.470170 0.901730 0.524580 0.978893
H1    H     H_    0.518969 0.913715 0.111382 0.199649
H2    H     H_    0.763126 0.194401 0.361407 0.169018
H3    H     H_    0.781601 0.570482 0.333942 0.186779
H4    H     H_    0.262763 0.832000 0.673551 0.121942
H5    H     H_    0.969956 0.139519 0.422062 0.180314
H6    H     H_    0.320157 0.479244 0.632899 0.209681
H7    H     H_    0.639433 0.720584 0.397666 0.193562
H8    H     H_    0.088244 0.204609 0.619711 0.192177
H9    H     H_    0.880694 0.059800 0.688320 0.162986
H10   H     H_    0.029336 0.855168 0.569709 0.168628
H11   H     H_    0.909741 0.790300 0.371490 0.153504
H12   H     H_    0.388895 0.435270 0.244233 0.184523
H13   H     H_    0.493323 0.251067 0.099479 0.154425
N1    N     N_R   0.575030 0.246270 0.438190 -0.211378
N2    N     N_R   0.425760 0.754330 0.561190 -0.207323
O1    O     O_R   0.537510 0.972500 0.318130 -0.571259
O2    O     O_R   0.487140 0.806530 0.359650 -0.597527
O3    O     O_R   0.708330 0.082950 0.479220 -0.605685
O4    O     O_R   0.657960 0.916980 0.520740 -0.585666
O5    O     O_R   0.512860 0.193470 0.640350 -0.564027
O6    O     O_R   0.462490 0.027500 0.681870 -0.540385
O7    O     O_R   0.342040 0.083020 0.479260 -0.538593
O8    O     O_R   0.291670 0.917050 0.520780 -0.586806
I1    I     I_    0.160535 0.909340 0.219311 -0.378988
I2    I     I_    0.292890 0.360533 0.786349 -0.333880
O9    O     O_3   0.547514 0.538615 0.820690 -0.549346
C39   C     C_3   0.682381 0.535581 0.812296 0.050137
H14   H     H_    0.701189 0.483982 0.857347 0.137075
H15   H     H_    0.734326 0.629570 0.849060 0.145643
C40   C     C_3   0.738235 0.472241 0.687008 -0.693282
H16   H     H_    0.722716 0.523416 0.640709 0.256597
H17   H     H_    0.690573 0.377404 0.647246 0.264501
H18   H     H_    0.844096 0.469121 0.679868 0.214679
I3    I     I_    0.537638 0.806483 0.847442 -0.373031
I4    I     I_    0.226295 0.650288 0.334606 -0.302747
I5    I     I_    0.929097 0.373449 0.278530 -0.369043
I6    I     I_    0.299727 0.268077 0.414614 -0.337708
O10   O     O_3   0.167315 0.645509 0.738572 -0.567508
C41   C     C_3   0.133547 0.760244 0.825221 0.063954
H19   H     H_    0.081805 0.803999 0.790477 0.135962
H20   H     H_    0.220231 0.821955 0.862582 0.176405
C42   C     C_3   0.042033 0.740688 0.921162 -0.698561
H21   H     H_    0.092144 0.700233 0.960027 0.277108
H22   H     H_    0.010329 0.829490 0.988131 0.212736
H23   H     H_    0.955353 0.677687 0.886947 0.226390
O11   O     O_3   0.595792 0.105431 0.877930 -0.556971
C43   C     C_3   0.676525 0.121662 0.959225 0.109868
H24   H     H_    0.620978 0.084294 0.019243 0.168674
H25   H     H_    0.712693 0.219422 0.009533 0.141589
C44   C     C_3   0.796940 0.054540 0.899845 -0.762995
H26   H     H_    0.832365 0.029397 0.959201 0.216585
H27   H     H_    0.776120 0.970229 0.821473 0.277685
H28   H     H_    0.875609 0.115448 0.876547 0.220044

loop_
_geom_bond_atom_site_label_1
_geom_bond_atom_site_label_2
_ccdc_geom_bond_type
C43   H24   S    
C16   I4    S    
C35   C36   S    
C26   N2    A    
C7    C8    A    
C38   H9    S    
C11   C19   A    
C29   C30   A    
Cu2   O8    S    
C5    H13   S    
C28   C29   A    
C1    O1    A    
Cu1   N1    S    
C6    C23   S    
C15   C16   A    
C34   C37   S    
C33   C36   S    
C20   I5    S    
C34   C35   S    
Cu1   O7    S    
C9    O9    S    
C2    H10   S    
C12   O4    A    
C8    C9    A    
C35   I1    S    
C4    C12   S    
C9    C10   A    
C12   O3    A    
O9    C39   S    
Cu2   O4    S    
C21   C22   A    
C29   H3    S    
C32   N1    A    
C31   I6    S    
C23   O5    A    
C6    C18   A    
C4    C34   S    
C1    C19   S    
C27   C31   A    
C39   H14   S    
C30   H7    S    
C24   C25   A    
C22   O10   S    
Cu1   Cu2   S    
C41   H20   S    
C3    H11   S    
O10   C41   S    
C33   O7    A    
C5    C18   A    
C20   C28   A    
C25   C26   A    
Cu1   O3    S    
Cu2   O6    S    
C39   H15   S    
C37   C38   S    
C1    O2    A    
C21   H4    S    
C11   C16   A    
C2    C38   S    
C44   H27   S    
Cu1   O1    S    
C3    C35   S    
C33   O8    A    
Cu2   N2    S    
C40   H18   S    
C8    I3    S    
C34   H5    S    
C18   O11   S    
C15   H12   S    
C37   H8    S    
C5    C14   A    
C40   H16   S    
C4    C38   S    
C26   C30   A    
C42   H22   S    
C43   H25   S    
C22   C24   A    
C3    C4    S    
C44   H28   S    
C21   N2    A    
C20   C32   A    
C2    C36   S    
C6    C17   A    
C36   C37   S    
Cu2   O2    S    
O11   C43   S    
C17   I2    S    
C10   C13   A    
C41   C42   S    
C25   C27   A    
C42   H23   S    
C7    C19   A    
C13   C17   A    
C39   C40   S    
C24   H6    S    
C2    C3    S    
C44   H26   S    
Cu1   O5    S    
C7    H1    S    
C31   N1    A    
C10   C11   A    
C41   H19   S    
C23   O6    A    
C42   H21   S    
C43   C44   S    
C27   C28   A    
C32   H2    S    
C14   C15   A    
C40   H17   S    
C13   C14   A    
