data_mof_unit_16473.cif
_audit_creation_date              2012-12-10T17:52:36-0500
_audit_creation_method            fapswitch 2.2
_symmetry_space_group_name_H-M    P1
_symmetry_Int_Tables_number       1
_space_group_crystal_system       triclinic
_cell_length_a                    14.794846
_cell_length_b                    14.794212
_cell_length_c                    23.527333
_cell_angle_alpha                 76.051631
_cell_angle_beta                  102.826508
_cell_angle_gamma                 115.017699
_cell_volume                      4486.46689662

loop_
_atom_site_label
_atom_site_type_symbol
_atom_type_description
_atom_site_fract_x
_atom_site_fract_y
_atom_site_fract_z
_atom_type_partial_charge
C1    C     C_R   0.880431 0.312473 0.510412 0.849388
C2    C     C_R   0.119571 0.687627 0.490179 0.851736
C3    C     C_R   0.981786 0.574646 0.748610 -0.158062
C4    C     C_R   0.028152 0.432235 0.251066 -0.167994
C5    C     C_R   0.983448 0.579893 0.688622 0.321531
C6    C     C_R   0.029475 0.428152 0.311332 0.398536
C7    C     C_R   0.001931 0.504662 0.670972 -0.152545
C8    C     C_R   0.997815 0.494677 0.328795 -0.159916
C9    C     C_R   0.021349 0.428591 0.714182 -0.266226
C10   C     C_R   0.964216 0.561410 0.285030 -0.260727
C11   C     C_R   0.020865 0.425466 0.773788 -0.081518
C12   C     C_R   0.963033 0.563864 0.225321 -0.088955
C13   C     C_R   0.000832 0.498335 0.791190 0.277542
C14   C     C_R   0.995021 0.499331 0.208250 0.279093
C15   C     C_R   0.812535 0.204987 0.516129 -0.080334
C16   C     C_R   0.187209 0.795417 0.484832 -0.084411
C17   C     C_R   0.783048 0.026915 0.531211 0.413618
C18   C     C_R   0.216043 0.974020 0.461336 0.412717
C19   C     C_R   0.849561 0.128816 0.527982 -0.249683
C20   C     C_R   0.149887 0.871735 0.466002 -0.231147
C21   C     C_R   0.708728 0.179419 0.508436 -0.236427
C22   C     C_R   0.290926 0.821316 0.499076 -0.241591
C23   C     C_R   0.001307 0.502679 0.608608 0.844621
C24   C     C_R   0.998775 0.497297 0.391302 0.857240
C25   C     C_R   0.639374 0.078835 0.509240 0.018810
C26   C     C_R   0.359984 0.922441 0.491898 0.014886
C27   C     C_R   0.678102 0.002066 0.521603 0.112478
C28   C     C_R   0.321045 0.999272 0.474169 0.106600
C29   C     C_R   0.532927 0.052696 0.497937 0.098958
C30   C     C_R   0.466397 0.948944 0.502084 0.103050
C31   C     C_R   0.508425 0.875146 0.514517 -0.237666
C32   C     C_R   0.490760 0.126810 0.481169 -0.242722
C33   C     C_R   0.611478 0.901243 0.523866 -0.151974
C34   C     C_R   0.387548 0.100494 0.469348 -0.150705
C35   C     C_R   0.698600 0.642531 0.389779 -0.253358
C36   C     C_R   0.273767 0.314785 0.586500 -0.259141
C37   C     C_R   0.785512 0.624014 0.408967 0.531224
C38   C     C_R   0.197126 0.349614 0.575992 0.517908
C39   C     C_R   0.718213 0.514870 0.495439 0.519174
C40   C     C_R   0.288941 0.494865 0.510860 0.531493
C41   C     C_R   0.623603 0.526193 0.474542 -0.127104
C42   C     C_R   0.366656 0.457173 0.517290 -0.101395
C43   C     C_R   0.618327 0.595324 0.422009 0.029921
C44   C     C_R   0.358536 0.367839 0.558159 0.032646
C45   C     C_R   0.065186 0.579744 0.116651 0.550449
C46   C     C_R   0.929533 0.418310 0.882744 0.549420
C47   C     C_R   0.533857 0.471412 0.502271 0.101163
C48   C     C_R   0.450558 0.502518 0.484400 0.103094
C49   C     C_R   0.449337 0.569553 0.430769 -0.189874
C50   C     C_R   0.519762 0.380508 0.542323 -0.232108
C51   C     C_R   0.531487 0.614670 0.400186 -0.146914
C52   C     C_R   0.433324 0.329379 0.569248 -0.134750
C53   C     C_R   0.922952 0.421980 0.120412 0.553108
C54   C     C_R   0.072930 0.575128 0.879386 0.547758
C55   C     C_R   0.922910 0.419547 0.061146 -0.023194
C56   C     C_R   0.072492 0.577836 0.938518 -0.019679
C57   C     C_R   0.996538 0.499448 0.029536 -0.014434
C58   C     C_R   0.998587 0.498185 0.970025 -0.014516
C59   C     C_R   0.068242 0.580520 0.057330 -0.021530
C60   C     C_R   0.926711 0.417314 0.942157 -0.020888
C61   C     C_R   0.851627 0.339195 0.032961 -0.149301
C62   C     C_R   0.143750 0.658232 0.966688 -0.149753
C63   C     C_R   0.853450 0.338137 0.974074 -0.152055
C64   C     C_R   0.141559 0.659630 0.025447 -0.152339
Cu1   Cu    Cu3+1 0.081740 0.475680 0.515360 1.032762
Cu2   Cu    Cu3+1 0.918260 0.524320 0.484640 1.046476
H1    H     H_    0.794243 0.276867 0.056289 0.193471
H2    H     H_    0.201314 0.720427 0.943418 0.193363
H3    H     H_    0.464167 0.795693 0.515935 0.138225
H4    H     H_    0.534942 0.206890 0.475013 0.150475
H5    H     H_    0.526744 0.665084 0.358714 0.156221
H6    H     H_    0.424939 0.258772 0.599136 0.153227
H7    H     H_    0.693659 0.693451 0.348521 0.182129
H8    H     H_    0.265783 0.244454 0.616654 0.183897
H9    H     H_    0.382791 0.583104 0.409221 0.209417
H10   H     H_    0.571525 0.343425 0.550502 0.178926
H11   H     H_    0.797304 0.275113 0.953688 0.192450
H12   H     H_    0.197596 0.722744 0.045801 0.192624
H13   H     H_    0.967134 0.630902 0.762885 0.190452
H14   H     H_    0.052467 0.382801 0.236776 0.187396
H15   H     H_    0.035985 0.370687 0.701691 0.171113
H16   H     H_    0.939914 0.612968 0.297055 0.211283
H17   H     H_    0.036303 0.366514 0.806521 0.161899
H18   H     H_    0.937199 0.615920 0.192255 0.161568
H19   H     H_    0.638715 0.841083 0.532728 0.207699
H20   H     H_    0.360080 0.160801 0.456120 0.214046
H21   H     H_    0.315815 0.760534 0.516910 0.181400
H22   H     H_    0.684075 0.240111 0.502340 0.172814
H23   H     H_    0.069421 0.851911 0.455396 0.175186
H24   H     H_    0.930027 0.148437 0.534573 0.182492
N1    N     N_R   0.993607 0.501050 0.146870 -0.459835
N2    N     N_R   0.001681 0.496601 0.852614 -0.458999
N3    N     N_R   0.795430 0.560810 0.461550 -0.227511
N4    N     N_R   0.204570 0.439190 0.538450 -0.232309
O1    O     O_R   0.977900 0.338110 0.520250 -0.567244
O2    O     O_R   0.022100 0.661890 0.479750 -0.592145
O3    O     O_R   0.839850 0.379180 0.494310 -0.569909
O4    O     O_R   0.160150 0.620820 0.505690 -0.542574
O5    O     O_R   0.069020 0.479430 0.595090 -0.638399
O6    O     O_R   0.930980 0.520570 0.404910 -0.597955
O7    O     O_R   0.930970 0.520500 0.569150 -0.464220
O8    O     O_R   0.069030 0.479500 0.430850 -0.488824
O9    O     O_2   0.133829 0.656261 0.144166 -0.524960
O10   O     O_2   0.859981 0.342438 0.855064 -0.527876
O11   O     O_2   0.853036 0.346052 0.151416 -0.514681
O12   O     O_2   0.144169 0.650211 0.848870 -0.524450
O13   O     O_3   0.818836 0.950808 0.543094 -0.704572
H25   H     H_    0.893502 0.981149 0.548510 0.350171
O14   O     O_3   0.179871 0.050147 0.443906 -0.707643
H26   H     H_    0.105241 0.019554 0.436885 0.345376
O15   O     O_3   0.297960 0.588415 0.479208 -0.711862
H27   H     H_    0.368443 0.635383 0.488984 0.280616
O16   O     O_3   0.736749 0.462705 0.550446 -0.698525
H28   H     H_    0.707293 0.479747 0.578314 0.330480
O17   O     O_3   0.113816 0.288089 0.603443 -0.731678
H29   H     H_    0.085467 0.330918 0.612741 0.354317
O18   O     O_3   0.857719 0.669782 0.371682 -0.740523
H30   H     H_    0.923708 0.680890 0.395128 0.358115
S1    S     S_3+6 0.970502 0.685906 0.638613 0.038686
O19   O     O_2   0.868413 0.653599 0.602240 -0.237101
O20   O     O_2   0.981197 0.766186 0.671428 -0.263782
O21   O     O_3   0.059124 0.735027 0.593406 -0.528141
H31   H     H_    0.123911 0.750007 0.620038 0.332675
S2    S     S_3+6 0.066856 0.336013 0.362058 0.029962
O22   O     O_2   0.068870 0.260344 0.330155 -0.263884
O23   O     O_2   0.170510 0.387527 0.393499 -0.281652
O24   O     O_3   0.985444 0.274741 0.411640 -0.539016
H32   H     H_    0.015437 0.230834 0.440692 0.375635

loop_
_geom_bond_atom_site_label_1
_geom_bond_atom_site_label_2
_ccdc_geom_bond_type
C23   O5    A    
O15   H27   S    
C18   O14   S    
C6    S2    S    
C3    H13   S    
C39   C41   A    
C27   C33   A    
C15   C19   A    
C59   C64   A    
C51   H5    S    
C5    S1    S    
C60   C63   A    
Cu2   O3    S    
Cu2   O2    S    
C35   C37   A    
Cu1   O4    S    
C4    H14   S    
C29   C32   A    
C17   O13   S    
Cu1   N4    S    
C30   C31   A    
C57   C59   A    
C46   N2    A    
C58   C60   A    
O17   H29   S    
C12   H18   S    
C34   H20   S    
Cu2   O6    S    
C61   C63   A    
C33   H19   S    
C39   N3    A    
C62   C64   A    
C45   O9    S    
C17   C19   A    
Cu2   N3    S    
C45   C59   A    
C39   O16   S    
C53   N1    A    
C50   C52   A    
O13   H25   S    
C49   H9    S    
C1    C15   S    
C47   C50   A    
C35   C43   A    
C24   O8    A    
C3    C13   A    
C16   C20   A    
C44   C52   A    
C40   C42   A    
C21   H22   S    
C28   C34   A    
C41   C43   A    
Cu2   O7    S    
C42   C44   A    
Cu1   O8    S    
C40   O15   S    
C53   C55   A    
C25   C29   A    
C54   C56   A    
C54   O12   S    
Cu1   O1    S    
C17   C27   A    
C18   C28   A    
Cu1   O5    S    
C4    C6    A    
C1    O3    A    
C5    C7    A    
C32   H4    S    
C49   C51   A    
C46   O10   S    
C10   H16   S    
C32   C34   A    
C54   N2    A    
C29   C30   A    
C52   H6    S    
C50   H10   S    
C61   H1    S    
C47   C48   A    
C31   H3    S    
C1    O1    A    
C38   N4    A    
C31   C33   A    
C41   C47   A    
C37   N3    A    
C42   C48   A    
C22   H21   S    
C9    C11   A    
S1    O20   D    
C10   C12   A    
S2    O24   S    
C48   C49   A    
C12   C14   A    
C26   C30   A    
C55   C57   A    
C13   N2    S    
C56   C62   A    
C36   C44   A    
O24   H32   S    
C2    C16   S    
S2    O23   D    
O16   H28   S    
C63   H11   S    
S1    O21   S    
C7    C9    A    
C21   C25   A    
C35   H7    S    
C16   C22   A    
C46   C60   A    
C24   O6    A    
C64   H12   S    
C40   N4    A    
C3    C5    A    
C6    C8    A    
S1    O19   D    
C25   C27   A    
C20   H23   S    
C26   C28   A    
C62   H2    S    
C11   H17   S    
C2    O2    A    
C19   H24   S    
O18   H30   S    
C38   O17   S    
C11   C13   A    
C43   C51   A    
C57   C58   A    
C23   O7    A    
C7    C23   S    
C55   C61   A    
C36   C38   A    
C8    C24   S    
C56   C58   A    
C18   C20   A    
C4    C14   A    
C45   N1    A    
C14   N1    S    
C53   O11   S    
C15   C21   A    
C37   O18   S    
C2    O4    A    
C8    C10   A    
Cu1   Cu2   S    
C22   C26   A    
O21   H31   S    
O14   H26   S    
C36   H8    S    
C9    H15   S    
S2    O22   D    
