data_mof_unit_9299.cif
_audit_creation_date              2012-12-10T18:58:40-0500
_audit_creation_method            fapswitch 2.2
_symmetry_space_group_name_H-M    P1
_symmetry_Int_Tables_number       1
_space_group_crystal_system       triclinic
_cell_length_a                    10.656229
_cell_length_b                    10.055715
_cell_length_c                    17.367958
_cell_angle_alpha                 92.57866
_cell_angle_beta                  93.627272
_cell_angle_gamma                 89.695969
_cell_volume                      1855.46627665

loop_
_atom_site_label
_atom_site_type_symbol
_atom_type_description
_atom_site_fract_x
_atom_site_fract_y
_atom_site_fract_z
_atom_type_partial_charge
C1    C     C_R   0.260791 0.500592 0.500040 0.823509
C2    C     C_R   0.483213 0.503474 0.645212 0.874668
C3    C     C_R   0.872594 0.501137 0.501096 -0.008718
C4    C     C_R   0.128534 0.503089 0.501731 0.011149
C5    C     C_R   0.462687 0.640575 0.848401 0.115637
C6    C     C_R   0.556169 0.367303 0.144927 0.128212
C7    C     C_R   0.598369 0.606384 0.158993 0.162679
C8    C     C_R   0.402510 0.405162 0.844477 0.132615
C9    C     C_R   0.441956 0.639415 0.767500 0.089797
C10   C     C_R   0.546144 0.361821 0.226024 0.113770
C11   C     C_R   0.609064 0.595872 0.239856 0.131293
C12   C     C_R   0.739515 0.499977 0.500399 0.840166
C13   C     C_R   0.399531 0.401353 0.762688 0.093647
C14   C     C_R   0.444122 0.513891 0.726079 -0.204071
C15   C     C_R   0.553843 0.484541 0.272310 -0.206993
C16   C     C_R   0.596264 0.072570 0.538164 0.127915
C17   C     C_R   0.415713 0.925214 0.452288 0.176153
C18   C     C_R   0.409469 0.068389 0.457083 0.159921
C19   C     C_R   0.589825 0.930541 0.544043 0.119722
C20   C     C_R   0.451265 0.519972 0.885675 0.025270
C21   C     C_R   0.560328 0.493509 0.112878 -0.031680
C22   C     C_3   0.497905 0.768574 0.894675 -0.402091
C23   C     C_1   0.488609 0.514109 0.966178 -0.031124
C24   C     C_3   0.384516 0.828628 0.933443 -0.860583
C25   C     C_3   0.563290 0.241930 0.091565 -0.392968
C26   C     C_3   0.686008 0.164111 0.105296 -0.881189
C27   C     C_3   0.630741 0.735345 0.121555 -0.383666
C28   C     C_3   0.524237 0.836602 0.125887 -0.912200
C29   C     C_3   0.351109 0.291389 0.888472 -0.405200
C30   C     C_3   0.229361 0.331792 0.925279 -0.877940
C31   C     C_3   0.396570 0.766359 0.728482 -0.374991
C32   C     C_3   0.265739 0.748116 0.687932 -0.814786
C33   C     C_3   0.528343 0.226825 0.261132 -0.335904
C34   C     C_1   0.522128 0.506857 0.032919 -0.050627
C35   C     C_3   0.645929 0.182216 0.309121 -0.806005
C36   C     C_3   0.702690 0.684733 0.287587 -0.405985
C37   C     C_3   0.837548 0.643599 0.271434 -0.920734
C38   C     C_3   0.325169 0.293390 0.715557 -0.343023
C39   C     C_3   0.394134 0.159854 0.708842 -0.896083
C40   C     C_3   0.719634 0.139127 0.565831 -0.290030
C41   C     C_3   0.721292 0.210785 0.645650 -0.827248
C42   C     C_3   0.334217 0.849878 0.389843 -0.347606
C43   C     C_3   0.388809 0.856599 0.310923 -0.918261
C44   C     C_3   0.299542 0.137112 0.415620 -0.348230
C45   C     C_R   0.070150 0.413735 0.546723 -0.207315
C46   C     C_3   0.183588 0.135392 0.463117 -0.856434
C47   C     C_3   0.677863 0.864298 0.604517 -0.360889
C48   C     C_3   0.811051 0.829533 0.580630 -0.833870
C49   C     C_R   0.931458 0.596434 0.460022 -0.210101
C50   C     C_R   0.941733 0.411894 0.545773 -0.223978
C51   C     C_R   0.060163 0.596774 0.459578 -0.188340
C52   C     C_R   0.514520 0.495931 0.353939 0.865233
H1    H     H_    0.305521 0.845936 0.890271 0.254803
H2    H     H_    0.562604 0.267399 0.030508 0.207279
H3    H     H_    0.431651 0.788484 0.111523 0.269999
H4    H     H_    0.525367 0.884731 0.184453 0.257910
H5    H     H_    0.537515 0.915255 0.084445 0.261962
H6    H     H_    0.718612 0.781024 0.147628 0.208553
H7    H     H_    0.650982 0.716020 0.060384 0.198817
H8    H     H_    0.245440 0.416361 0.967999 0.266788
H9    H     H_    0.157226 0.360831 0.880093 0.255112
H10   H     H_    0.193149 0.246390 0.955577 0.244702
H11   H     H_    0.331368 0.200200 0.852025 0.226708
H12   H     H_    0.351731 0.760823 0.976629 0.266761
H13   H     H_    0.421591 0.260402 0.933435 0.190588
H14   H     H_    0.263837 0.664424 0.644278 0.268798
H15   H     H_    0.196219 0.727930 0.730974 0.243349
H16   H     H_    0.237321 0.840296 0.658433 0.235131
H17   H     H_    0.386746 0.851532 0.770054 0.202979
H18   H     H_    0.463825 0.801953 0.688500 0.211422
H19   H     H_    0.726150 0.166020 0.272256 0.238824
H20   H     H_    0.677085 0.256713 0.355065 0.279629
H21   H     H_    0.626021 0.087368 0.336358 0.225513
H22   H     H_    0.443687 0.227716 0.294478 0.188414
H23   H     H_    0.411024 0.925542 0.962960 0.241637
H24   H     H_    0.505312 0.146120 0.217566 0.189108
H25   H     H_    0.858727 0.544301 0.294757 0.268942
H26   H     H_    0.852511 0.637591 0.208778 0.260138
H27   H     H_    0.904802 0.717593 0.299396 0.244792
H28   H     H_    0.687836 0.790999 0.275078 0.202111
H29   H     H_    0.694514 0.678332 0.350214 0.234597
H30   H     H_    0.468011 0.148911 0.756162 0.244336
H31   H     H_    0.325824 0.077233 0.710524 0.235926
H32   H     H_    0.437409 0.149518 0.652703 0.284206
H33   H     H_    0.233722 0.279230 0.741466 0.188212
H34   H     H_    0.574472 0.749409 0.938825 0.203848
H35   H     H_    0.298226 0.325986 0.656897 0.204950
H36   H     H_    0.814520 0.197138 0.676787 0.206065
H37   H     H_    0.708222 0.319103 0.641219 0.276236
H38   H     H_    0.650376 0.169667 0.681699 0.250389
H39   H     H_    0.796754 0.068183 0.569491 0.181008
H40   H     H_    0.759422 0.191258 0.519428 0.204091
H41   H     H_    0.338421 0.785945 0.268892 0.255781
H42   H     H_    0.381640 0.957335 0.287920 0.236138
H43   H     H_    0.489310 0.829249 0.315645 0.278074
H44   H     H_    0.325032 0.745568 0.401101 0.267403
H45   H     H_    0.538729 0.842971 0.858169 0.182926
H46   H     H_    0.235523 0.884521 0.386725 0.173849
H47   H     H_    0.141649 0.034670 0.461879 0.229218
H48   H     H_    0.209315 0.164557 0.524365 0.270514
H49   H     H_    0.111355 0.204501 0.438941 0.257238
H50   H     H_    0.324205 0.237905 0.401120 0.249532
H51   H     H_    0.273692 0.092344 0.357773 0.172319
H52   H     H_    0.819169 0.841302 0.517922 0.257779
H53   H     H_    0.882693 0.892273 0.614007 0.223555
H54   H     H_    0.836127 0.726513 0.595983 0.259549
H55   H     H_    0.684634 0.928145 0.658484 0.172554
H56   H     H_    0.766045 0.232614 0.120736 0.267388
H57   H     H_    0.638314 0.773559 0.622948 0.248573
H58   H     H_    0.122977 0.345984 0.582627 0.129245
H59   H     H_    0.878141 0.670196 0.428743 0.156336
H60   H     H_    0.897822 0.343681 0.581428 0.154649
H61   H     H_    0.105805 0.668427 0.425997 0.129229
H62   H     H_    0.678376 0.091798 0.150817 0.263589
H63   H     H_    0.706827 0.105369 0.051853 0.239713
H64   H     H_    0.479833 0.177407 0.094956 0.183947
N1    N     N_R   0.500000 0.857200 0.500000 -0.139061
N2    N     N_R   0.500000 0.142800 0.500000 -0.134023
O1    O     O_R   0.316770 0.614620 0.500000 -0.643534
O2    O     O_R   0.683230 0.385380 0.500000 -0.628768
O3    O     O_R   0.683230 0.614620 0.500000 -0.610153
O4    O     O_R   0.316770 0.385380 0.500000 -0.621256
O5    O     O_R   0.500010 0.614710 0.389120 -0.621279
O6    O     O_R   0.499990 0.385290 0.610880 -0.586657
O7    O     O_R   0.499990 0.614710 0.610880 -0.630415
O8    O     O_R   0.500010 0.385290 0.389120 -0.622056
Zn1   Zn    Zn3+2 0.500000 0.653120 0.500000 0.907357
Zn2   Zn    Zn3+2 0.500000 0.346880 0.500000 0.913620

loop_
_geom_bond_atom_site_label_1
_geom_bond_atom_site_label_2
_ccdc_geom_bond_type
C41   H37   S    
C46   H47   S    
C29   H11   S    
C8    C13   A    
C3    C49   A    
C5    C20   A    
C28   H5    S    
C7    C11   A    
C37   H27   S    
C8    C20   A    
C42   H44   S    
C8    C29   S    
C32   H14   S    
C11   C36   S    
C39   H32   S    
O3    Zn1   S    
C16   N2    A    
C10   C15   A    
C42   H46   S    
C38   C39   S    
C52   O5    A    
C19   C47   S    
C6    C25   S    
C48   H52   S    
C43   H42   S    
C7    C27   S    
C1    O1    A    
C26   H63   S    
C3    C12   S    
C33   C35   S    
C12   O2    A    
C11   C15   A    
C28   H3    S    
C31   H18   S    
C48   H54   S    
C12   O3    A    
C47   C48   S    
C49   C51   A    
C30   H8    S    
C43   H43   S    
C18   N2    A    
C17   N1    A    
O6    Zn2   S    
C41   H38   S    
C35   H19   S    
C24   H12   S    
C22   H45   S    
C13   C14   A    
N2    Zn2   S    
C44   H51   S    
C44   C46   S    
C4    C45   A    
C28   H4    S    
C46   H49   S    
C5    C22   S    
C4    C51   A    
C25   H2    S    
C36   H28   S    
C25   H64   S    
C26   H56   S    
C44   H50   S    
C45   H58   S    
C21   C34   S    
C38   H33   S    
C25   C26   S    
C47   H57   S    
C6    C21   A    
C37   H25   S    
C9    C14   A    
C26   H62   S    
C5    C9    A    
C29   C30   S    
C18   C44   S    
C33   H24   S    
O5    Zn1   S    
C48   H53   S    
C20   C23   S    
C36   H29   S    
C23   C34   T    
C50   H60   S    
C17   C18   A    
C51   H61   S    
C15   C52   S    
C40   H40   S    
N1    Zn1   S    
C13   C38   S    
C16   C40   S    
C32   H15   S    
C29   H13   S    
C40   C41   S    
C35   H20   S    
C47   H55   S    
C30   H10   S    
C22   C24   S    
C42   C43   S    
C17   C42   S    
C3    C50   A    
C41   H36   S    
C46   H48   S    
C35   H21   S    
O8    Zn2   S    
C31   C32   S    
C39   H30   S    
C27   H6    S    
C6    C10   A    
O2    Zn2   S    
C24   H23   S    
C2    O6    A    
C37   H26   S    
C49   H59   S    
C38   H35   S    
C1    C4    S    
C24   H1    S    
C39   H31   S    
C27   H7    S    
C32   H16   S    
C7    C21   A    
C52   O8    A    
C45   C50   A    
C16   C19   A    
C43   H41   S    
C10   C33   S    
C22   H34   S    
C40   H39   S    
O4    Zn2   S    
C2    C14   S    
C9    C31   S    
C2    O7    A    
C33   H22   S    
C31   H17   S    
C19   N1    A    
C36   C37   S    
C30   H9    S    
C27   C28   S    
O7    Zn1   S    
C1    O4    A    
O1    Zn1   S    
