data_mof_unit_5566.cif
_audit_creation_date              2013-03-05T16:05:45-0500
_audit_creation_method            fapswitch 2.2
_symmetry_space_group_name_H-M    P1
_symmetry_Int_Tables_number       1
_space_group_crystal_system       triclinic
_cell_length_a                    9.520804
_cell_length_b                    10.824302
_cell_length_c                    17.174988
_cell_angle_alpha                 90.168978
_cell_angle_beta                  84.883187
_cell_angle_gamma                 89.948801
_cell_volume                      1762.9241925

loop_
_atom_site_label
_atom_site_type_symbol
_atom_site_description
_atom_site_fract_x
_atom_site_fract_y
_atom_site_fract_z
_atom_type_partial_charge
O1    O     O_R   0.381260 0.680340 0.500000 -0.587619
O2    O     O_R   0.618740 0.319660 0.500000 -0.587615
O3    O     O_R   0.618830 0.680370 0.500010 -0.592531
O4    O     O_R   0.381170 0.319630 0.499990 -0.592535
C1    C     C_R   0.499998 0.737910 0.500044 0.776566
C2    C     C_R   0.500002 0.262090 0.499958 0.776518
O5    O     O_R   0.367440 0.500000 0.613600 -0.582400
O6    O     O_R   0.632560 0.500000 0.386400 -0.582410
O7    O     O_R   0.605010 0.500030 0.613600 -0.575079
O8    O     O_R   0.394990 0.499970 0.386400 -0.575072
C3    C     C_R   0.480191 0.499020 0.649948 0.860597
C4    C     C_R   0.519809 0.500970 0.350051 0.860603
Cu1   Cu    Cu3+1 0.359340 0.499980 0.500000 0.946627
Cu2   Cu    Cu3+1 0.640660 0.500020 0.500000 0.946624
C5    C     C_R   0.464788 0.499016 0.735186 -0.121974
C6    C     C_R   0.535211 0.500860 0.264811 -0.122029
C7    C     C_R   0.495522 0.607702 0.775980 0.009378
C8    C     C_R   0.504255 0.392173 0.224077 0.009435
C9    C     C_R   0.481916 0.606943 0.858252 0.315236
C10   C     C_R   0.517841 0.392820 0.141804 0.315181
C11   C     C_R   0.436239 0.498655 0.898452 -0.160156
C12   C     C_R   0.563725 0.500995 0.101542 -0.160015
C13   C     C_R   0.398792 0.392684 0.857488 0.341329
C14   C     C_R   0.601421 0.606947 0.142446 0.341384
C15   C     C_R   0.413265 0.392162 0.775244 0.004284
C16   C     C_R   0.586957 0.607587 0.224690 0.004252
C17   C     C_2   0.439490 0.491418 0.983659 -0.033076
C18   C     C_2   0.560470 0.508158 0.016329 -0.033219
H1    H     H_    0.655926 0.533573 0.980607 0.205879
H2    H     H_    0.344017 0.466025 0.019373 0.205927
C19   C     C_R   0.627713 0.936010 0.499513 -0.171657
C20   C     C_R   0.372286 0.063990 0.500492 -0.171661
H3    H     H_    0.727565 0.887856 0.499117 0.153293
H4    H     H_    0.272434 0.112145 0.500888 0.153295
C21   C     C_R   0.627744 0.063776 0.499440 -0.169348
C22   C     C_R   0.372255 0.936224 0.500565 -0.169343
H5    H     H_    0.727610 0.111762 0.498973 0.154111
H6    H     H_    0.272389 0.888238 0.501032 0.154107
C23   C     C_R   0.500030 0.128247 0.499948 -0.024819
C24   C     C_R   0.499969 0.871753 0.500056 -0.024804
C25   C     C_R   0.917578 0.574945 0.549803 -0.006017
C26   C     C_R   0.082421 0.425054 0.450197 -0.006000
H7    H     H_    0.855117 0.635163 0.589612 0.124106
H8    H     H_    0.144881 0.364836 0.410389 0.124066
C27   C     C_R   0.066396 0.574854 0.549813 -0.013949
C28   C     C_R   0.933604 0.425145 0.450187 -0.013966
H9    H     H_    0.116085 0.634907 0.589656 0.128982
H10   H     H_    0.883915 0.365093 0.410344 0.128993
N1    N     N_R   0.147930 0.499970 0.499980 -0.164615
N2    N     N_R   0.852070 0.500030 0.500020 -0.164622
C29   C     C_3   0.536381 0.724445 0.730822 -0.720155
H11   H     H_    0.539709 0.807546 0.768333 0.278908
H12   H     H_    0.641654 0.712218 0.698381 0.223563
H13   H     H_    0.457665 0.744165 0.688484 0.198381
C30   C     C_3   0.463197 0.275531 0.269296 -0.720076
H14   H     H_    0.459757 0.192389 0.231832 0.278839
H15   H     H_    0.541864 0.255771 0.311656 0.198335
H16   H     H_    0.357931 0.287915 0.301717 0.223582
C31   C     C_3   0.625943 0.720805 0.270390 -0.726034
H17   H     H_    0.531914 0.754730 0.307226 0.214100
H18   H     H_    0.709986 0.696963 0.308581 0.229821
H19   H     H_    0.666998 0.798081 0.232930 0.272170
C32   C     C_3   0.374518 0.278938 0.729478 -0.726168
H20   H     H_    0.468635 0.245171 0.692650 0.214146
H21   H     H_    0.333559 0.201574 0.766890 0.272145
H22   H     H_    0.290474 0.302711 0.691272 0.229774
N3    N     N_R   0.353151 0.283770 0.899866 0.145430
O9    O     O_R   0.434016 0.186675 0.898255 -0.248412
O10   O     O_R   0.233383 0.283369 0.942698 -0.286717
N4    N     N_R   0.647321 0.715731 0.100008 0.145353
O11   O     O_R   0.566650 0.812943 0.101520 -0.248200
O12   O     O_R   0.767151 0.715906 0.057231 -0.286968
N5    N     N_R   0.485506 0.284183 0.098664 0.137891
O13   O     O_R   0.579419 0.237102 0.047322 -0.252500
O14   O     O_R   0.358722 0.238353 0.105944 -0.283478
N6    N     N_R   0.514041 0.715572 0.901456 0.137957
O15   O     O_R   0.640748 0.761567 0.894221 -0.283250
O16   O     O_R   0.420039 0.762453 0.952827 -0.252680

loop_
_geom_bond_atom_site_label_1
_geom_bond_atom_site_label_2
_geom_bond_distance
_ccdc_geom_bond_type
C30   H14   1.106990 S    
C32   H21   1.106922 S    
C25   H7    1.081727 S    
N5    O13   1.301022 A    
C7    C29   1.517416 S    
C14   N4    1.434550 S    
O5    C3    1.289091 A    
O1    C1    1.291398 A    
C20   C22   1.382983 A    
C12   C14   1.406619 A    
C9    N6    1.436214 S    
C9    C11   1.411338 A    
C14   C16   1.406957 A    
C15   C32   1.517504 S    
C5    C15   1.413249 A    
C19   C24   1.400923 A    
C26   C28   1.416878 A    
C20   C23   1.400923 A    
C13   N3    1.434557 S    
O4    Cu1   1.963009 S    
C3    C5    1.458217 S    
C4    C6    1.458251 S    
C19   H3    1.083269 S    
N4    O11   1.301022 A    
C16   C31   1.517502 S    
C11   C17   1.468838 S    
C32   H22   1.109658 S    
C31   H17   1.110663 S    
C12   C18   1.468881 S    
Cu1   Cu2   2.678392 S    
C17   H2    1.086290 S    
N5    O14   1.301268 A    
O2    C2    1.291396 A    
C26   H8    1.081722 S    
C27   H9    1.081793 S    
C11   C13   1.406611 A    
C6    C16   1.413252 A    
C28   H10   1.081794 S    
C31   H18   1.109657 S    
N3    O9    1.301025 A    
C22   C24   1.400763 A    
N6    O15   1.301267 A    
O4    C2    1.290949 A    
C29   H11   1.106992 S    
N3    O10   1.300716 A    
C20   H4    1.083268 S    
C21   C23   1.400761 A    
O7    Cu2   1.950330 S    
C27   N1    1.366906 A    
O6    C4    1.289099 A    
O7    C3    1.292206 A    
O3    Cu2   1.963009 S    
O8    C4    1.292218 A    
C8    C30   1.517424 S    
Cu1   N1    2.012825 S    
C10   C12   1.411344 A    
C30   H15   1.110781 S    
C19   C21   1.382983 A    
C1    C24   1.448762 S    
O1    Cu1   1.963579 S    
C25   N2    1.367318 A    
C5    C7    1.411689 A    
C18   H1    1.086295 S    
C31   H19   1.106920 S    
O6    Cu2   1.959464 S    
C21   H5    1.083253 S    
N6    O16   1.301017 A    
O3    C1    1.290952 A    
O8    Cu1   1.950331 S    
C28   N2    1.366906 A    
C29   H13   1.110781 S    
C22   H6    1.083253 S    
Cu2   N2    2.012824 S    
C7    C9    1.407443 A    
C10   N5    1.436210 S    
C8    C10   1.407446 A    
C13   C15   1.406953 A    
O2    Cu2   1.963580 S    
C26   N1    1.367319 A    
C32   H20   1.110660 S    
O5    Cu1   1.959462 S    
C6    C8    1.411709 A    
C30   H16   1.110058 S    
C17   C18   1.337702 D    
C25   C27   1.416880 A    
C2    C23   1.448761 S    
N4    O12   1.300722 A    
C29   H12   1.110063 S    
