data_mof_unit_64150.cif
_audit_creation_date              2012-12-10T20:01:14-0500
_audit_creation_method            fapswitch 2.2
_symmetry_space_group_name_H-M    P1
_symmetry_Int_Tables_number       1
_space_group_crystal_system       triclinic
_cell_length_a                    32.120368
_cell_length_b                    32.119347
_cell_length_c                    23.5624
_cell_angle_alpha                 89.995635
_cell_angle_beta                  90.000043
_cell_angle_gamma                 90.0
_cell_volume                      24308.9803594

loop_
_atom_site_label
_atom_site_type_symbol
_atom_type_description
_atom_site_fract_x
_atom_site_fract_y
_atom_site_fract_z
_atom_type_partial_charge
C1    C     C_R   0.000003 0.419330 0.500008 0.906232
C2    C     C_1   0.161921 0.000000 0.500000 0.124366
C3    C     C_R   0.728614 0.966092 0.475550 0.330022
C4    C     C_R   0.034460 0.271424 0.476421 0.332012
C5    C     C_R   0.728614 0.033908 0.524451 0.330021
C6    C     C_R   0.966120 0.728718 0.476020 0.332104
C7    C     C_R   0.271347 0.021797 0.543031 0.333350
C8    C     C_R   0.471299 0.771336 0.965293 0.332504
C9    C     C_R   0.771333 0.528705 0.965300 0.332634
C10   C     C_R   0.528705 0.228669 0.965310 0.332358
C11   C     C_R   0.228667 0.471297 0.965304 0.332687
C12   C     C_R   0.528705 0.771331 0.034690 0.332358
C13   C     C_1   0.000379 0.838072 0.499991 0.127354
C14   C     C_R   0.228667 0.528703 0.034696 0.332687
C15   C     C_R   0.471299 0.228664 0.034707 0.332504
C16   C     C_R   0.771333 0.471295 0.034700 0.332635
C17   C     C_R   0.000257 0.293328 0.500244 -0.227674
C18   C     C_R   0.293323 0.000000 0.500000 -0.227464
C19   C     C_R   0.000256 0.706672 0.499756 -0.227674
C20   C     C_R   0.706644 1.000000 0.500000 -0.226597
C21   C     C_R   0.500002 0.793312 0.999993 -0.227619
C22   C     C_R   0.793311 0.500000 0.000000 -0.227331
C23   C     C_R   0.500002 0.206688 0.000007 -0.227618
C24   C     C_1   0.838053 1.000000 0.500000 0.122256
C25   C     C_R   0.206688 0.500000 1.000000 -0.227311
C26   C     C_3   0.098467 0.200135 0.495386 0.148004
C27   C     C_3   0.133218 0.173707 0.470377 -0.799017
C28   C     C_3   0.199529 0.084599 0.566955 0.140480
C29   C     C_3   0.172866 0.106454 0.611202 -0.788834
C30   C     C_3   0.902555 0.800113 0.496660 0.123943
C31   C     C_3   0.869374 0.829620 0.474257 -0.750234
C32   C     C_3   0.799238 0.058300 0.607639 0.141343
C33   C     C_3   0.826627 0.092176 0.632887 -0.788725
C34   C     C_3   0.902556 0.199888 0.503342 0.123944
C35   C     C_1   0.500001 0.661914 0.999991 0.125624
C36   C     C_3   0.869374 0.170380 0.525747 -0.750238
C37   C     C_3   0.799238 0.941699 0.392361 0.141342
C38   C     C_3   0.826627 0.907823 0.367114 -0.788725
C39   C     C_3   0.098467 0.799865 0.504611 0.148005
C40   C     C_3   0.133218 0.826293 0.529620 -0.799018
C41   C     C_3   0.199529 0.915401 0.433044 0.140482
C42   C     C_3   0.172866 0.893547 0.388796 -0.788834
C43   C     C_3   0.593962 0.699663 0.037593 0.141920
C44   C     C_3   0.622876 0.672842 0.073333 -0.792130
C45   C     C_3   0.699668 0.406036 0.037610 0.142780
C46   C     C_1   0.661914 0.500000 0.000000 0.125730
C47   C     C_3   0.672851 0.377120 0.073352 -0.793944
C48   C     C_3   0.406042 0.300330 0.037613 0.142532
C49   C     C_3   0.377127 0.327147 0.073353 -0.792106
C50   C     C_3   0.300332 0.593962 0.037597 0.142657
C51   C     C_3   0.327149 0.622877 0.073335 -0.793276
C52   C     C_3   0.406042 0.699670 0.962387 0.142534
C53   C     C_3   0.377127 0.672853 0.926647 -0.792105
C54   C     C_3   0.300332 0.406038 0.962403 0.142659
C55   C     C_3   0.327149 0.377123 0.926665 -0.793276
C56   C     C_3   0.593962 0.300337 0.962407 0.141922
C57   C     C_1   0.500001 0.338086 0.000009 0.125624
C58   C     C_3   0.622876 0.327158 0.926667 -0.792132
C59   C     C_3   0.699668 0.593964 0.962390 0.142781
C60   C     C_3   0.672851 0.622880 0.926648 -0.793944
C61   C     C_1   0.338085 0.500000 1.000000 0.125679
C62   C     C_1   0.000123 0.337914 0.500161 -0.003407
C63   C     C_1   0.337911 0.000000 0.500000 -0.001809
C64   C     C_1   0.000123 0.662086 0.499839 -0.003407
C65   C     C_R   0.419328 0.000000 0.500000 0.905174
C66   C     C_1   0.662067 1.000000 0.500000 -0.004983
C67   C     C_1   0.500001 0.837903 0.999996 -0.003233
C68   C     C_1   0.837903 0.500000 0.000000 -0.002948
C69   C     C_1   0.500001 0.162097 0.000004 -0.003233
C70   C     C_1   0.162097 0.500000 1.000000 -0.002849
C71   C     C_1   0.000034 0.375172 0.500084 -0.179976
C72   C     C_1   0.375169 0.000000 0.500000 -0.179492
C73   C     C_1   0.000034 0.624828 0.499916 -0.179977
C74   C     C_1   0.624814 0.000000 0.500000 -0.180903
C75   C     C_1   0.500000 0.875164 0.999998 -0.180966
C76   C     C_R   0.000003 0.580670 0.499991 0.906232
C77   C     C_1   0.875163 0.500000 0.000000 -0.180728
C78   C     C_1   0.500000 0.124836 0.000002 -0.180966
C79   C     C_1   0.124837 0.500000 1.000000 -0.180602
C80   C     C_1   0.000242 0.124718 0.499987 -0.174237
C81   C     C_1   0.124714 0.000000 0.500000 -0.174928
C82   C     C_1   0.000242 0.875282 0.500013 -0.174237
C83   C     C_1   0.875267 1.000000 0.500000 -0.181841
C84   C     C_1   0.500000 0.624709 0.999994 -0.173176
C85   C     C_1   0.624709 0.500000 0.000000 -0.173097
C86   C     C_1   0.500000 0.375291 0.000006 -0.173176
C87   C     C_R   0.580666 0.000000 0.500000 0.905862
C88   C     C_1   0.375291 0.500000 1.000000 -0.173174
C89   C     C_R   1.000000 0.500000 0.390456 0.904161
C90   C     C_R   0.499999 0.000001 0.390456 0.903711
C91   C     C_R   0.000000 0.500000 0.609544 0.904161
C92   C     C_R   0.499999 0.999999 0.609544 0.903710
C93   C     C_R   0.500000 0.000000 0.890456 0.904736
C94   C     C_R   1.000000 0.500001 0.890456 0.904644
C95   C     C_R   0.500000 0.000000 0.109544 0.904735
C96   C     C_R   0.000000 0.499999 0.109544 0.904643
C97   C     C_R   0.080614 0.000000 0.500000 0.890637
C98   C     C_R   0.500000 0.919327 0.000000 0.906340
C99   C     C_R   0.000053 0.919385 0.500004 0.892722
C100  C     C_R   0.919380 0.000000 0.500000 0.894326
C101  C     C_R   0.000053 0.080615 0.499996 0.892721
C102  C     C_R   0.580612 0.500000 0.000000 0.888129
C103  C     C_R   0.500000 0.419388 0.000002 0.888141
C104  C     C_R   0.419388 0.500000 1.000000 0.888124
C105  C     C_R   0.500000 0.580612 0.999998 0.888140
C106  C     C_1   1.000000 0.499998 0.330316 -0.173016
C107  C     C_1   0.499998 0.000004 0.330315 -0.173436
C108  C     C_1   0.000000 0.500002 0.669684 -0.173016
C109  C     C_R   0.919326 0.500000 0.000000 0.906228
C110  C     C_1   0.499998 0.999996 0.669685 -0.173436
C111  C     C_1   0.499999 0.999999 0.830316 -0.174069
C112  C     C_1   0.000000 0.500004 0.830315 -0.173759
C113  C     C_1   0.499999 0.000001 0.169684 -0.174069
C114  C     C_1   1.000000 0.499996 0.169685 -0.173759
C115  C     C_1   1.000000 0.499996 0.279599 0.020155
C116  C     C_1   0.499998 0.000004 0.279598 0.019882
C117  C     C_1   0.000000 0.500004 0.720401 0.020155
C118  C     C_1   0.499998 0.999996 0.720402 0.019881
C119  C     C_1   0.499999 0.999997 0.779599 0.019727
C120  C     C_R   0.500000 0.080673 1.000000 0.906340
C121  C     C_1   0.000000 0.500005 0.779598 0.019978
C122  C     C_1   0.499999 0.000003 0.220401 0.019727
C123  C     C_1   1.000000 0.499995 0.220402 0.019978
C124  C     C_R   0.034684 0.227881 0.478021 0.402468
C125  C     C_R   0.227816 0.022506 0.541666 0.405338
C126  C     C_R   0.966039 0.772244 0.477788 0.407480
C127  C     C_R   0.772149 0.032947 0.525681 0.401093
C128  C     C_R   0.966039 0.227756 0.522213 0.407481
C129  C     C_R   0.772149 0.967053 0.474319 0.401093
C130  C     C_R   0.034684 0.772119 0.521978 0.402468
C131  C     C_R   0.080673 0.500000 0.000000 0.906231
C132  C     C_R   0.227816 0.977494 0.458334 0.405338
C133  C     C_R   0.529161 0.727797 0.033124 0.404953
C134  C     C_R   0.727800 0.470840 0.033135 0.404813
C135  C     C_R   0.470843 0.272198 0.033143 0.404640
C136  C     C_R   0.272200 0.529159 0.033131 0.404766
C137  C     C_R   0.470843 0.727802 0.966857 0.404639
C138  C     C_R   0.272200 0.470841 0.966869 0.404765
C139  C     C_R   0.529161 0.272203 0.966876 0.404952
C140  C     C_R   0.727800 0.529160 0.966865 0.404813
C141  C     C_R   0.000403 0.206372 0.500123 -0.277470
C142  C     C_1   0.000379 0.161928 0.500009 0.127354
C143  C     C_R   0.206363 0.000000 0.500000 -0.278973
C144  C     C_R   0.000403 0.793628 0.499877 -0.277469
C145  C     C_R   0.793604 1.000000 0.500000 -0.275237
C146  C     C_R   0.500002 0.706353 0.999990 -0.278614
C147  C     C_R   0.706353 0.500000 0.000000 -0.278477
C148  C     C_R   0.500002 0.293647 0.000010 -0.278614
C149  C     C_R   0.293647 0.500000 1.000000 -0.278423
C150  C     C_R   0.966120 0.271282 0.523981 0.332104
C151  C     C_R   0.271347 0.978203 0.456969 0.333350
C152  C     C_R   0.034460 0.728576 0.523578 0.332012
H1    H     H_    0.064680 0.321356 0.451305 0.349801
H2    H     H_    0.821183 0.446635 0.069517 0.348583
H3    H     H_    0.446642 0.178810 0.069523 0.348865
H4    H     H_    0.178817 0.553362 0.069510 0.348597
H5    H     H_    0.446642 0.821190 0.930477 0.348866
H6    H     H_    0.178817 0.446638 0.930489 0.348598
H7    H     H_    0.553365 0.178819 0.930494 0.348455
H8    H     H_    0.821183 0.553365 0.930483 0.348583
H9    H     H_    0.085866 0.183561 0.533252 0.116449
H10   H     H_    0.111938 0.230507 0.508919 0.173455
H11   H     H_    0.146201 0.189086 0.432047 0.275913
H12   H     H_    0.321196 0.039672 0.584845 0.347880
H13   H     H_    0.158503 0.169790 0.502031 0.192513
H14   H     H_    0.121029 0.142527 0.458540 0.250638
H15   H     H_    0.182901 0.086222 0.525474 0.116967
H16   H     H_    0.229705 0.101493 0.563487 0.173004
H17   H     H_    0.188509 0.105393 0.653214 0.273430
H18   H     H_    0.168100 0.139489 0.598982 0.194626
H19   H     H_    0.142055 0.090923 0.614402 0.255490
H20   H     H_    0.916013 0.814206 0.535849 0.120443
H21   H     H_    0.887472 0.769961 0.507644 0.180131
H22   H     H_    0.855091 0.816641 0.435147 0.265946
H23   H     H_    0.935802 0.678946 0.450567 0.349934
H24   H     H_    0.844713 0.834006 0.506739 0.220400
H25   H     H_    0.883532 0.860331 0.464436 0.250069
H26   H     H_    0.814709 0.027734 0.615338 0.122091
H27   H     H_    0.768664 0.058829 0.629920 0.176193
H28   H     H_    0.812329 0.123212 0.625664 0.268844
H29   H     H_    0.830141 0.087087 0.679254 0.209443
H30   H     H_    0.857910 0.091362 0.612857 0.251092
H31   H     H_    0.916012 0.185795 0.464153 0.120443
H32   H     H_    0.887472 0.230039 0.492359 0.180131
H33   H     H_    0.855092 0.183359 0.564857 0.265946
H34   H     H_    0.678767 0.066559 0.543479 0.350186
H35   H     H_    0.844713 0.165994 0.493265 0.220402
H36   H     H_    0.883533 0.139669 0.535566 0.250069
H37   H     H_    0.814709 0.972266 0.384662 0.122091
H38   H     H_    0.768664 0.941170 0.370081 0.176193
H39   H     H_    0.812328 0.876787 0.374337 0.268844
H40   H     H_    0.830140 0.912912 0.320747 0.209443
H41   H     H_    0.857909 0.908637 0.387144 0.251093
H42   H     H_    0.085865 0.816439 0.466746 0.116449
H43   H     H_    0.111937 0.769493 0.491078 0.173454
H44   H     H_    0.146202 0.810914 0.567949 0.275913
H45   H     H_    0.935804 0.321054 0.549436 0.349934
H46   H     H_    0.158503 0.830210 0.497966 0.192513
H47   H     H_    0.121029 0.857473 0.541458 0.250638
H48   H     H_    0.182901 0.913778 0.474524 0.116967
H49   H     H_    0.229705 0.898508 0.436512 0.173003
H50   H     H_    0.188510 0.894608 0.346785 0.273430
H51   H     H_    0.168101 0.860512 0.401015 0.194627
H52   H     H_    0.142055 0.909078 0.385596 0.255491
H53   H     H_    0.609751 0.729899 0.029091 0.172655
H54   H     H_    0.588396 0.683236 0.996601 0.116333
H55   H     H_    0.608466 0.641894 0.080894 0.253785
H56   H     H_    0.678767 0.933441 0.456522 0.350186
H57   H     H_    0.652953 0.668407 0.050940 0.192426
H58   H     H_    0.628926 0.688182 0.114763 0.275182
H59   H     H_    0.729903 0.390248 0.029108 0.172924
H60   H     H_    0.683238 0.411602 0.996618 0.116567
H61   H     H_    0.641905 0.391529 0.080914 0.253926
H62   H     H_    0.668416 0.347042 0.050961 0.192446
H63   H     H_    0.688194 0.371069 0.114781 0.274753
H64   H     H_    0.390253 0.270095 0.029111 0.173444
H65   H     H_    0.411606 0.316762 0.996621 0.116407
H66   H     H_    0.391536 0.358093 0.080915 0.253602
H67   H     H_    0.064680 0.678644 0.548695 0.349801
H68   H     H_    0.347050 0.331583 0.050960 0.192758
H69   H     H_    0.371078 0.311802 0.114783 0.275188
H70   H     H_    0.270097 0.609751 0.029093 0.173220
H71   H     H_    0.316762 0.588398 0.996605 0.116551
H72   H     H_    0.358095 0.608468 0.080898 0.253787
H73   H     H_    0.331585 0.652956 0.050940 0.192787
H74   H     H_    0.311807 0.628926 0.114764 0.274773
H75   H     H_    0.390253 0.729905 0.970889 0.173444
H76   H     H_    0.411606 0.683238 0.003379 0.116406
H77   H     H_    0.391536 0.641907 0.919084 0.253602
H78   H     H_    0.321196 0.960328 0.415155 0.347879
H79   H     H_    0.347050 0.668417 0.949039 0.192758
H80   H     H_    0.371078 0.688198 0.885217 0.275187
H81   H     H_    0.270097 0.390249 0.970907 0.173220
H82   H     H_    0.316762 0.411602 0.003394 0.116551
H83   H     H_    0.358095 0.391532 0.919101 0.253787
H84   H     H_    0.331585 0.347044 0.949060 0.192786
H85   H     H_    0.311807 0.371074 0.885236 0.274773
H86   H     H_    0.609751 0.270101 0.970909 0.172655
H87   H     H_    0.588396 0.316764 0.003399 0.116333
H88   H     H_    0.608466 0.358105 0.919106 0.253786
H89   H     H_    0.553365 0.821180 0.069506 0.348455
H90   H     H_    0.652953 0.331593 0.949060 0.192427
H91   H     H_    0.628926 0.311818 0.885238 0.275182
H92   H     H_    0.729903 0.609752 0.970892 0.172924
H93   H     H_    0.683238 0.588398 0.003382 0.116567
H94   H     H_    0.641905 0.608471 0.919086 0.253926
H95   H     H_    0.668415 0.652958 0.949039 0.192445
H96   H     H_    0.688193 0.628931 0.885219 0.274753
O1    O     O_R   0.965560 0.438990 0.499980 -0.612390
O2    O     O_R   0.938990 0.534440 0.999980 -0.612602
O3    O     O_R   0.534440 0.061010 0.999980 -0.613606
O4    O     O_R   0.061010 0.465560 0.999980 -0.612519
O5    O     O_R   0.534440 0.938990 0.000020 -0.613605
O6    O     O_R   0.061010 0.534440 0.000020 -0.612519
O7    O     O_R   0.465560 0.061010 0.000020 -0.611698
O8    O     O_R   0.938990 0.465560 0.000020 -0.612601
O9    O     O_R   0.060930 0.999970 0.453240 -0.609080
O10   O     O_R   0.999970 0.939070 0.453240 -0.613149
O11   O     O_R   0.939070 0.000030 0.453240 -0.615054
O12   O     O_R   0.438990 0.034440 0.499980 -0.611708
O13   O     O_R   0.000030 0.060930 0.453240 -0.609262
O14   O     O_R   0.939070 0.999970 0.546760 -0.615053
O15   O     O_R   0.000030 0.939070 0.546760 -0.609262
O16   O     O_R   0.060930 0.000030 0.546760 -0.609080
O17   O     O_R   0.999970 0.060930 0.546760 -0.613149
O18   O     O_R   0.560930 0.499970 0.953240 -0.609420
O19   O     O_R   0.499970 0.439070 0.953240 -0.609407
O20   O     O_R   0.439070 0.500030 0.953240 -0.609456
O21   O     O_R   0.500030 0.560930 0.953240 -0.609491
O22   O     O_R   0.439070 0.499970 0.046760 -0.609456
O23   O     O_R   0.034440 0.561010 0.499980 -0.612831
O24   O     O_R   0.500030 0.439070 0.046760 -0.609490
O25   O     O_R   0.560930 0.500030 0.046760 -0.609420
O26   O     O_R   0.499970 0.560930 0.046760 -0.609408
O27   O     O_R   0.965560 0.499980 0.417220 -0.611284
O28   O     O_R   0.499980 0.034440 0.417220 -0.611437
O29   O     O_R   0.034440 0.500020 0.417220 -0.611500
O30   O     O_R   0.500020 0.965560 0.417220 -0.611500
O31   O     O_R   0.034440 0.499980 0.582780 -0.611500
O32   O     O_R   0.500020 0.034440 0.582780 -0.611500
O33   O     O_R   0.965560 0.500020 0.582780 -0.611284
O34   O     O_R   0.561010 0.965560 0.499980 -0.612683
O35   O     O_R   0.499980 0.965560 0.582780 -0.611437
O36   O     O_R   0.465560 0.999980 0.917220 -0.610653
O37   O     O_R   0.999980 0.534440 0.917220 -0.611842
O38   O     O_R   0.534440 0.000020 0.917220 -0.613363
O39   O     O_R   0.000020 0.465560 0.917220 -0.611987
O40   O     O_R   0.534440 0.999980 0.082780 -0.613363
O41   O     O_R   0.000020 0.534440 0.082780 -0.611987
O42   O     O_R   0.465560 0.000020 0.082780 -0.610653
O43   O     O_R   0.999980 0.465560 0.082780 -0.611842
O44   O     O_3   0.068298 0.290814 0.451359 -0.721288
O45   O     O_R   0.034440 0.438990 0.500020 -0.612831
O46   O     O_3   0.290656 0.042949 0.586963 -0.720793
O47   O     O_3   0.932154 0.709483 0.451067 -0.721312
O48   O     O_3   0.709297 0.068417 0.547863 -0.723538
O49   O     O_3   0.932155 0.290517 0.548936 -0.721312
O50   O     O_3   0.709297 0.931583 0.452137 -0.723539
O51   O     O_3   0.068298 0.709186 0.548640 -0.721287
O52   O     O_3   0.290656 0.957052 0.413037 -0.720793
O53   O     O_3   0.556926 0.790640 0.070488 -0.721406
O54   O     O_3   0.790644 0.443073 0.070499 -0.721461
O55   O     O_3   0.443078 0.209350 0.070503 -0.720791
O56   O     O_R   0.561010 0.034440 0.500020 -0.612684
O57   O     O_3   0.209356 0.556924 0.070492 -0.721411
O58   O     O_3   0.443078 0.790650 0.929496 -0.720791
O59   O     O_3   0.209356 0.443076 0.929508 -0.721412
O60   O     O_3   0.556926 0.209360 0.929512 -0.721406
O61   O     O_3   0.790643 0.556927 0.929501 -0.721460
O62   O     O_3   0.067370 0.206135 0.453827 -0.550145
O63   O     O_3   0.206035 0.042951 0.583978 -0.548716
O64   O     O_3   0.933157 0.794162 0.454388 -0.553995
O65   O     O_3   0.793984 0.065895 0.549045 -0.560079
O66   O     O_3   0.933158 0.205838 0.545614 -0.553996
O67   O     O_R   0.965560 0.561010 0.500020 -0.612390
O68   O     O_3   0.793983 0.934104 0.450956 -0.560080
O69   O     O_3   0.067370 0.793865 0.546172 -0.550146
O70   O     O_3   0.206035 0.957050 0.416022 -0.548718
O71   O     O_3   0.556417 0.705994 0.067558 -0.548685
O72   O     O_3   0.706000 0.443582 0.067572 -0.548930
O73   O     O_3   0.443587 0.293996 0.067577 -0.549053
O74   O     O_3   0.294000 0.556415 0.067564 -0.549073
O75   O     O_3   0.443587 0.706004 0.932422 -0.549053
O76   O     O_3   0.294000 0.443585 0.932436 -0.549073
O77   O     O_3   0.556417 0.294006 0.932442 -0.548685
O78   O     O_R   0.438990 0.965560 0.500020 -0.611708
O79   O     O_3   0.706000 0.556418 0.932428 -0.548930
O80   O     O_R   0.465560 0.938990 0.999980 -0.611698
Zn1   Zn    Zn3+2 0.954010 0.500000 0.500000 0.999656
Zn2   Zn    Zn3+2 0.000000 0.000000 0.562390 0.990912
Zn3   Zn    Zn3+2 0.500000 0.500000 0.937610 1.002382
Zn4   Zn    Zn3+2 0.500000 0.500000 0.062390 1.002382
Zn5   Zn    Zn3+2 0.500000 0.045990 0.500000 0.998898
Zn6   Zn    Zn3+2 0.045990 0.500000 0.500000 0.998527
Zn7   Zn    Zn3+2 0.500000 0.954010 0.500000 0.998898
Zn8   Zn    Zn3+2 0.454010 0.000000 0.000000 0.999158
Zn9   Zn    Zn3+2 0.000000 0.545990 0.000000 0.995505
Zn10  Zn    Zn3+2 0.545990 0.000000 0.000000 0.990246
Zn11  Zn    Zn3+2 0.000000 0.454010 0.000000 0.995506
Zn12  Zn    Zn3+2 0.000000 0.000000 0.437610 0.990912

loop_
_geom_bond_atom_site_label_1
_geom_bond_atom_site_label_2
_ccdc_geom_bond_type
C87   O56   A    
C138  O76   S    
O10   Zn12  S    
H56   O50   S    
C110  C118  T    
C42   H51   S    
H45   O49   S    
C105  O26   A    
C20   C66   S    
C90   C107  S    
C92   O35   A    
C93   O38   A    
C9    O61   S    
C95   O40   A    
O39   Zn11  S    
C82   C99   S    
C95   O42   A    
C113  C122  T    
C89   C106  S    
O4    Zn11  S    
C103  O19   A    
C129  C145  A    
H67   O51   S    
H7    O60   S    
C99   O15   A    
C59   C60   S    
C33   H28   S    
C96   C114  S    
C41   H48   S    
C48   H65   S    
C45   C47   S    
C45   H60   S    
C115  C123  S    
C137  C146  A    
C56   O77   S    
O43   Zn11  S    
C99   O10   A    
C39   H43   S    
C13   C82   T    
C75   C98   S    
C36   H36   S    
C78   C120  S    
C43   C44   S    
C37   C38   S    
C52   H75   S    
C98   O80   A    
O5    Zn10  S    
C84   C105  S    
C55   H85   S    
C27   H13   S    
C128  C150  A    
C80   C142  T    
C83   C100  S    
C130  C152  A    
C18   C63   S    
C129  O68   S    
C56   H86   S    
C68   C77   T    
C50   H70   S    
O26   Zn4   S    
C70   C79   T    
C3    C129  A    
C35   C84   T    
C94   O39   A    
C40   H47   S    
H4    O57   S    
C26   H9    S    
O34   Zn7   S    
C38   H41   S    
C106  C115  T    
O1    Zn1   S    
C76   O67   A    
C41   O70   S    
C28   O63   S    
C28   H16   S    
H8    O61   S    
H3    O55   S    
O11   Zn12  S    
C89   O27   A    
C2    C81   T    
C90   O28   A    
C29   H17   S    
C61   C149  S    
O7    Zn8   S    
C127  C145  A    
C92   O32   A    
C42   H52   S    
C55   H84   S    
C16   C134  A    
C5    C20   A    
C6    C19   A    
C50   O74   S    
C11   C138  A    
O35   Zn7   S    
C24   C145  S    
C9    C140  A    
C1    O1    A    
O23   Zn6   S    
C11   C25   A    
H1    O44   S    
C66   C74   T    
C47   H62   S    
C26   O62   S    
C4    C124  A    
C111  C119  T    
C44   H57   S    
C13   C144  S    
C58   H90   S    
C152  O51   S    
C27   H11   S    
C64   C73   T    
C74   C87   S    
C125  O63   S    
C130  C144  A    
C126  O64   S    
C37   H38   S    
C100  O11   A    
C14   C25   A    
C43   H54   S    
C140  C147  A    
C88   C104  S    
C19   C152  A    
C94   O37   A    
C31   H24   S    
C138  C149  A    
C139  C148  A    
C11   O59   S    
C132  O70   S    
C133  O71   S    
C5    O48   S    
C39   C40   S    
C6    O47   S    
C44   H55   S    
C59   O79   S    
C59   H92   S    
O22   Zn4   S    
O38   Zn10  S    
C91   O31   A    
C130  O69   S    
C15   O55   S    
C79   C131  S    
C51   H74   S    
C89   O29   A    
C43   O71   S    
C34   H31   S    
C29   H19   S    
C77   C109  S    
C30   H20   S    
C114  C123  T    
C127  O65   S    
C124  C141  A    
C42   H50   S    
C14   O57   S    
C67   C75   T    
C54   H82   S    
O3    Zn10  S    
C33   H30   S    
C52   C53   S    
C54   C55   S    
C49   H69   S    
C108  C117  T    
C137  O75   S    
C133  C146  A    
C65   C72   S    
O45   Zn6   S    
C109  O8    A    
C1    O45   A    
C120  O7    A    
C112  C121  T    
C92   C110  S    
C40   H46   S    
C125  C143  A    
C94   C112  S    
C56   C58   S    
C62   C71   T    
C91   O33   A    
C34   C36   S    
O36   Zn8   S    
C104  O22   A    
C107  C116  T    
C53   H80   S    
C60   H95   S    
C38   H39   S    
O20   Zn3   S    
O41   Zn9   S    
C93   O36   A    
C85   C102  S    
C31   H22   S    
C139  O77   S    
C41   C42   S    
C17   C150  A    
C32   H26   S    
H12   O46   S    
C136  C149  A    
C134  C147  A    
C26   C27   S    
C45   H59   S    
C116  C122  S    
C28   C29   S    
C24   C83   T    
C30   C31   S    
C8    O58   S    
C36   H33   S    
C52   H76   S    
O21   Zn3   S    
C12   O53   S    
C47   H63   S    
O25   Zn4   S    
C120  O3    A    
C124  O62   S    
H34   O48   S    
C128  C141  A    
O67   Zn1   S    
C46   C85   T    
C132  C143  A    
C7    O46   S    
C105  O21   A    
C109  O2    A    
C50   H71   S    
C150  O49   S    
C37   O68   S    
O27   Zn1   S    
C96   O41   A    
C6    C126  A    
C134  O72   S    
C34   O66   S    
O13   Zn12  S    
C26   H10   S    
C8    C137  A    
C35   C146  S    
O56   Zn5   S    
C4    O44   S    
C17   C62   S    
C46   C147  S    
C19   C64   S    
C5    C127  A    
O16   Zn2   S    
C50   C51   S    
C3    C20   A    
C59   H93   S    
C7    C125  A    
C22   C68   S    
C93   C111  S    
C4    C17   A    
C48   C49   S    
H5    O58   S    
C33   H29   S    
C73   C76   S    
C10   C139  A    
C41   H49   S    
C18   C151  A    
C101  O17   A    
C16   C22   A    
O78   Zn7   S    
C91   C108  S    
C151  O52   S    
C55   H83   S    
O6    Zn9   S    
C48   O73   S    
C135  O73   S    
O40   Zn10  S    
C49   H66   S    
C90   O30   A    
C36   H35   S    
C32   C33   S    
O80   Zn8   S    
C76   O23   A    
C14   C136  A    
C32   O65   S    
C128  O66   S    
C47   H61   S    
C44   H58   S    
C102  O25   A    
H78   O52   S    
C58   H91   S    
C39   O69   S    
C87   O34   A    
C27   H14   S    
O32   Zn5   S    
C63   C72   T    
C57   C148  S    
C132  C151  A    
C25   C70   S    
C30   O64   S    
C53   H77   S    
C37   H37   S    
C48   H64   S    
C60   H94   S    
C101  O13   A    
C43   H53   S    
H23   O47   S    
C23   C69   S    
C56   H87   S    
C96   O43   A    
C131  O6    A    
C97   O9    A    
O9    Zn12  S    
C1    C71   S    
C52   O75   S    
O28   Zn5   S    
C31   H25   S    
O30   Zn7   S    
C9    C22   A    
C15   C135  A    
H2    O54   S    
C57   C86   T    
C126  C144  A    
C117  C121  S    
C118  C119  S    
C97   O16   A    
O29   Zn6   S    
C51   H73   S    
H6    O59   S    
C32   H27   S    
C34   H32   S    
C29   H18   S    
C51   H72   S    
C30   H21   S    
C28   H15   S    
O42   Zn8   S    
C15   C23   A    
C21   C67   S    
C2    C143  S    
C69   C78   T    
C58   H88   S    
C86   C103  S    
O14   Zn2   S    
O15   Zn2   S    
C39   H42   S    
C49   H68   S    
C65   O12   A    
C12   C21   A    
C3    O50   S    
O37   Zn9   S    
C61   C88   T    
O18   Zn3   S    
C7    C18   A    
C10   O60   S    
C8    C21   A    
O2    Zn9   S    
C136  O74   S    
C53   H79   S    
C100  O14   A    
C60   H96   S    
C38   H40   S    
C12   C133  A    
O8    Zn11  S    
C54   O76   S    
O17   Zn2   S    
C65   O78   A    
C131  O4    A    
H89   O53   S    
C40   H44   S    
C45   O72   S    
O24   Zn4   S    
C104  O20   A    
C10   C23   A    
C80   C101  S    
C103  O24   A    
O12   Zn5   S    
O19   Zn3   S    
C141  C142  S    
C81   C97   S    
C95   C113  S    
C140  O79   S    
O33   Zn1   S    
C98   O5    A    
O31   Zn6   S    
C135  C148  A    
C102  O18   A    
C16   O54   S    
C54   H81   S    
