data_mof_unit_33075.cif
_audit_creation_date              2012-12-10T17:23:45-0500
_audit_creation_method            fapswitch 2.2
_symmetry_space_group_name_H-M    P1
_symmetry_Int_Tables_number       1
_space_group_crystal_system       triclinic
_cell_length_a                    9.599597
_cell_length_b                    10.795632
_cell_length_c                    17.216254
_cell_angle_alpha                 93.713273
_cell_angle_beta                  86.082121
_cell_angle_gamma                 90.761818
_cell_volume                      1776.20735836

loop_
_atom_site_label
_atom_site_type_symbol
_atom_type_description
_atom_site_fract_x
_atom_site_fract_y
_atom_site_fract_z
_atom_type_partial_charge
C1    C     C_R   0.500725 0.737677 0.503524 0.914322
C2    C     C_R   0.526792 0.491163 0.264433 -0.029337
C3    C     C_R   0.403236 0.891856 0.646551 0.312374
C4    C     C_R   0.481729 0.490783 0.649225 0.866370
C5    C     C_R   0.327776 0.963682 0.705491 -0.163338
C6    C     C_R   0.304725 0.088547 0.697405 -0.182500
C7    C     C_R   0.359967 0.144197 0.631487 -0.141862
C8    C     C_R   0.431484 0.073432 0.569553 0.055223
C9    C     C_R   0.444811 0.943737 0.574373 0.007384
C10   C     C_R   0.504344 0.872572 0.508025 -0.145222
C11   C     C_R   0.566044 0.931180 0.443376 0.237946
C12   C     C_R   0.348930 0.494484 0.778075 -0.288099
C13   C     C_R   0.565732 0.059619 0.443631 -0.264718
C14   C     C_R   0.496113 0.129827 0.504540 -0.086229
C15   C     C_R   0.866558 0.334052 0.395023 -0.108645
C16   C     C_R   0.498979 0.262879 0.500398 0.768548
C17   C     C_R   0.944051 0.252636 0.343938 -0.221216
C18   C     C_R   0.087676 0.252279 0.344289 -0.199592
C19   C     C_R   0.154737 0.333408 0.395688 -0.102823
C20   C     C_R   0.079993 0.418172 0.448623 0.093385
C21   C     C_R   0.930424 0.418374 0.448477 0.191987
C22   C     C_R   0.921135 0.577667 0.549077 -0.111309
C23   C     C_R   0.410217 0.485924 0.144010 -0.152425
C24   C     C_R   0.069028 0.577761 0.549119 0.677756
C25   C     C_R   0.518101 0.498209 0.349826 0.761579
C26   C     C_R   0.471339 0.465234 0.731880 -0.209944
C27   C     C_R   0.580069 0.403469 0.763752 0.519107
C28   C     C_R   0.568712 0.375868 0.842244 0.192488
C29   C     C_R   0.449377 0.414810 0.889509 0.069279
C30   C     C_R   0.338376 0.469824 0.856467 -0.227277
C31   C     C_3   0.533087 0.823870 0.318926 -0.691255
C32   C     C_3   0.596484 0.788139 0.692886 -0.707122
C33   C     C_3   0.642013 0.178811 0.882940 -0.657093
C34   C     C_R   0.404391 0.497901 0.224885 -0.211345
C35   C     C_R   0.655763 0.474594 0.221712 -0.205780
C36   C     C_R   0.661494 0.462437 0.140501 -0.169454
C37   C     C_R   0.538613 0.465613 0.101253 0.168432
C38   C     C_2   0.442055 0.409400 0.974524 -0.182821
C39   C     C_2   0.547991 0.452966 0.015629 -0.187444
Cu1   Cu    Cu3+1 0.359340 0.500010 0.500010 0.984346
Cu2   Cu    Cu3+1 0.640660 0.499990 0.499990 0.984765
F1    F     F_    0.694492 0.365143 0.718081 -0.664652
F2    F     F_    0.132580 0.657728 0.599687 -0.666810
H1    H     H_    0.761650 0.448838 0.108278 0.127204
H2    H     H_    0.147891 0.188601 0.304429 0.144981
H3    H     H_    0.265172 0.325635 0.391421 0.192720
H4    H     H_    0.751774 0.469595 0.250900 0.157018
H5    H     H_    0.644668 0.482579 0.985425 0.165423
H6    H     H_    0.245562 0.498254 0.892200 0.158097
H7    H     H_    0.314233 0.494649 0.115454 0.121738
H8    H     H_    0.262594 0.539099 0.754044 0.207837
H9    H     H_    0.343888 0.380869 0.003329 0.135260
H10   H     H_    0.718288 0.901586 0.353722 0.253018
H11   H     H_    0.588377 0.764797 0.271690 0.233769
H12   H     H_    0.294479 0.924291 0.760074 0.134210
H13   H     H_    0.492513 0.907022 0.293319 0.217966
H14   H     H_    0.444223 0.769561 0.344463 0.233249
H15   H     H_    0.390192 0.731180 0.704474 0.261453
H16   H     H_    0.670319 0.821994 0.646256 0.241949
H17   H     H_    0.633074 0.696791 0.708744 0.236597
H18   H     H_    0.597580 0.853471 0.745478 0.222646
H19   H     H_    0.774142 0.319786 0.846060 0.290299
H20   H     H_    0.728412 0.134365 0.910274 0.219694
H21   H     H_    0.627391 0.129475 0.825307 0.237288
H22   H     H_    0.545294 0.169927 0.921504 0.232613
H23   H     H_    0.250146 0.144033 0.744275 0.158067
H24   H     H_    0.346661 0.243121 0.630322 0.158907
H25   H     H_    0.615358 0.104824 0.394351 0.127379
H26   H     H_    0.861745 0.641274 0.589271 0.160680
H27   H     H_    0.757135 0.326699 0.389956 0.181818
H28   H     H_    0.891939 0.189238 0.303799 0.141785
H29   H     H_    0.303706 0.512433 0.256334 0.159160
N1    N     N_R   0.852190 0.498790 0.499250 -0.227600
N2    N     N_R   0.148060 0.498710 0.499220 -0.252078
N3    N     N_2   0.628891 0.860830 0.377654 -0.421275
N4    N     N_2   0.456692 0.776767 0.666082 -0.434766
N5    N     N_2   0.676164 0.308049 0.873232 -0.429249
O1    O     O_R   0.381190 0.680360 0.500010 -0.535251
O2    O     O_R   0.618760 0.680340 0.500000 -0.566712
O3    O     O_R   0.367440 0.500030 0.613600 -0.550360
O4    O     O_R   0.605010 0.500010 0.613590 -0.519606
O5    O     O_R   0.381240 0.319660 0.500000 -0.616163
O6    O     O_R   0.618810 0.319640 0.499990 -0.573270
O7    O     O_R   0.394990 0.499990 0.386410 -0.615708
O8    O     O_R   0.632560 0.499970 0.386400 -0.597767

loop_
_geom_bond_atom_site_label_1
_geom_bond_atom_site_label_2
_ccdc_geom_bond_type
C2    C35   A    
Cu1   O7    S    
H19   N5    S    
C35   C36   A    
C35   H4    S    
C19   H3    S    
H15   N4    S    
C7    C8    A    
C26   C27   A    
C36   C37   A    
C32   H18   S    
C4    O3    A    
C5    C6    A    
C38   H9    S    
Cu2   O6    S    
C21   N1    A    
C18   C19   A    
C33   N5    S    
C4    O4    A    
C19   C20   A    
C8    C9    A    
C29   C38   S    
C25   O7    A    
Cu1   O3    S    
C14   C16   S    
C31   H13   S    
C9    C10   A    
C22   H26   S    
C2    C34   A    
C13   C14   A    
C1    O1    A    
H10   N3    S    
C16   O5    A    
C33   H22   S    
Cu1   O5    S    
C23   H7    S    
C23   C37   A    
Cu2   N1    S    
C16   O6    A    
C12   C26   A    
Cu2   O2    S    
C29   C30   A    
C3    C9    A    
C31   N3    S    
C6    H23   S    
C33   H20   S    
C23   C34   A    
Cu2   O4    S    
C25   O8    A    
C17   C18   A    
C20   N2    A    
C28   N5    S    
Cu1   Cu2   S    
C30   H6    S    
C17   H28   S    
C1    O2    A    
C22   C24   A    
C36   H1    S    
C32   H17   S    
C18   H2    S    
C34   H29   S    
C12   H8    S    
C15   C17   A    
C15   H27   S    
C28   C29   A    
C8    C14   A    
C12   C30   A    
C5    H12   S    
C1    C10   S    
C3    C5    A    
C32   N4    S    
C4    C26   S    
C6    C7    A    
Cu2   O8    S    
C22   N1    A    
C31   H14   S    
C37   C39   S    
C11   N3    S    
C11   C13   A    
C27   F1    S    
C24   N2    A    
C38   C39   D    
C33   H21   S    
Cu1   N2    S    
C2    C25   S    
Cu1   O1    S    
C31   H11   S    
C10   C11   A    
C7    H24   S    
C15   C21   A    
C20   C21   A    
C27   C28   A    
C24   F2    S    
C3    N4    S    
C32   H16   S    
C39   H5    S    
C13   H25   S    
