data_mof_unit_5253.cif
_audit_creation_date              2012-12-10T17:45:19-0500
_audit_creation_method            fapswitch 2.2
_symmetry_space_group_name_H-M    P1
_symmetry_Int_Tables_number       1
_space_group_crystal_system       triclinic
_cell_length_a                    17.907058
_cell_length_b                    17.911413
_cell_length_c                    17.733326
_cell_angle_alpha                 115.384981
_cell_angle_beta                  92.735846
_cell_angle_gamma                 69.351403
_cell_volume                      4772.39670283

loop_
_atom_site_label
_atom_site_type_symbol
_atom_type_description
_atom_site_fract_x
_atom_site_fract_y
_atom_site_fract_z
_atom_type_partial_charge
C1    C     C_R   0.464054 0.462446 0.287209 0.796697
C2    C     C_R   0.912825 0.607963 0.567567 -0.265959
C3    C     C_R   0.950634 0.665251 0.617110 -0.037678
C4    C     C_R   0.534844 0.537379 0.713314 0.807024
C5    C     C_R   0.035205 0.636935 0.604505 0.055564
C6    C     C_R   0.080242 0.552891 0.537355 0.088212
C7    C     C_R   0.076044 0.690101 0.658247 -0.199002
C8    C     C_R   0.159442 0.663734 0.644619 -0.019359
C9    C     C_R   0.164564 0.526236 0.526779 -0.256844
C10   C     C_R   0.554161 0.548990 0.799226 -0.120366
C11   C     C_R   0.452006 0.443135 0.199808 -0.037814
C12   C     C_R   0.840754 0.349494 0.348775 -0.175466
C13   C     C_R   0.630324 0.591086 0.917234 -0.256314
C14   C     C_R   0.604068 0.595759 0.843377 -0.035379
C15   C     C_R   0.526410 0.506134 0.835250 -0.194220
C16   C     C_R   0.463391 0.730185 0.554495 0.788427
C17   C     C_R   0.555077 0.497710 0.907702 0.108841
C18   C     C_R   0.606833 0.542810 0.950141 0.092090
C19   C     C_R   0.528423 0.451482 0.942624 -0.007011
C20   C     C_R   0.537510 0.470542 0.028319 0.049405
C21   C     C_R   0.592835 0.510827 0.066889 -0.255502
C22   C     C_R   0.630174 0.543265 0.027404 -0.006754
C23   C     C_R   0.836163 0.480479 0.473993 -0.255256
C24   C     C_R   0.492619 0.387849 0.896606 -0.050605
C25   C     C_R   0.451219 0.362070 0.940102 -0.274868
C26   C     C_R   0.449708 0.391725 0.026848 0.119758
C27   C     C_R   0.493733 0.445339 0.071874 0.112819
C28   C     C_R   0.536732 0.268743 0.445357 0.806698
C29   C     C_R   0.408168 0.363748 0.068174 -0.219898
C30   C     C_R   0.410653 0.387061 0.154069 -0.007781
C31   C     C_R   0.491341 0.473131 0.159416 -0.265927
C32   C     C_R   0.550341 0.173821 0.419210 -0.124873
C33   C     C_R   0.446956 0.822963 0.576341 0.025382
C34   C     C_R   0.916753 0.464800 0.452440 0.100188
C35   C     C_R   0.596849 0.017898 0.318238 -0.245017
C36   C     C_R   0.592893 0.104186 0.340692 -0.030062
C37   C     C_R   0.515360 0.153517 0.473590 -0.265573
C38   C     C_R   0.518266 0.066795 0.451068 0.101965
C39   C     C_R   0.561210 0.998652 0.372630 0.157212
C40   C     C_R   0.288440 0.554951 0.554173 0.798832
C41   C     C_R   0.480652 0.045513 0.504385 0.043450
C42   C     C_R   0.494825 0.954914 0.482345 0.078595
C43   C     C_R   0.537576 0.889304 0.402902 -0.216803
C44   C     C_R   0.568933 0.911255 0.348867 -0.226517
C45   C     C_R   0.959940 0.386717 0.379507 0.179371
C46   C     C_R   0.427413 0.111922 0.577272 -0.243336
C47   C     C_R   0.390793 0.091280 0.629548 -0.025685
C48   C     C_R   0.408356 0.001498 0.610861 0.103750
C49   C     C_R   0.462973 0.932867 0.538627 0.087369
C50   C     C_R   0.370785 0.978316 0.661251 -0.203310
C51   C     C_R   0.389588 0.889811 0.643555 -0.184143
C52   C     C_R   0.712640 0.445907 0.445960 0.811099
C53   C     C_R   0.483809 0.843912 0.524926 -0.242320
C54   C     C_R   0.797825 0.424425 0.422295 -0.036177
C55   C     C_R   0.203173 0.581371 0.577789 -0.030598
C56   C     C_R   0.955911 0.523373 0.502099 0.041475
C57   C     C_R   0.921539 0.330269 0.327992 -0.206393
C58   C     C_R   0.692575 0.578139 0.069610 0.113839
C59   C     C_R   0.675529 0.644239 0.153271 -0.167209
C60   C     C_R   0.735352 0.674468 0.193592 -0.140205
C61   C     C_R   0.812409 0.639208 0.150855 -0.093862
C62   C     C_R   0.829980 0.573245 0.067855 -0.123685
C63   C     C_R   0.770534 0.542398 0.027436 -0.142980
C64   C     C_R   0.370961 0.350758 0.193889 0.083441
C65   C     C_R   0.416416 0.292679 0.227204 -0.133201
C66   C     C_R   0.378522 0.258517 0.264488 -0.123994
C67   C     C_R   0.039986 0.497886 0.483332 0.086814
C68   C     C_R   0.295271 0.280987 0.267672 -0.134939
C69   C     C_R   0.249838 0.337504 0.233418 -0.145686
C70   C     C_R   0.287456 0.372265 0.196565 -0.139354
C71   C     C_2   0.626301 0.655258 0.818883 0.948096
C72   C     C_2   0.508287 0.335323 0.803543 0.899602
C73   C     C_R   0.334226 0.166203 0.703485 0.140882
C74   C     C_R   0.264943 0.226697 0.691862 -0.140438
C75   C     C_R   0.211635 0.297593 0.761231 -0.114832
C76   C     C_R   0.227002 0.308554 0.842571 -0.094035
C77   C     C_R   0.295997 0.249017 0.854671 -0.154167
C78   C     C_R   0.080743 0.418977 0.410083 -0.225826
C79   C     C_R   0.350094 0.178777 0.785574 -0.128772
C80   C     C_2   0.635577 0.116762 0.280375 0.927520
C81   C     C_R   0.199616 0.723504 0.700120 0.092812
C82   C     C_R   0.262415 0.693200 0.742983 -0.161342
C83   C     C_R   0.301787 0.748872 0.792917 -0.129181
C84   C     C_R   0.278303 0.835411 0.801182 -0.117504
C85   C     C_R   0.215248 0.866503 0.759735 -0.152041
C86   C     C_R   0.175872 0.810937 0.709502 -0.116966
C87   C     C_2   0.898234 0.755070 0.680035 0.901701
C88   C     C_R   0.041086 0.365434 0.358750 -0.245417
H1    H     H_    0.074625 0.306179 0.302802 0.143496
H2    H     H_    0.600206 0.859060 0.288069 0.145686
H3    H     H_    0.528818 0.789087 0.474967 0.116701
H4    H     H_    0.359333 0.873392 0.682282 0.140171
H5    H     H_    0.629669 0.964712 0.258327 0.163105
H6    H     H_    0.487485 0.206741 0.534456 0.182738
H7    H     H_    0.545142 0.820372 0.378814 0.139799
H8    H     H_    0.410408 0.181586 0.594084 0.175173
H9    H     H_    0.325578 0.027896 0.713810 0.148575
H10   H     H_    0.954125 0.271067 0.271612 0.145206
H11   H     H_    0.812214 0.305220 0.307910 0.180929
H12   H     H_    0.044051 0.752084 0.712129 0.179944
H13   H     H_    0.802233 0.534702 0.532037 0.174769
H14   H     H_    0.143155 0.397591 0.388712 0.144908
H15   H     H_    0.848096 0.634021 0.578398 0.178332
H16   H     H_    0.616040 0.672284 0.187178 0.126041
H17   H     H_    0.722134 0.724987 0.258103 0.133407
H18   H     H_    0.858598 0.662734 0.182175 0.132075
H19   H     H_    0.889818 0.545636 0.034970 0.135324
H20   H     H_    0.785256 0.490435 0.963451 0.147455
H21   H     H_    0.481148 0.273050 0.223530 0.167655
H22   H     H_    0.413789 0.214162 0.290391 0.141501
H23   H     H_    0.519858 0.518105 0.198261 0.124365
H24   H     H_    0.266037 0.254200 0.296230 0.128891
H25   H     H_    0.185449 0.354350 0.235319 0.134272
H26   H     H_    0.251567 0.416159 0.170440 0.131521
H27   H     H_    0.713337 0.696164 0.803011 0.364774
H28   H     H_    0.585815 0.277362 0.698037 0.346687
H29   H     H_    0.252053 0.218585 0.629108 0.130041
H30   H     H_    0.158242 0.343825 0.751901 0.135990
H31   H     H_    0.185470 0.363158 0.896212 0.125655
H32   H     H_    0.307606 0.257365 0.917624 0.121657
H33   H     H_    0.403857 0.133742 0.795891 0.138575
H34   H     H_    0.423070 0.314821 0.905380 0.182689
H35   H     H_    0.651379 0.100354 0.161668 0.345963
H36   H     H_    0.280798 0.626616 0.737875 0.148527
H37   H     H_    0.350491 0.724899 0.825215 0.140763
H38   H     H_    0.308933 0.878396 0.839711 0.140894
H39   H     H_    0.197192 0.933532 0.766144 0.137314
H40   H     H_    0.127719 0.835578 0.676983 0.149252
H41   H     H_    0.800706 0.828412 0.767430 0.352583
H42   H     H_    0.666267 0.629580 0.951243 0.179918
H43   H     H_    0.480223 0.481330 0.806891 0.165762
H44   H     H_    0.611504 0.513547 0.126472 0.148936
H45   H     H_    0.202805 0.462826 0.478900 0.129365
H46   H     H_    0.376218 0.320804 0.032946 0.134426
O1    O     O_3   0.500000 0.500000 0.500000 -0.490431
O2    O     O_R   0.309700 0.585900 0.509470 -0.629293
O3    O     O_R   0.674980 0.398780 0.398780 -0.632492
O4    O     O_R   0.340340 0.501790 0.578230 -0.646106
O5    O     O_R   0.674980 0.513530 0.513520 -0.642251
O6    O     O_2   0.574797 0.710360 0.802135 -0.612681
O7    O     O_R   0.705630 0.651535 0.819610 -0.795648
O8    O     O_2   0.457287 0.309300 0.764269 -0.639456
O9    O     O_R   0.582426 0.313237 0.761038 -0.789511
O10   O     O_2   0.688738 0.146946 0.301878 -0.599770
O11   O     O_R   0.617800 0.089402 0.197406 -0.815134
O12   O     O_R   0.524320 0.685780 0.578230 -0.616949
O13   O     O_2   0.909756 0.821147 0.687537 -0.631438
O14   O     O_R   0.832862 0.764156 0.727785 -0.797948
O15   O     O_R   0.567430 0.291230 0.398780 -0.619995
O16   O     O_R   0.417260 0.532000 0.348010 -0.630131
O17   O     O_R   0.490990 0.490990 0.674980 -0.640196
O18   O     O_R   0.524330 0.409580 0.302030 -0.650352
O19   O     O_R   0.567420 0.567430 0.674980 -0.610617
O20   O     O_R   0.417260 0.693460 0.509470 -0.638903
O21   O     O_R   0.490990 0.329540 0.513520 -0.636325
Zn1   Zn    Zn3+2 0.565540 0.565550 0.565540 1.015473
Zn2   Zn    Zn3+2 0.412570 0.576510 0.467300 0.986984
Zn3   Zn    Zn3+2 0.456340 0.456340 0.565550 0.979904
Zn4   Zn    Zn3+2 0.565550 0.401610 0.401610 1.000969

loop_
_geom_bond_atom_site_label_1
_geom_bond_atom_site_label_2
_ccdc_geom_bond_type
C72   O9    S    
C66   C68   A    
H27   O7    S    
C41   C42   A    
C34   C56   A    
O1    Zn2   S    
O16   Zn2   S    
C30   C64   S    
C78   H14   S    
C14   C71   S    
C19   C20   A    
C1    C11   S    
C43   C44   A    
C77   H32   S    
O5    Zn1   S    
C6    C9    A    
C81   C82   A    
C7    C8    A    
C23   H13   S    
C85   C86   A    
C70   H26   S    
C72   O8    D    
C79   H33   S    
C45   C57   A    
C26   C27   A    
C37   C38   A    
C87   O13   D    
C13   C18   A    
C59   H16   S    
C32   C36   A    
C10   C15   A    
C68   H24   S    
C5    C6    A    
C51   H4    S    
C52   O5    A    
C1    O18   A    
C16   O12   A    
C73   C74   A    
C4    O17   A    
H41   O14   S    
C80   O11   S    
C35   C36   A    
C11   C30   A    
C68   C69   A    
C80   O10   D    
C40   O4    A    
C53   H3    S    
C28   O21   A    
C43   H7    S    
C13   H42   S    
C9    C55   A    
C64   C70   A    
C29   C30   A    
C52   O3    A    
C25   H34   S    
C81   C86   A    
C71   O7    S    
C40   C55   S    
C48   C50   A    
C29   H46   S    
O18   Zn4   S    
C11   C31   A    
C59   C60   A    
O1    Zn3   S    
C13   C14   A    
O21   Zn3   S    
C84   H38   S    
C61   C62   A    
C67   C78   A    
C83   H37   S    
C8    C55   A    
C82   H36   S    
C52   C54   S    
C17   C18   A    
C76   C77   A    
C77   C79   A    
C33   C53   A    
C76   H31   S    
O1    Zn4   S    
C87   O14   S    
O3    Zn4   S    
C3    C87   S    
C8    C81   S    
O17   Zn3   S    
H35   O11   S    
C28   C32   S    
C45   C88   A    
C24   C25   A    
C47   C73   S    
C38   C41   A    
C74   C75   A    
C5    C7    A    
C62   H19   S    
C3    C5    A    
C25   C26   A    
C86   H40   S    
C66   H22   S    
O1    Zn1   S    
C60   C61   A    
C35   C39   A    
C75   C76   A    
C21   H44   S    
C62   C63   A    
C16   C33   S    
H28   O9    S    
C40   O2    A    
O4    Zn3   S    
C35   H5    S    
C83   C84   A    
C41   C46   A    
C23   C34   A    
C69   H25   S    
C20   C21   A    
C50   C51   A    
C73   C79   A    
C46   H8    S    
C1    O16   A    
C34   C45   A    
C32   C37   A    
C84   C85   A    
O19   Zn1   S    
C61   H18   S    
O15   Zn4   S    
C65   H21   S    
C71   O6    D    
O20   Zn2   S    
C12   C57   A    
C48   C49   A    
C65   C66   A    
C27   C31   A    
C36   C80   S    
C85   H39   S    
C42   C43   A    
O2    Zn2   S    
C4    C10   S    
C44   H2    S    
C24   C72   S    
C23   C54   A    
C78   C88   A    
C58   C63   A    
C15   C17   A    
C74   H29   S    
C46   C47   A    
C6    C67   A    
C50   H9    S    
C18   C22   A    
C19   C24   A    
C75   H30   S    
C47   C48   A    
C22   C58   S    
C12   H11   S    
C39   C44   A    
C20   C27   A    
C7    H12   S    
C33   C51   A    
C56   C67   A    
C64   C65   A    
C2    C3    A    
C58   C59   A    
C2    C56   A    
C16   O20   A    
C38   C39   A    
C2    H15   S    
C49   C53   A    
C57   H10   S    
C17   C19   A    
C37   H6    S    
C4    O19   A    
C69   C70   A    
C42   C49   A    
C28   O15   A    
C15   H43   S    
C88   H1    S    
C26   C29   A    
C82   C83   A    
C31   H23   S    
O12   Zn1   S    
C63   H20   S    
C21   C22   A    
C12   C54   A    
C60   H17   S    
C10   C14   A    
C9    H45   S    
