data_mof_unit_37195.cif
_audit_creation_date              2012-12-10T17:46:14-0500
_audit_creation_method            fapswitch 2.2
_symmetry_space_group_name_H-M    P1
_symmetry_Int_Tables_number       1
_space_group_crystal_system       triclinic
_cell_length_a                    14.148853
_cell_length_b                    10.642371
_cell_length_c                    9.92755
_cell_angle_alpha                 89.865783
_cell_angle_beta                  89.898909
_cell_angle_gamma                 91.558529
_cell_volume                      1494.30449578

loop_
_atom_site_label
_atom_site_type_symbol
_atom_type_description
_atom_site_fract_x
_atom_site_fract_y
_atom_site_fract_z
_atom_type_partial_charge
C1    C     C_R   0.502700 0.260670 0.500199 0.846856
C2    C     C_R   0.440823 0.062230 0.427203 -0.218410
C3    C     C_R   0.440997 0.933889 0.426675 -0.197454
C4    C     C_R   0.329290 0.499701 0.500129 0.875126
C5    C     C_R   0.509822 0.872043 0.499103 -0.088137
C6    C     C_R   0.375697 0.335951 0.140393 -0.172476
C7    C     C_R   0.313376 0.254768 0.071253 0.240532
C8    C     C_R   0.315060 0.254457 0.931118 -0.272874
C9    C     C_R   0.376194 0.335507 0.860964 -0.179416
C10   C     C_R   0.438895 0.419090 0.928107 0.169030
C11   C     C_R   0.438793 0.419198 0.072452 0.118143
C12   C     C_1   0.772201 0.500102 0.499809 -0.217184
C13   C     C_R   0.558546 0.577467 0.071088 -0.100964
C14   C     C_R   0.558508 0.577470 0.928077 -0.108509
C15   C     C_R   0.502831 0.739488 0.499797 0.868085
C16   C     C_R   0.670719 0.500367 0.499889 0.865904
C17   C     C_1   0.227800 0.499452 0.500320 -0.214398
C18   C     C_1   0.142531 0.499239 0.500256 -0.010432
C19   C     C_1   0.042627 0.499202 0.500109 0.007117
C20   C     C_1   0.957361 0.499395 0.500007 0.004649
C21   C     C_1   0.857460 0.499779 0.499895 -0.015404
C22   C     C_3   0.804322 0.891472 0.914562 -0.789562
C23   C     C_R   0.656343 0.135763 0.636306 -0.237941
C24   C     C_3   0.188277 0.224714 0.238476 -0.798537
C25   C     C_R   0.727470 0.072619 0.703294 -0.147199
C26   C     C_R   0.727846 0.941261 0.703936 0.283781
C27   C     C_R   0.656899 0.874011 0.634410 -0.273725
C28   C     C_R   0.582874 0.936828 0.569035 0.070150
C29   C     C_R   0.582583 0.068491 0.569894 0.101560
C30   C     C_R   0.509463 0.128568 0.500181 -0.082355
H1    H     H_    0.385708 0.110051 0.373198 0.165549
H2    H     H_    0.373681 0.330238 0.246947 0.204669
H3    H     H_    0.807858 0.784180 0.740722 0.223115
H4    H     H_    0.864991 0.839944 0.956064 0.242201
H5    H     H_    0.737997 0.852524 0.960434 0.234921
H6    H     H_    0.813730 0.992067 0.942186 0.246963
H7    H     H_    0.218702 0.102022 0.082861 0.229971
H8    H     H_    0.141579 0.150098 0.283235 0.241466
H9    H     H_    0.143515 0.294704 0.187681 0.251911
H10   H     H_    0.228187 0.270277 0.321949 0.235058
H11   H     H_    0.268242 0.191439 0.875381 0.150589
H12   H     H_    0.372038 0.329554 0.754193 0.212620
H13   H     H_    0.606273 0.640886 0.874162 0.143885
H14   H     H_    0.660951 0.237262 0.635506 0.167753
H15   H     H_    0.783442 0.126440 0.752535 0.148059
H16   H     H_    0.660917 0.772767 0.631618 0.140643
H17   H     H_    0.385961 0.882395 0.372389 0.159384
H18   H     H_    0.606347 0.640853 0.124363 0.143701
N1    N     N_R   0.499190 0.498800 0.142780 -0.106828
N2    N     N_R   0.499160 0.498720 0.857170 -0.108793
N3    N     N_2   0.801603 0.876643 0.769759 -0.310813
N4    N     N_2   0.251862 0.169193 0.142366 -0.314930
O1    O     O_R   0.500000 0.316780 0.614690 -0.633548
O2    O     O_R   0.499990 0.316750 0.385360 -0.624746
O3    O     O_R   0.373720 0.500010 0.614690 -0.607116
O4    O     O_R   0.373710 0.499990 0.385360 -0.614319
O5    O     O_R   0.500010 0.683250 0.614640 -0.607062
O6    O     O_R   0.500000 0.683220 0.385310 -0.607360
O7    O     O_R   0.626290 0.500010 0.614640 -0.609853
O8    O     O_R   0.626280 0.499990 0.385310 -0.587117
Zn1   Zn    Zn3+2 0.500010 0.500020 0.653130 0.928320
Zn2   Zn    Zn3+2 0.499990 0.499980 0.346870 0.935751

loop_
_geom_bond_atom_site_label_1
_geom_bond_atom_site_label_2
_ccdc_geom_bond_type
C24   N4    S    
C13   H18   S    
C24   H8    S    
C1    O2    A    
O6    Zn2   S    
C29   C30   A    
C11   N1    A    
H3    N3    S    
C5    C28   A    
C22   H6    S    
C9    C10   A    
C6    H2    S    
C19   C20   T    
C2    C30   A    
C2    C3    A    
C26   C27   A    
C7    C8    A    
C4    O3    A    
C26   N3    S    
C4    O4    A    
O5    Zn1   S    
C22   H5    S    
C15   O5    A    
C9    H12   S    
C14   N2    A    
C13   N1    A    
C4    C17   S    
C23   C29   A    
C27   H16   S    
C3    H17   S    
C28   C29   A    
C24   H10   S    
C7    N4    S    
C17   C18   T    
C6    C7    A    
C23   C25   A    
C1    C30   S    
C22   N3    S    
C22   H4    S    
C15   O6    A    
O4    Zn2   S    
O7    Zn1   S    
C5    C15   S    
C10   C11   A    
O3    Zn1   S    
C10   N2    A    
C25   H15   S    
C6    C11   A    
C24   H9    S    
C20   C21   S    
C8    C9    A    
O8    Zn2   S    
C18   C19   S    
C16   O8    A    
C27   C28   A    
N2    Zn1   S    
H7    N4    S    
C1    O1    A    
C14   H13   S    
N1    Zn2   S    
O2    Zn2   S    
C8    H11   S    
C25   C26   A    
C13   C14   A    
O1    Zn1   S    
C12   C21   T    
C23   H14   S    
C12   C16   S    
C2    H1    S    
C3    C5    A    
C16   O7    A    
