data_mof_unit_47480.cif
_audit_creation_date              2013-03-05T15:53:15-0500
_audit_creation_method            fapswitch 2.2
_symmetry_space_group_name_H-M    P1
_symmetry_Int_Tables_number       1
_space_group_crystal_system       triclinic
_cell_length_a                    17.339379
_cell_length_b                    24.257097
_cell_length_c                    14.910236
_cell_angle_alpha                 90.21258
_cell_angle_beta                  125.062958
_cell_angle_gamma                 90.466247
_cell_volume                      5132.74504031

loop_
_atom_site_label
_atom_site_type_symbol
_atom_site_description
_atom_site_fract_x
_atom_site_fract_y
_atom_site_fract_z
_atom_type_partial_charge
C1    C     C_R   0.309632 0.378406 0.910364 -0.151141
C2    C     C_R   0.645058 0.347350 0.088205 -0.114964
C3    C     C_R   0.809643 0.878386 0.910366 -0.151006
C4    C     C_R   0.145057 0.847350 0.088205 -0.114957
H1    H     H_    0.249123 0.379311 0.827062 0.143571
H2    H     H_    0.671995 0.330081 0.167108 0.088624
H3    H     H_    0.749151 0.879273 0.827061 0.144028
H4    H     H_    0.171995 0.830081 0.167108 0.088624
N1    N     N_R   0.395410 0.396350 0.944340 -0.045103
N2    N     N_R   0.604590 0.396350 0.055660 -0.039935
N3    N     N_R   0.895410 0.896350 0.944340 -0.045162
N4    N     N_R   0.104590 0.896350 0.055660 -0.039934
C5    C     C_R   0.400019 0.620671 0.091656 -0.134306
C6    C     C_R   0.557866 0.651555 0.910261 -0.146345
C7    C     C_R   0.900019 0.120670 0.091656 -0.134294
C8    C     C_R   0.057881 0.151548 0.910259 -0.146315
H5    H     H_    0.424255 0.621254 0.176207 0.114445
H6    H     H_    0.508382 0.665725 0.827717 0.111294
H7    H     H_    0.924255 0.121254 0.176207 0.114446
H8    H     H_    0.008401 0.165719 0.827714 0.111278
N5    N     N_R   0.449930 0.602500 0.055880 -0.041652
N6    N     N_R   0.550070 0.602500 0.944120 -0.040956
N7    N     N_R   0.949930 0.102500 0.055880 -0.041655
N8    N     N_R   0.050070 0.102500 0.944120 -0.040960
C9    C     C_R   0.546386 0.453906 0.301868 -0.156328
C10   C     C_R   0.524062 0.453802 0.756568 -0.142677
C11   C     C_R   0.046387 0.953906 0.301868 -0.156310
C12   C     C_R   0.024059 0.953802 0.756565 -0.142696
H9    H     H_    0.564661 0.412019 0.329089 0.105290
H10   H     H_    0.541587 0.411621 0.755049 0.114628
H11   H     H_    0.064662 0.912019 0.329089 0.105285
H12   H     H_    0.041581 0.911620 0.755043 0.114637
N9    N     N_R   0.525080 0.471030 0.205650 -0.036147
N10   N     N_R   0.474920 0.471030 0.794350 -0.037096
N11   N     N_R   0.025080 0.971030 0.205650 -0.036139
N12   N     N_R   0.974920 0.971030 0.794350 -0.037123
C13   C     C_R   0.248382 0.545041 0.696762 -0.196351
C14   C     C_R   0.766488 0.548237 0.271585 -0.165641
C15   C     C_R   0.748381 0.045040 0.696762 -0.196381
C16   C     C_R   0.266487 0.048237 0.271589 -0.165638
H13   H     H_    0.239480 0.587174 0.669117 0.111029
H14   H     H_    0.785922 0.591442 0.286224 0.113729
H15   H     H_    0.739479 0.087172 0.669114 0.111036
H16   H     H_    0.285921 0.091442 0.286231 0.113730
N13   N     N_R   0.320260 0.527820 0.794570 -0.053174
N14   N     N_R   0.679740 0.527820 0.205430 -0.054792
N15   N     N_R   0.820260 0.027820 0.794570 -0.053187
N16   N     N_R   0.179740 0.027820 0.205430 -0.054792
C17   C     C_R   0.547374 0.545239 0.303118 -0.139488
C18   C     C_R   0.519686 0.545646 0.750422 -0.120631
C19   C     C_R   0.047375 0.045238 0.303118 -0.139487
C20   C     C_R   0.019684 0.045645 0.750420 -0.120649
H17   H     H_    0.566530 0.587389 0.331958 0.090942
H18   H     H_    0.529264 0.588385 0.738636 0.095625
H19   H     H_    0.066531 0.087388 0.331958 0.090956
H20   H     H_    0.029261 0.088384 0.738631 0.095638
N17   N     N_R   0.524590 0.527840 0.205200 -0.038998
N18   N     N_R   0.475410 0.527840 0.794800 -0.040821
N19   N     N_R   0.024590 0.027840 0.205200 -0.038996
N20   N     N_R   0.975410 0.027840 0.794800 -0.040836
C21   C     C_R   0.250558 0.453375 0.693083 0.252073
C22   C     C_R   0.768902 0.456031 0.279828 0.225141
C23   C     C_R   0.750551 0.953372 0.693089 0.252738
C24   C     C_R   0.268901 0.956031 0.279832 0.225128
N21   N     N_R   0.320750 0.471000 0.795020 -0.049333
N22   N     N_R   0.679250 0.471000 0.204980 -0.054037
N23   N     N_R   0.820750 0.971000 0.795020 -0.049363
N24   N     N_R   0.179250 0.971000 0.204980 -0.054036
C25   C     C_R   0.310148 0.623970 0.908571 -0.102821
C26   C     C_R   0.650266 0.651558 0.092098 -0.124770
C27   C     C_R   0.810148 0.123970 0.908571 -0.102746
C28   C     C_R   0.150281 0.151554 0.092098 -0.124760
H21   H     H_    0.252679 0.630197 0.824037 0.096241
H22   H     H_    0.687646 0.665831 0.175992 0.087031
H23   H     H_    0.752679 0.130197 0.824037 0.096247
H24   H     H_    0.187668 0.165830 0.175991 0.087039
N25   N     N_R   0.393620 0.602490 0.942710 -0.040988
N26   N     N_R   0.606380 0.602490 0.057290 -0.038649
N27   N     N_R   0.893620 0.102490 0.942710 -0.040993
N28   N     N_R   0.106380 0.102490 0.057290 -0.038654
C29   C     C_R   0.402404 0.374535 0.092628 -0.119496
C30   C     C_R   0.559903 0.348010 0.907536 -0.140381
C31   C     C_R   0.902411 0.874530 0.092631 -0.119592
C32   C     C_R   0.059902 0.848010 0.907535 -0.140396
H25   H     H_    0.429315 0.368503 0.177450 0.091616
H26   H     H_    0.518038 0.333474 0.823752 0.095304
H27   H     H_    0.929325 0.868505 0.177455 0.091624
H28   H     H_    0.018035 0.833474 0.823751 0.095315
N29   N     N_R   0.451720 0.396350 0.057510 -0.044471
N30   N     N_R   0.548280 0.396350 0.942490 -0.037620
N31   N     N_R   0.951720 0.896350 0.057510 -0.044466
N32   N     N_R   0.048280 0.896350 0.942490 -0.037619
C33   C     C_R   0.311752 0.363194 0.001005 0.066083
C34   C     C_R   0.621068 0.316787 0.998059 0.110432
C35   C     C_R   0.811762 0.863179 0.001011 0.066192
C36   C     C_R   0.121067 0.816787 0.998058 0.110428
C37   C     C_R   0.312381 0.635692 0.001466 0.065704
C38   C     C_R   0.620594 0.683556 0.001079 0.076654
C39   C     C_R   0.812381 0.135691 0.001466 0.065701
C40   C     C_R   0.120620 0.183545 0.001076 0.076664
C41   C     C_R   0.561521 0.499441 0.365708 0.085955
C42   C     C_R   0.551506 0.499463 0.725830 0.077431
C43   C     C_R   0.061522 0.999441 0.365708 0.085953
C44   C     C_R   0.051503 0.999462 0.725827 0.077447
C45   C     C_R   0.203411 0.499650 0.631160 0.070661
C46   C     C_R   0.824154 0.503956 0.315898 0.064338
C47   C     C_R   0.703406 0.999647 0.631164 0.070757
C48   C     C_R   0.324153 0.003957 0.315903 0.064306
Ni1   Ni    Ni4+2 0.435420 0.434270 0.870230 0.213983
Ni2   Ni    Ni4+2 0.564580 0.434270 0.129770 0.211430
Ni3   Ni    Ni4+2 0.935420 0.934270 0.870230 0.213991
Ni4   Ni    Ni4+2 0.064580 0.934270 0.129770 0.211440
Ni5   Ni    Ni4+2 0.563430 0.564580 0.128740 0.215833
Ni6   Ni    Ni4+2 0.436570 0.564580 0.871260 0.216823
Ni7   Ni    Ni4+2 0.063430 0.064580 0.128740 0.215851
Ni8   Ni    Ni4+2 0.936570 0.064580 0.871260 0.216833
C49   C     C_2   0.974251 0.472683 0.367020 -0.107372
C50   C     C_2   0.069146 0.461768 0.458466 -0.084452
C51   C     C_2   0.474247 0.972682 0.367028 -0.107479
C52   C     C_2   0.569136 0.961765 0.458482 -0.084297
C53   C     C_2   0.925035 0.507816 0.383775 -0.221309
C54   C     C_2   0.129040 0.503486 0.514331 -0.220135
C55   C     C_2   0.425032 0.007816 0.383782 -0.221191
C56   C     C_2   0.629037 0.003481 0.514335 -0.220196
H29   H     H_    0.938924 0.442991 0.299896 0.189663
H30   H     H_    0.077259 0.421245 0.491868 0.163433
H31   H     H_    0.438922 0.942991 0.299904 0.189658
H32   H     H_    0.577235 0.921248 0.491902 0.163420
H33   H     H_    0.958575 0.536933 0.452118 0.157308
H34   H     H_    0.112596 0.544324 0.478258 0.149420
H35   H     H_    0.458572 0.036933 0.452126 0.157336
H36   H     H_    0.612605 0.044316 0.478251 0.149417
C57   C     C_R   0.267928 0.691097 0.104406 0.097520
C58   C     C_R   0.608201 0.769038 0.901607 0.105140
C59   C     C_R   0.767927 0.191097 0.104407 0.097482
C60   C     C_R   0.108281 0.268988 0.901569 0.105487
C61   C     C_R   0.242056 0.665415 0.006352 0.095692
C62   C     C_R   0.640004 0.742347 0.000014 0.059443
C63   C     C_R   0.742056 0.165414 0.006353 0.095702
C64   C     C_R   0.140036 0.242331 0.999990 0.059223
C65   C     C_R   0.154873 0.679317 0.909479 -0.180616
C66   C     C_R   0.702079 0.771826 0.098239 -0.181028
C67   C     C_R   0.654874 0.179317 0.909479 -0.180583
C68   C     C_R   0.202049 0.271835 0.098200 -0.180991
H37   H     H_    0.128833 0.658063 0.832985 0.122394
H38   H     H_    0.723460 0.755486 0.176615 0.125544
H39   H     H_    0.628833 0.158063 0.832985 0.122412
H40   H     H_    0.223393 0.255512 0.176574 0.125563
C69   C     C_R   0.607722 0.226536 0.907427 -0.173026
C70   C     C_R   0.249170 0.318825 0.097519 -0.164267
C71   C     C_R   0.107721 0.726536 0.907427 -0.173026
C72   C     C_R   0.749217 0.818807 0.097562 -0.164401
H41   H     H_    0.545999 0.239670 0.829894 0.117729
H42   H     H_    0.304981 0.336575 0.175449 0.124333
H43   H     H_    0.045999 0.739670 0.829893 0.117722
H44   H     H_    0.805066 0.836533 0.175497 0.124331
C73   C     C_R   0.648195 0.259742 0.002127 0.089442
C74   C     C_R   0.235069 0.335747 0.998856 0.009856
C75   C     C_R   0.148195 0.759742 0.002126 0.089436
C76   C     C_R   0.735080 0.835745 0.998887 0.010162
C77   C     C_R   0.723959 0.238713 0.101088 -0.034655
C78   C     C_R   0.154500 0.315390 0.900593 0.108485
C79   C     C_R   0.223959 0.738714 0.101088 -0.034636
C80   C     C_R   0.654453 0.815426 0.900636 0.108178
C81   C     C_3   0.814116 0.264704 0.195018 0.216066
C82   C     C_3   0.136160 0.298482 0.792509 0.190648
C83   C     C_3   0.314116 0.764705 0.195017 0.216053
C84   C     C_3   0.635987 0.798562 0.792471 0.191075
C85   C     C_3   0.361751 0.711714 0.201018 -0.571366
C86   C     C_3   0.586035 0.747802 0.794860 -0.628538
C87   C     C_3   0.861751 0.211714 0.201020 -0.571286
C88   C     C_3   0.086259 0.247706 0.794914 -0.628231
H45   H     H_    0.814380 0.273005 0.268575 0.066789
H46   H     H_    0.199881 0.288450 0.795112 0.057503
H47   H     H_    0.314380 0.773006 0.268574 0.066786
H48   H     H_    0.699629 0.788489 0.794933 0.057379
H49   H     H_    0.415703 0.717460 0.183677 0.227469
H50   H     H_    0.508911 0.746597 0.730064 0.226349
H51   H     H_    0.915703 0.217459 0.183679 0.227466
H52   H     H_    0.009153 0.246452 0.730040 0.226299
H53   H     H_    0.386138 0.687967 0.276390 0.173206
H54   H     H_    0.623831 0.709222 0.803303 0.181208
H55   H     H_    0.886137 0.187966 0.276391 0.173221
H56   H     H_    0.124143 0.209142 0.803496 0.181161
C89   C     C_R   0.601392 0.448163 0.622920 0.187064
C90   C     C_R   0.603000 0.448438 0.531548 0.171172
C91   C     C_R   0.101387 0.948161 0.622916 0.187034
C92   C     C_R   0.102996 0.948437 0.531545 0.171123
C93   C     C_R   0.596427 0.497839 0.667700 0.029313
C94   C     C_R   0.598737 0.498248 0.481904 0.024119
C95   C     C_R   0.096425 0.997837 0.667697 0.029307
C96   C     C_R   0.098738 0.998246 0.481903 0.024114
C97   C     C_R   0.618014 0.547024 0.636258 -0.190129
C98   C     C_R   0.618641 0.547299 0.542755 -0.191943
C99   C     C_R   0.118016 0.047022 0.636259 -0.190124
C100  C     C_R   0.118644 0.047297 0.542758 -0.191922
H57   H     H_    0.622021 0.586116 0.673972 0.130848
H58   H     H_    0.623331 0.586606 0.512143 0.130991
H59   H     H_    0.122025 0.086114 0.673975 0.130869
H60   H     H_    0.123338 0.086604 0.512148 0.131017
C101  C     C_3   0.542999 0.397412 0.484935 -0.527037
C102  C     C_3   0.540435 0.397186 0.584128 -0.521054
C103  C     C_3   0.042989 0.897412 0.484927 -0.527025
C104  C     C_3   0.040424 0.897187 0.584118 -0.521041
H61   H     H_    0.472579 0.404697 0.407702 0.201187
H62   H     H_    0.577359 0.361379 0.638267 0.202437
H63   H     H_    0.972570 0.904700 0.407694 0.201194
H64   H     H_    0.077344 0.861377 0.638255 0.202420
H65   H     H_    0.582059 0.361972 0.482518 0.199021
H66   H     H_    0.468299 0.404424 0.562299 0.201814
H67   H     H_    0.082045 0.861970 0.482508 0.199000
H68   H     H_    0.968288 0.904427 0.562289 0.201814
N33   N     N_R   0.850041 0.310819 0.164863 0.246170
O1    O     O_R   0.824949 0.316291 0.064625 -0.384332
O2    O     O_R   0.923903 0.337925 0.242551 -0.427427
N34   N     N_R   0.071290 0.335183 0.702650 0.242594
O3    O     O_R   0.055569 0.384733 0.722055 -0.412541
O4    O     O_R   0.033130 0.319382 0.601854 -0.419050
N35   N     N_R   0.350039 0.810819 0.164860 0.246173
O5    O     O_R   0.324948 0.816291 0.064622 -0.384341
O6    O     O_R   0.423899 0.837927 0.242547 -0.427501
N36   N     N_R   0.571140 0.835330 0.702748 0.242756
O7    O     O_R   0.556506 0.885107 0.722328 -0.413198
O8    O     O_R   0.532517 0.819486 0.601882 -0.418895
C105  C     C_3   0.243223 0.396827 0.642852 -0.395996
C106  C     C_3   0.331409 0.362461 0.694049 -0.941822
H69   H     H_    0.384287 0.384123 0.688157 0.261329
H70   H     H_    0.359710 0.350679 0.778559 0.267762
H71   H     H_    0.313481 0.323421 0.646442 0.254432
H72   H     H_    0.188178 0.371903 0.640369 0.228458
H73   H     H_    0.221903 0.402561 0.557701 0.209676
C107  C     C_3   0.801793 0.400966 0.334969 -0.344386
C108  C     C_3   0.741161 0.378931 0.370948 -0.904491
H74   H     H_    0.742865 0.408274 0.429475 0.269922
H75   H     H_    0.667452 0.372506 0.299326 0.239990
H76   H     H_    0.769003 0.338763 0.412311 0.267971
H77   H     H_    0.804796 0.371678 0.280801 0.203891
H78   H     H_    0.874878 0.404641 0.409862 0.238739
C109  C     C_3   0.743204 0.896819 0.642863 -0.396091
C110  C     C_3   0.831397 0.862461 0.694039 -0.942137
H79   H     H_    0.884259 0.884129 0.688124 0.261381
H80   H     H_    0.859722 0.850682 0.778556 0.267784
H81   H     H_    0.813469 0.823420 0.646436 0.254439
H82   H     H_    0.688166 0.871893 0.640400 0.228365
H83   H     H_    0.721863 0.902548 0.557703 0.209638
C111  C     C_3   0.301791 0.900965 0.334971 -0.344336
C112  C     C_3   0.241158 0.878929 0.370948 -0.904559
H84   H     H_    0.242862 0.908272 0.429475 0.269898
H85   H     H_    0.167451 0.872504 0.299326 0.240001
H86   H     H_    0.269001 0.838761 0.412311 0.267996
H87   H     H_    0.304795 0.871679 0.280803 0.203885
H88   H     H_    0.374876 0.904641 0.409865 0.238776

loop_
_geom_bond_atom_site_label_1
_geom_bond_atom_site_label_2
_geom_bond_distance
_ccdc_geom_bond_type
C81   C87   1.508530 S    
C31   H27   1.078461 S    
C103  C104  1.504997 S    
C72   C76   1.408995 A    
N3    N31   1.381185 A    
C57   C61   1.400697 A    
C30   C34   1.377003 A    
C2    C34   1.369106 A    
C73   C77   1.397339 A    
C26   N26   1.338659 A    
C101  C102  1.505001 S    
C66   H38   1.080848 S    
C25   N25   1.339106 A    
C109  C110  1.516621 S    
C102  H62   1.111948 S    
C68   H40   1.080851 S    
C103  H67   1.111907 S    
C51   C55   1.331215 D    
C27   N27   1.339106 A    
C83   C85   1.508530 S    
C27   H23   1.079463 S    
C60   C78   1.381394 A    
N33   O1    1.302301 A    
C59   C63   1.400698 A    
C65   C71   1.402873 A    
C18   H18   1.079523 S    
C86   H50   1.112342 S    
C77   C81   1.504866 S    
C1    H1    1.071125 S    
C24   N24   1.346384 A    
C24   C48   1.394201 A    
C87   H55   1.111918 S    
N34   O4    1.300948 A    
N14   N22   1.378213 A    
C3    H3    1.071040 S    
C84   N36   1.465052 S    
C32   C36   1.377005 A    
N10   N18   1.377968 A    
C97   H57   1.081804 S    
N9    Ni2   1.853920 S    
C66   C72   1.400483 A    
C42   C93   1.461298 S    
C17   N17   1.340056 A    
C56   H36   1.088247 S    
C9    H9    1.076123 S    
C84   H48   1.112070 S    
C50   C54   1.333847 D    
C37   C61   1.458790 S    
C101  H61   1.112530 S    
N6    Ni6   1.845551 S    
N19   Ni7   1.851322 S    
C69   H41   1.081713 S    
C49   H29   1.085692 S    
C43   C96   1.461158 S    
C68   C70   1.400495 A    
C20   N20   1.339453 A    
C27   C39   1.391425 A    
N17   Ni5   1.851322 S    
C4    C36   1.369109 A    
C63   C67   1.410113 A    
C60   C64   1.399741 A    
N8    N28   1.381187 A    
C72   H44   1.081464 S    
C82   N34   1.465073 S    
C88   H56   1.112312 S    
C26   H22   1.079951 S    
N10   Ni1   1.852597 S    
C25   H21   1.079461 S    
C109  H82   1.108081 S    
C59   C87   1.503553 S    
C4    N4    1.329380 A    
C40   C64   1.464784 S    
C108  H74   1.111059 S    
C91   C95   1.402489 A    
C4    H4    1.073864 S    
C16   C48   1.361528 A    
C106  H70   1.097609 S    
C29   N29   1.339596 A    
C88   H52   1.112345 S    
C7    N7    1.327638 A    
C70   H42   1.081472 S    
C8    N8    1.330107 A    
C78   C82   1.506865 S    
C82   C88   1.511829 S    
C86   H54   1.112310 S    
C107  H78   1.110119 S    
C59   C77   1.374480 A    
C87   H51   1.112418 S    
C2    H2    1.073863 S    
C47   C56   1.458823 S    
C102  H66   1.112423 S    
C57   C79   1.374483 A    
C83   N35   1.468209 S    
C10   N10   1.331762 A    
C29   H25   1.078468 S    
C6    C38   1.380386 A    
C99   H59   1.081807 S    
C111  H87   1.097448 S    
C112  H85   1.107029 S    
N1    Ni1   1.851032 S    
N15   Ni8   1.866405 S    
C101  H65   1.111902 S    
C23   N23   1.354807 A    
C82   H46   1.112073 S    
C89   C102  1.500582 S    
C106  H69   1.099779 S    
C22   N22   1.346389 A    
C11   H11   1.076121 S    
C35   C76   1.465880 S    
C18   N18   1.339450 A    
C60   C88   1.494738 S    
C12   H12   1.073594 S    
C1    N1    1.334307 A    
N34   O3    1.302337 A    
N6    N26   1.381187 A    
N5    Ni5   1.865425 S    
C41   C94   1.461160 S    
C62   C66   1.408298 A    
C19   C43   1.383596 A    
N1    N29   1.381185 A    
N35   O5    1.302301 A    
C94   C98   1.408394 A    
C8    C40   1.380368 A    
C111  H88   1.110118 S    
C11   N11   1.328591 A    
N13   Ni6   1.866405 S    
C44   C95   1.461297 S    
C103  H63   1.112536 S    
N29   Ni2   1.837753 S    
C110  H81   1.110850 S    
C21   C105  1.529296 S    
C90   C101  1.496440 S    
C52   C56   1.333839 D    
C71   C75   1.406728 A    
N31   Ni4   1.837753 S    
C90   C94   1.399435 A    
C7    H7    1.075734 S    
C13   C45   1.370704 A    
C93   C97   1.407781 A    
N35   O6    1.300184 A    
C29   C33   1.391286 A    
C12   C44   1.381681 A    
C32   N32   1.344315 A    
C96   C100  1.408396 A    
N28   Ni7   1.855497 S    
C67   C69   1.402872 A    
C79   C83   1.504867 S    
C8    H8    1.078769 S    
C31   C35   1.391287 A    
C14   C46   1.361534 A    
C104  H68   1.112429 S    
N12   Ni3   1.852597 S    
C110  H80   1.097604 S    
C105  C106  1.516610 S    
C5    N5    1.327639 A    
C100  H60   1.081055 S    
N15   N23   1.378401 A    
C5    C37   1.383862 A    
C105  H73   1.109430 S    
N22   Ni2   1.845716 S    
C51   C52   1.438271 S    
N36   O8    1.300907 A    
C108  H75   1.107031 S    
N21   Ni1   1.865250 S    
C39   C63   1.458791 S    
C89   C93   1.402488 A    
N16   Ni7   1.886037 S    
C104  H64   1.111953 S    
C80   C84   1.506827 S    
C81   N33   1.468212 S    
C25   C37   1.391425 A    
C38   C62   1.464858 S    
N8    Ni8   1.845551 S    
C34   C73   1.455384 S    
C71   H43   1.081713 S    
C85   H49   1.112419 S    
N13   N21   1.378401 A    
C107  H77   1.097447 S    
C75   C79   1.397339 A    
N20   Ni8   1.852524 S    
N26   Ni5   1.855497 S    
C19   N19   1.340058 A    
C48   C55   1.433649 S    
C13   N13   1.333891 A    
N25   Ni6   1.857586 S    
C2    N2    1.329381 A    
C76   C80   1.404928 A    
C67   H39   1.081979 S    
N4    Ni4   1.852569 S    
C21   C45   1.391473 A    
C57   C85   1.503552 S    
C15   N15   1.333892 A    
C28   C40   1.385985 A    
C112  H86   1.110329 S    
N23   Ni3   1.865250 S    
C16   N16   1.326763 A    
C61   C65   1.410113 A    
C111  C112  1.523068 S    
C20   C44   1.390434 A    
N9    N17   1.378156 A    
C9    N9    1.328593 A    
C70   C74   1.408986 A    
N14   Ni5   1.886037 S    
C55   H35   1.087450 S    
C85   H53   1.111918 S    
C6    H6    1.078766 S    
N4    N32   1.381184 A    
C32   H28   1.078206 S    
C53   H33   1.087447 S    
N16   N24   1.378213 A    
C58   C62   1.399782 A    
C15   H15   1.082053 S    
C112  H84   1.111057 S    
C52   H32   1.076774 S    
N32   Ni3   1.857589 S    
C18   C42   1.390435 A    
C22   C46   1.394203 A    
C65   H37   1.081978 S    
C106  H71   1.110852 S    
C31   N31   1.339575 A    
C92   C96   1.399437 A    
C11   C43   1.376733 A    
C92   C103  1.496453 S    
C22   C107  1.505709 S    
C105  H72   1.108017 S    
C30   N30   1.344317 A    
C5    H5    1.075732 S    
C109  H83   1.109423 S    
C6    N6    1.330152 A    
C64   C68   1.408296 A    
N33   O2    1.300184 A    
C91   C92   1.378620 A    
C28   N28   1.338663 A    
C30   H26   1.078203 S    
C49   C50   1.438294 S    
C10   C42   1.381679 A    
C23   C109  1.529323 S    
C9    C41   1.376738 A    
C89   C90   1.378622 A    
C98   H58   1.081053 S    
C7    C39   1.383863 A    
C69   C73   1.406729 A    
C28   H24   1.079954 S    
C17   H17   1.080610 S    
C91   C104  1.500591 S    
C46   C53   1.433665 S    
C84   C86   1.511917 S    
C110  H79   1.099792 S    
C3    C35   1.382370 A    
C58   C80   1.381412 A    
C45   C54   1.458839 S    
N2    Ni2   1.852569 S    
C83   H47   1.111765 S    
C19   H19   1.080611 S    
C21   N21   1.354806 A    
C13   H13   1.082054 S    
C33   C74   1.465836 S    
C15   C47   1.370713 A    
C108  H76   1.110327 S    
C95   C99   1.407782 A    
C14   N14   1.326768 A    
C3    N3    1.334300 A    
N11   N19   1.378156 A    
C74   C78   1.404920 A    
N7    Ni7   1.865425 S    
C99   C100  1.400459 A    
C14   H14   1.080553 S    
C20   H20   1.079519 S    
C16   H16   1.080551 S    
C36   C75   1.455382 S    
C24   C111  1.505712 S    
C12   N12   1.331756 A    
C1    C33   1.382333 A    
C97   C98   1.400460 A    
C58   C86   1.494711 S    
N5    N25   1.381182 A    
N18   Ni6   1.852524 S    
N3    Ni3   1.851032 S    
N12   N20   1.377968 A    
N2    N30   1.381184 A    
C49   C53   1.331224 D    
C50   H30   1.076767 S    
N30   Ni1   1.857589 S    
N7    N27   1.381182 A    
N27   Ni8   1.857586 S    
C81   H45   1.111764 S    
C23   C47   1.391471 A    
N36   O7    1.301918 A    
C54   H34   1.088247 S    
N24   Ni4   1.845716 S    
N11   Ni4   1.853920 S    
C26   C38   1.386003 A    
C17   C41   1.383598 A    
C107  C108  1.523070 S    
C10   H10   1.073596 S    
C51   H31   1.085691 S    
