data_mof_unit_19039.cif
_audit_creation_date              2012-12-11T15:27:41-0500
_audit_creation_method            fapswitch 2.2
_symmetry_space_group_name_H-M    P1
_symmetry_Int_Tables_number       1
_space_group_crystal_system       triclinic
_cell_length_a                    23.088811
_cell_length_b                    7.412033
_cell_length_c                    15.544997
_cell_angle_alpha                 90.000322
_cell_angle_beta                  108.890666
_cell_angle_gamma                 89.999617
_cell_volume                      2517.00509094

loop_
_atom_site_label
_atom_site_type_symbol
_atom_type_description
_atom_site_fract_x
_atom_site_fract_y
_atom_site_fract_z
_atom_type_partial_charge
O1    O     O_R   0.711000 0.648610 0.341170 -0.541432
O2    O     O_R   0.289000 0.351390 0.658830 -0.539872
O3    O     O_R   0.789000 0.148610 0.158830 -0.541456
O4    O     O_R   0.211000 0.851390 0.841170 -0.539860
O5    O     O_R   0.829650 0.322030 0.336650 -0.539790
O6    O     O_R   0.170350 0.677970 0.663350 -0.534238
O7    O     O_R   0.670350 0.822030 0.163350 -0.539791
O8    O     O_R   0.329650 0.177970 0.836650 -0.534252
C1    C     C_R   0.853087 0.486248 0.359193 0.727450
C2    C     C_R   0.146788 0.514112 0.641129 0.727325
C3    C     C_R   0.646913 0.986248 0.140808 0.727484
C4    C     C_R   0.353213 0.014112 0.858870 0.727334
O9    O     O_R   0.713950 0.319280 0.352070 -0.546115
O10   O     O_R   0.286050 0.680720 0.647930 -0.545256
O11   O     O_R   0.786050 0.819280 0.147930 -0.546088
O12   O     O_R   0.213950 0.180720 0.852070 -0.545262
O13   O     O_R   0.672470 0.142870 0.174360 -0.532669
O14   O     O_R   0.327530 0.857130 0.825640 -0.537777
O15   O     O_R   0.827530 0.642870 0.325640 -0.532649
O16   O     O_R   0.172470 0.357130 0.674360 -0.537780
C5    C     C_R   0.701553 0.487433 0.374358 0.812453
C6    C     C_R   0.298372 0.512582 0.625553 0.809885
C7    C     C_R   0.798452 0.987430 0.125647 0.812525
C8    C     C_R   0.201625 0.012584 0.874444 0.809890
O17   O     O_3   0.736530 0.478650 0.191680 -0.387609
O18   O     O_3   0.263470 0.521350 0.808320 -0.388373
O19   O     O_3   0.763470 0.978650 0.308320 -0.387589
O20   O     O_3   0.236530 0.021350 0.691680 -0.388372
V1    V     V_3+5 0.752500 0.206170 0.260820 1.450791
V2    V     V_3+5 0.247500 0.793830 0.739180 1.450405
V3    V     V_3+5 0.747500 0.706170 0.239180 1.450843
V4    V     V_3+5 0.252500 0.293830 0.760820 1.450358
C9    C     C_R   0.827288 0.998262 0.054510 -0.148840
C10   C     C_R   0.173168 0.007496 0.946131 -0.148784
C11   C     C_R   0.672722 0.498268 0.445500 -0.148751
C12   C     C_R   0.326830 0.507486 0.553868 -0.148772
C13   C     C_R   0.819404 0.067602 0.900451 -0.222794
C14   C     C_R   0.180908 0.066900 0.101083 -0.222208
C15   C     C_R   0.680605 0.567620 0.599559 -0.223108
C16   C     C_R   0.319101 0.566907 0.398923 -0.222255
C17   C     C_R   0.791091 0.037297 0.965806 0.262397
C18   C     C_R   0.209264 0.042726 0.035351 0.263818
C19   C     C_R   0.708917 0.537393 0.534195 0.262510
C20   C     C_R   0.290740 0.542749 0.464650 0.263826
C21   C     C_R   0.891369 0.985154 0.078345 0.333838
C22   C     C_R   0.109230 0.989443 0.922445 0.333634
C23   C     C_R   0.608644 0.485085 0.421672 0.333867
C24   C     C_R   0.390767 0.489390 0.577561 0.333617
C25   C     C_R   0.921674 0.035850 0.014435 -0.059014
C26   C     C_R   0.078729 0.036984 0.986567 -0.060682
C27   C     C_R   0.578337 0.535754 0.485586 -0.058979
C28   C     C_R   0.421275 0.536919 0.513445 -0.060641
C29   C     C_R   0.883623 0.065597 0.923240 -0.119599
C30   C     C_R   0.116695 0.064543 0.078053 -0.119374
C31   C     C_R   0.616389 0.565460 0.576785 -0.119805
C32   C     C_R   0.383313 0.564498 0.421958 -0.119399
C33   C     C_R   0.987114 0.062316 0.036400 -0.174412
C34   C     C_R   0.013247 0.063208 0.964575 -0.173374
C35   C     C_R   0.512896 0.562218 0.463620 -0.174437
C36   C     C_R   0.486760 0.563099 0.535442 -0.173486
C37   C     C_R   0.972917 0.105902 0.875566 0.380835
C38   C     C_R   0.027377 0.103722 0.125566 0.382348
C39   C     C_R   0.527093 0.605700 0.624459 0.380996
C40   C     C_R   0.472637 0.603637 0.374455 0.382378
C41   C     C_R   0.909529 0.101553 0.855337 0.344999
C42   C     C_R   0.090733 0.098872 0.146006 0.344294
C43   C     C_R   0.590479 0.601239 0.644701 0.344979
C44   C     C_R   0.409280 0.598793 0.354008 0.344295
H1    H     H_    0.790619 0.097992 0.831799 0.161551
H2    H     H_    0.209626 0.094557 0.170097 0.161334
H3    H     H_    0.709387 0.598121 0.668198 0.161551
H4    H     H_    0.290388 0.594599 0.329911 0.161337
C45   C     C_1   0.415537 0.007525 0.922201 -0.177075
C46   C     C_1   0.584669 0.994273 0.077274 -0.175657
C47   C     C_1   0.084463 0.507527 0.577799 -0.177066
C48   C     C_1   0.915330 0.494275 0.422729 -0.175541
C49   C     C_1   0.468641 0.003963 0.971743 -0.003517
C50   C     C_1   0.531601 0.999486 0.027654 -0.004470
C51   C     C_1   0.031359 0.503965 0.528259 -0.003519
C52   C     C_1   0.968398 0.499489 0.472349 -0.004386
O21   O     O_3   0.872769 0.150444 0.768742 -0.541714
C53   C     C_3   0.855521 0.993774 0.714696 0.098943
H5    H     H_    0.830565 0.896509 0.744556 0.098866
H6    H     H_    0.896191 0.925106 0.706917 0.139960
C54   C     C_3   0.813446 0.047364 0.620751 -0.652478
H7    H     H_    0.837416 0.142402 0.588471 0.238352
H8    H     H_    0.799802 0.925745 0.577173 0.191539
H9    H     H_    0.771635 0.113630 0.626279 0.215862
O22   O     O_3   0.127392 0.147469 0.232697 -0.541675
C55   C     C_3   0.144121 0.990801 0.286837 0.099696
H10   H     H_    0.170191 0.894806 0.258210 0.098718
H11   H     H_    0.103151 0.920659 0.292721 0.139274
C56   C     C_3   0.184524 0.044827 0.381730 -0.651244
H12   H     H_    0.159454 0.139354 0.412506 0.237107
H13   H     H_    0.197594 0.923400 0.425555 0.194117
H14   H     H_    0.226734 0.111842 0.378191 0.216102
O23   O     O_3   0.627229 0.649716 0.731366 -0.541660
C57   C     C_3   0.644409 0.492769 0.785215 0.098855
H15   H     H_    0.670096 0.396891 0.755868 0.099134
H16   H     H_    0.603671 0.422510 0.791840 0.138888
C58   C     C_3   0.685521 0.546238 0.879779 -0.650946
H17   H     H_    0.660789 0.639929 0.911516 0.237655
H18   H     H_    0.699128 0.424376 0.923184 0.191389
H19   H     H_    0.727403 0.614001 0.875428 0.216455
O24   O     O_3   0.372628 0.647337 0.267305 -0.541671
C59   C     C_3   0.355903 0.490630 0.213194 0.099681
H20   H     H_    0.329719 0.394860 0.241737 0.098769
H21   H     H_    0.396878 0.420229 0.207485 0.139104
C60   C     C_3   0.315653 0.544644 0.118212 -0.651022
H22   H     H_    0.340843 0.638950 0.087523 0.237006
H23   H     H_    0.302583 0.423181 0.074414 0.194087
H24   H     H_    0.273438 0.611908 0.121572 0.216193
O25   O     O_3   0.079025 0.949401 0.832597 -0.543496
C61   C     C_3   0.048234 0.783854 0.822744 0.152306
H25   H     H_    0.014427 0.779511 0.859713 0.099753
H26   H     H_    0.081722 0.673377 0.848684 0.087827
C62   C     C_3   0.014145 0.760687 0.721467 -0.689762
H27   H     H_    0.047398 0.732313 0.685593 0.212903
H28   H     H_    0.979674 0.651569 0.708783 0.168100
H29   H     H_    0.990087 0.886895 0.692116 0.256195
O26   O     O_3   0.921773 0.945705 0.168193 -0.544025
C63   C     C_3   0.952642 0.780351 0.178211 0.147108
H30   H     H_    0.986905 0.777010 0.142022 0.100307
H31   H     H_    0.919321 0.669832 0.151427 0.087998
C64   C     C_3   0.985972 0.756453 0.279703 -0.688506
H32   H     H_    0.952319 0.726422 0.314732 0.214389
H33   H     H_    0.020752 0.648138 0.292749 0.168549
H34   H     H_    0.009600 0.882894 0.309690 0.255730
O27   O     O_3   0.420962 0.449355 0.667413 -0.543491
C65   C     C_3   0.451733 0.283773 0.677287 0.152266
H35   H     H_    0.485530 0.279337 0.640301 0.099644
H36   H     H_    0.418230 0.173319 0.651383 0.087876
C66   C     C_3   0.485832 0.260672 0.778567 -0.689702
H37   H     H_    0.452578 0.232553 0.814472 0.212943
H38   H     H_    0.520249 0.151400 0.791267 0.168019
H39   H     H_    0.509961 0.386816 0.807876 0.256426
O28   O     O_3   0.578242 0.445607 0.331827 -0.544027
C67   C     C_3   0.547371 0.280258 0.321816 0.147112
H40   H     H_    0.513111 0.276922 0.358011 0.100286
H41   H     H_    0.580692 0.169737 0.348596 0.088011
C68   C     C_3   0.514034 0.256360 0.220325 -0.688500
H42   H     H_    0.547684 0.226350 0.185289 0.214398
H43   H     H_    0.479260 0.148032 0.207281 0.168539
H44   H     H_    0.490399 0.382794 0.190343 0.255759
O29   O     O_3   0.272105 0.054064 0.056358 -0.655277
H45   H     H_    0.290910 0.078274 0.122314 0.288168
O30   O     O_3   0.728205 0.045764 0.944856 -0.655226
H46   H     H_    0.709345 0.073470 0.879273 0.288890
O31   O     O_3   0.227899 0.554134 0.443639 -0.655285
H47   H     H_    0.209098 0.578360 0.377684 0.288182
O32   O     O_3   0.771799 0.546027 0.555126 -0.655282
H48   H     H_    0.790658 0.573780 0.620704 0.288978
O33   O     O_3   0.992616 0.149297 0.803714 -0.521438
C69   C     C_3   0.022739 0.316371 0.817730 0.159971
H49   H     H_    0.059323 0.326981 0.884700 0.094424
H50   H     H_    0.989123 0.426387 0.812445 0.095960
C70   C     C_3   0.052042 0.335637 0.743942 -0.628250
H51   H     H_    0.015542 0.355578 0.677843 0.211151
H52   H     H_    0.084633 0.449045 0.759091 0.143010
H53   H     H_    0.078289 0.213421 0.738748 0.255711
O34   O     O_3   0.007592 0.147549 0.197258 -0.520807
C71   C     C_3   0.977268 0.314281 0.182702 0.161563
H54   H     H_    0.940967 0.324775 0.115463 0.095119
H55   H     H_    0.010851 0.424532 0.188385 0.095833
C72   C     C_3   0.947388 0.333139 0.255744 -0.631375
H56   H     H_    0.983608 0.353443 0.322070 0.210893
H57   H     H_    0.914588 0.446062 0.240060 0.142140
H58   H     H_    0.921248 0.210538 0.260659 0.257874
O35   O     O_3   0.507401 0.649080 0.696319 -0.521295
C73   C     C_3   0.477311 0.816206 0.682347 0.160043
H59   H     H_    0.440720 0.826890 0.615386 0.094399
H60   H     H_    0.510946 0.926176 0.687646 0.095848
C74   C     C_3   0.448026 0.835475 0.756156 -0.628231
H61   H     H_    0.484537 0.855278 0.822258 0.211143
H62   H     H_    0.415472 0.948972 0.741054 0.142993
H63   H     H_    0.421741 0.713318 0.761313 0.255697
O36   O     O_3   0.492426 0.647452 0.302764 -0.520785
C75   C     C_3   0.522746 0.814187 0.317316 0.161559
H64   H     H_    0.559048 0.824687 0.384554 0.095094
H65   H     H_    0.489162 0.924435 0.311633 0.095820
C76   C     C_3   0.552624 0.833045 0.244271 -0.631351
H66   H     H_    0.516405 0.853343 0.177944 0.210885
H67   H     H_    0.585423 0.945972 0.259953 0.142150
H68   H     H_    0.578767 0.710446 0.239358 0.257855

loop_
_geom_bond_atom_site_label_1
_geom_bond_atom_site_label_2
_ccdc_geom_bond_type
O17   V3    S    
C14   H2    S    
O1    C5    A    
C72   H56   S    
C13   H1    S    
O19   V1    S    
C9    C21   A    
O35   C73   S    
O12   C8    A    
O3    C7    A    
O30   H46   S    
C10   C18   A    
O31   H47   S    
C11   C23   A    
C62   H28   S    
O34   C71   S    
C55   H10   S    
C25   C33   A    
C33   C38   A    
C54   H7    S    
O7    C3    A    
C35   C40   A    
C70   H51   S    
C59   H21   S    
C36   C39   A    
C40   C44   A    
O9    V1    S    
C14   C18   A    
C24   C28   A    
C60   H23   S    
O29   H45   S    
O4    C8    A    
C74   H63   S    
C38   O34   S    
C59   H20   S    
O23   C57   S    
O1    V3    S    
C19   O32   S    
O13   V1    S    
O2    V4    S    
O3    V1    S    
C56   H13   S    
C28   C36   A    
C55   H11   S    
C1    O15   A    
C15   C31   A    
C2    O16   A    
C16   C32   A    
C17   O30   S    
O2    C6    A    
C64   H34   S    
O32   H48   S    
C10   C22   A    
C1    C48   S    
C11   C19   A    
C16   C20   A    
C69   H50   S    
C13   C29   A    
C34   C37   A    
O11   C7    A    
O28   C67   S    
O15   V3    S    
C35   C36   A    
C70   H52   S    
C74   H61   S    
C4    C45   S    
C76   H68   S    
O10   V2    S    
C75   H64   S    
C42   O22   S    
C71   H55   S    
C54   H8    S    
C61   C62   S    
C39   C43   A    
O7    V3    S    
C38   C42   A    
C26   C34   A    
C58   H17   S    
C69   C70   S    
C60   H22   S    
C62   H29   S    
O22   C55   S    
O18   V4    S    
C15   C19   A    
C7    C9    S    
C49   C50   S    
C67   C68   S    
C71   H54   S    
O21   C53   S    
C60   H24   S    
C61   H26   S    
O8    V4    S    
C76   H66   S    
C65   H36   S    
O5    C1    A    
C23   C27   A    
C66   H39   S    
C71   C72   S    
C2    C47   S    
C31   C43   A    
C14   C30   A    
C21   C25   A    
O8    C4    A    
C23   O28   S    
O26   C63   S    
O9    C5    A    
C56   H12   S    
C26   C30   A    
C69   H49   S    
C74   H62   S    
C67   H41   S    
O36   C75   S    
C30   C42   A    
C72   H58   S    
O6    V2    S    
C53   H5    S    
C56   H14   S    
C57   H16   S    
C46   C50   T    
C64   H32   S    
C24   O27   S    
C68   H44   S    
C65   C66   S    
C27   C35   A    
C44   O24   S    
C63   H31   S    
C57   C58   S    
O5    V1    S    
C29   C41   A    
C55   C56   S    
C66   H38   S    
O25   C61   S    
O16   V4    S    
C54   H9    S    
C3    O13   A    
C15   H3    S    
C16   H4    S    
C22   O25   S    
C48   C52   T    
C3    C46   S    
C37   O33   S    
O6    C2    A    
C75   H65   S    
O11   V3    S    
C5    C11   S    
C70   H53   S    
O12   V4    S    
C53   C54   S    
C6    C12   S    
O24   C59   S    
C22   C26   A    
C53   H6    S    
C20   O31   S    
C58   H18   S    
C21   O26   S    
O10   C6    A    
C63   C64   S    
C68   H43   S    
C65   H35   S    
O27   C65   S    
C9    C17   A    
C32   C44   A    
C62   H27   S    
C40   O36   S    
C33   C34   A    
C66   H37   S    
C73   H60   S    
C25   C29   A    
C73   C74   S    
O20   V2    S    
C12   C24   A    
C27   C31   A    
C61   H25   S    
C13   C17   A    
C8    C10   S    
C75   C76   S    
C12   C20   A    
C67   H40   S    
C43   O23   S    
O14   V2    S    
C51   C52   S    
C37   C41   A    
C76   H67   S    
C72   H57   S    
C57   H15   S    
C73   H59   S    
C4    O14   A    
C64   H33   S    
C45   C49   T    
C41   O21   S    
C58   H19   S    
C63   H30   S    
C68   H42   S    
C18   O29   S    
C47   C51   T    
C59   C60   S    
O4    V2    S    
C28   C32   A    
O33   C69   S    
C39   O35   S    
