data_mof_unit_14581.cif
_audit_creation_date              2012-12-10T18:01:45-0500
_audit_creation_method            fapswitch 2.2
_symmetry_space_group_name_H-M    P1
_symmetry_Int_Tables_number       1
_space_group_crystal_system       triclinic
_cell_length_a                    10.834757
_cell_length_b                    9.508331
_cell_length_c                    19.302361
_cell_angle_alpha                 89.99676
_cell_angle_beta                  90.151586
_cell_angle_gamma                 89.999121
_cell_volume                      1988.53106651

loop_
_atom_site_label
_atom_site_type_symbol
_atom_type_description
_atom_site_fract_x
_atom_site_fract_y
_atom_site_fract_z
_atom_type_partial_charge
C1    C     C_R   0.262022 0.500001 0.499956 0.796262
C2    C     C_R   0.737978 0.499999 0.500046 0.796275
C3    C     C_R   0.500274 0.499394 0.930133 0.527012
C4    C     C_R   0.499729 0.499392 0.069937 0.529083
C5    C     C_R   0.499828 0.499997 0.367301 0.850919
C6    C     C_R   0.500170 0.499991 0.632691 0.850798
C7    C     C_R   0.063847 0.372190 0.499964 -0.163035
C8    C     C_R   0.936153 0.627810 0.500040 -0.163224
C9    C     C_R   0.936157 0.372189 0.500040 -0.163100
C10   C     C_R   0.063843 0.627811 0.499970 -0.163284
C11   C     C_R   0.871802 0.499999 0.500057 -0.021872
C12   C     C_R   0.128198 0.500001 0.499948 -0.021878
C13   C     C_R   0.423672 0.074463 0.456661 -0.003408
C14   C     C_R   0.576339 0.925543 0.543332 -0.004938
C15   C     C_R   0.576329 0.074450 0.543339 -0.003143
C16   C     C_R   0.423663 0.925556 0.456667 -0.005216
C17   C     C_R   0.533411 0.621187 0.254664 -0.225032
C18   C     C_R   0.536180 0.379257 0.745267 -0.222696
C19   C     C_R   0.464913 0.620528 0.745288 -0.224643
C20   C     C_R   0.465484 0.378619 0.254705 -0.223092
C21   C     C_R   0.534373 0.622294 0.182249 0.385303
C22   C     C_R   0.537178 0.377773 0.817683 0.389016
C23   C     C_R   0.464040 0.621723 0.817701 0.386785
C24   C     C_R   0.464418 0.377206 0.182289 0.387468
C25   C     C_R   0.499460 0.499640 0.145701 -0.197033
C26   C     C_R   0.500548 0.499640 0.854315 -0.198467
C27   C     C_R   0.499567 0.499948 0.291141 -0.178313
C28   C     C_R   0.500425 0.499934 0.708837 -0.178563
Cu1   Cu    Cu3+1 0.500000 0.640660 0.500000 0.962695
Cu2   Cu    Cu3+1 0.500000 0.359340 0.500000 0.964702
H1    H     H_    0.111880 0.272267 0.499925 0.154487
H2    H     H_    0.888120 0.727733 0.500074 0.154347
H3    H     H_    0.888127 0.272266 0.500076 0.154470
H4    H     H_    0.111873 0.727734 0.499939 0.154352
H5    H     H_    0.560198 0.714806 0.282857 0.203173
H6    H     H_    0.564350 0.286324 0.717021 0.196538
H7    H     H_    0.436753 0.713593 0.717061 0.203032
H8    H     H_    0.438681 0.285134 0.282931 0.196945
H9    H     H_    0.362561 0.130669 0.421957 0.127795
H10   H     H_    0.637473 0.869342 0.578020 0.132471
H11   H     H_    0.637440 0.130645 0.578042 0.127692
H12   H     H_    0.362530 0.869366 0.421978 0.132399
N1    N     N_R   0.500000 0.852070 0.500000 -0.167581
N2    N     N_R   0.500000 0.147930 0.500000 -0.165787
N3    N     N_R   0.607795 0.495894 0.034785 -0.134493
N4    N     N_R   0.392205 0.502424 0.965312 -0.133628
N5    N     N_R   0.608067 0.496329 0.965891 -0.134013
N6    N     N_R   0.391937 0.502858 0.034206 -0.134664
O1    O     O_R   0.319640 0.618740 0.500000 -0.589183
O2    O     O_R   0.680360 0.381260 0.500000 -0.588878
O3    O     O_R   0.680360 0.618740 0.500000 -0.589130
O4    O     O_R   0.319640 0.381260 0.500000 -0.588793
O5    O     O_R   0.499980 0.618820 0.400140 -0.580853
O6    O     O_R   0.500020 0.381180 0.599860 -0.579119
O7    O     O_R   0.500020 0.618820 0.599860 -0.580716
O8    O     O_R   0.499980 0.381180 0.400140 -0.579345
S1    S     S_3+6 0.577538 0.779119 0.138815 0.075837
O9    O     O_2   0.476668 0.820951 0.089301 -0.216055
O10   O     O_2   0.599073 0.896143 0.189779 -0.230646
O11   O     O_3   0.708315 0.750810 0.094258 -0.489159
H13   H     H_    0.718140 0.835007 0.064553 0.401320
S2    S     S_3+6 0.582454 0.221265 0.860879 0.073382
O12   O     O_2   0.484680 0.180221 0.912181 -0.215996
O13   O     O_2   0.600548 0.103602 0.809908 -0.237668
O14   O     O_3   0.716064 0.249697 0.903092 -0.489461
H14   H     H_    0.728311 0.165080 0.932252 0.400076
S3    S     S_3+6 0.419030 0.778137 0.860929 0.074661
O15   O     O_2   0.516744 0.818559 0.912675 -0.217942
O16   O     O_2   0.401417 0.896150 0.810044 -0.231524
O17   O     O_3   0.285207 0.749932 0.902569 -0.488383
H15   H     H_    0.273087 0.834428 0.931790 0.400130
S4    S     S_3+6 0.421027 0.220261 0.138918 0.074576
O18   O     O_2   0.521979 0.177803 0.089889 -0.213915
O19   O     O_2   0.398996 0.103621 0.189973 -0.237190
O20   O     O_3   0.290500 0.248726 0.093767 -0.490178
H16   H     H_    0.280288 0.164102 0.064375 0.401242

loop_
_geom_bond_atom_site_label_1
_geom_bond_atom_site_label_2
_ccdc_geom_bond_type
C5    O8    A    
C6    O7    A    
C4    C25   S    
Cu1   O1    S    
Cu2   O6    S    
S2    O12   D    
C5    O5    A    
C15   N2    A    
C4    N6    A    
S1    O10   D    
C23   C26   A    
C23   S3    S    
Cu2   O4    S    
C19   H7    S    
C5    C27   S    
C6    C28   S    
C20   C24   A    
C1    O1    A    
S2    O13   D    
O17   H15   S    
C2    O2    A    
Cu2   O2    S    
Cu1   N1    S    
C9    H3    S    
Cu2   N2    S    
C1    C12   S    
C6    O6    A    
S4    O20   S    
C2    C11   S    
C4    N3    A    
N3    N5    A    
C7    C12   A    
N4    N6    A    
C7    H1    S    
S3    O15   D    
C17   C27   A    
C18   C28   A    
C24   C25   A    
C15   H11   S    
S4    O19   D    
S1    O11   S    
Cu1   O7    S    
Cu2   O8    S    
C17   C21   A    
O11   H13   S    
S3    O16   D    
C8    H2    S    
C19   C23   A    
O20   H16   S    
C21   S1    S    
Cu1   Cu2   S    
C22   S2    S    
C20   H8    S    
C10   H4    S    
C19   C28   A    
C9    C11   A    
C16   N1    A    
C10   C12   A    
C16   H12   S    
C24   S4    S    
Cu1   O3    S    
C7    C9    A    
C21   C25   A    
S2    O14   S    
C18   C22   A    
C3    C26   S    
S4    O18   D    
C20   C27   A    
C3    N4    A    
S3    O17   S    
S1    O9    D    
Cu1   O5    S    
C8    C11   A    
C3    N5    A    
C1    O4    A    
C13   H9    S    
C2    O3    A    
C14   H10   S    
C8    C10   A    
O14   H14   S    
C22   C26   A    
C13   C16   A    
C14   C15   A    
C17   H5    S    
C18   H6    S    
C13   N2    A    
C14   N1    A    
