data_mof_unit_39972.cif
_audit_creation_date              2013-03-05T15:40:07-0500
_audit_creation_method            fapswitch 2.2
_symmetry_space_group_name_H-M    P1
_symmetry_Int_Tables_number       1
_space_group_crystal_system       triclinic
_cell_length_a                    28.271058
_cell_length_b                    18.49093
_cell_length_c                    17.020094
_cell_angle_alpha                 89.949308
_cell_angle_beta                  61.115778
_cell_angle_gamma                 89.844285
_cell_volume                      7790.50600771

loop_
_atom_site_label
_atom_site_type_symbol
_atom_site_description
_atom_site_fract_x
_atom_site_fract_y
_atom_site_fract_z
_atom_type_partial_charge
O1    O     O_R   0.746490 0.236330 0.638080 -0.560640
O2    O     O_R   0.253510 0.763670 0.361920 -0.561445
O3    O     O_R   0.253510 0.236330 0.361920 -0.574279
O4    O     O_R   0.746490 0.763670 0.638080 -0.571707
O5    O     O_R   0.246490 0.736330 0.638080 -0.571843
O6    O     O_R   0.753510 0.263670 0.361920 -0.572075
O7    O     O_R   0.753510 0.736330 0.361920 -0.559213
O8    O     O_R   0.246490 0.263670 0.638080 -0.559636
O9    O     O_R   0.674170 0.186160 0.516270 -0.591553
O10   O     O_R   0.325830 0.813840 0.483730 -0.591862
O11   O     O_R   0.325830 0.186160 0.483730 -0.598352
O12   O     O_R   0.674170 0.813840 0.516270 -0.598332
O13   O     O_R   0.174170 0.686160 0.516270 -0.595822
O14   O     O_R   0.825830 0.313840 0.483730 -0.598364
O15   O     O_R   0.825830 0.686160 0.483730 -0.591930
O16   O     O_R   0.174170 0.313840 0.516270 -0.598018
O17   O     O_R   0.739960 0.127620 0.525000 -0.575890
O18   O     O_R   0.260040 0.872380 0.475000 -0.576550
O19   O     O_R   0.260040 0.127620 0.475000 -0.575836
O20   O     O_R   0.739960 0.872380 0.525000 -0.573420
O21   O     O_R   0.239960 0.627620 0.525000 -0.575374
O22   O     O_R   0.760040 0.372380 0.475000 -0.573106
O23   O     O_R   0.760040 0.627620 0.475000 -0.574846
O24   O     O_R   0.239960 0.372380 0.525000 -0.582118
O25   O     O_R   0.680700 0.294870 0.629350 -0.581940
O26   O     O_R   0.319300 0.705130 0.370650 -0.579615
O27   O     O_R   0.319300 0.294870 0.370650 -0.574735
O28   O     O_R   0.680700 0.705130 0.629350 -0.573599
O29   O     O_R   0.180700 0.794870 0.629350 -0.573939
O30   O     O_R   0.819300 0.205130 0.370650 -0.572802
O31   O     O_R   0.819300 0.794870 0.370650 -0.579618
O32   O     O_R   0.180700 0.205130 0.629350 -0.574842
C1    C     C_R   0.700023 0.264045 0.676663 0.927506
C2    C     C_R   0.299952 0.735897 0.323328 0.939511
C3    C     C_R   0.297532 0.270273 0.324120 0.934841
C4    C     C_R   0.700313 0.735273 0.676576 0.931742
C5    C     C_R   0.200263 0.764596 0.676602 0.933490
C6    C     C_R   0.799814 0.235587 0.323378 0.935040
C7    C     C_R   0.799933 0.764185 0.323356 0.938318
C8    C     C_R   0.200050 0.235556 0.676638 0.946016
C9    C     C_R   0.691245 0.129794 0.535049 0.906222
C10   C     C_R   0.308758 0.870200 0.464925 0.906173
C11   C     C_R   0.304468 0.127512 0.478782 0.949715
C12   C     C_R   0.695501 0.872481 0.521309 0.947096
C13   C     C_R   0.195726 0.627219 0.521377 0.951032
C14   C     C_R   0.804434 0.372292 0.479284 0.942705
C15   C     C_R   0.808561 0.629367 0.466596 0.905014
C16   C     C_R   0.190779 0.370012 0.538025 0.908911
Zn1   Zn    Zn3+2 0.792340 0.208750 0.507670 1.238460
Zn2   Zn    Zn3+2 0.207660 0.791250 0.492330 1.231248
Zn3   Zn    Zn3+2 0.207660 0.208750 0.492330 1.224706
Zn4   Zn    Zn3+2 0.792340 0.791250 0.507670 1.242816
Zn5   Zn    Zn3+2 0.292340 0.708750 0.507670 1.244056
Zn6   Zn    Zn3+2 0.707660 0.291250 0.492330 1.242554
Zn7   Zn    Zn3+2 0.707660 0.708750 0.492330 1.233359
Zn8   Zn    Zn3+2 0.292340 0.291250 0.507670 1.231569
C17   C     C_R   0.548422 0.001081 0.503878 -0.016293
C18   C     C_R   0.451452 0.998908 0.496383 -0.016283
C19   C     C_R   0.049571 0.495098 0.507092 -0.020156
C20   C     C_R   0.953558 0.498116 0.494998 -0.020068
C21   C     C_R   0.509905 0.057806 0.544152 0.004590
C22   C     C_R   0.489984 0.942222 0.456081 0.005575
C23   C     C_R   0.461234 0.058175 0.539026 -0.037459
C24   C     C_R   0.538591 0.941786 0.461350 -0.037479
C25   C     C_R   0.040816 0.553549 0.460698 -0.035369
C26   C     C_R   0.964928 0.437666 0.533706 -0.026094
C27   C     C_R   0.991425 0.555148 0.456944 0.005504
C28   C     C_R   0.010160 0.440107 0.548893 -0.036716
C29   C     C_R   0.630918 0.943297 0.487681 -0.101305
C30   C     C_R   0.368952 0.056619 0.512564 -0.101510
C31   C     C_R   0.389411 0.933460 0.459975 -0.059069
C32   C     C_R   0.610561 0.066537 0.540045 -0.058280
C33   C     C_R   0.106690 0.435672 0.560389 -0.093944
C34   C     C_R   0.889570 0.564982 0.463088 -0.049551
C35   C     C_R   0.871273 0.440008 0.510272 -0.099129
C36   C     C_R   0.132695 0.552361 0.488163 -0.103073
C37   C     C_R   0.668603 0.939513 0.521213 -0.163058
C38   C     C_R   0.331333 0.060457 0.478907 -0.163546
C39   C     C_R   0.341998 0.934006 0.450338 -0.147963
C40   C     C_R   0.657998 0.065989 0.549626 -0.150471
C41   C     C_R   0.156234 0.434626 0.562304 -0.111635
C42   C     C_R   0.841744 0.565146 0.453990 -0.150620
C43   C     C_R   0.831927 0.438333 0.479717 -0.165955
C44   C     C_R   0.169542 0.559129 0.523043 -0.172783
C45   C     C_R   0.678033 0.000620 0.559617 0.307964
C46   C     C_R   0.321951 0.999378 0.440389 0.308325
C47   C     C_R   0.179056 0.499621 0.564348 0.312248
C48   C     C_R   0.821951 0.500156 0.443118 0.303031
C49   C     C_R   0.595915 0.002590 0.512551 -0.007519
C50   C     C_R   0.403993 0.997381 0.487623 -0.007795
C51   C     C_R   0.096184 0.494378 0.518251 -0.024243
C52   C     C_R   0.905474 0.500071 0.487342 -0.008975
C53   C     C_R   0.064615 0.387265 0.611000 0.359146
C54   C     C_R   0.923674 0.625224 0.447142 0.353197
C55   C     C_R   0.880778 0.383156 0.556526 0.373662
C56   C     C_R   0.128914 0.602332 0.429262 0.368850
C57   C     C_R   0.625812 0.890853 0.432408 0.369651
C58   C     C_R   0.373899 0.108899 0.568145 0.367959
C59   C     C_R   0.423747 0.873052 0.442677 0.354631
C60   C     C_R   0.576264 0.126977 0.557220 0.355623
C61   C     C_R   0.014728 0.394879 0.612525 0.374478
C62   C     C_R   0.978391 0.608707 0.411565 0.382448
C63   C     C_R   0.930516 0.376945 0.554717 0.380797
C64   C     C_R   0.081267 0.608527 0.423584 0.372054
C65   C     C_R   0.577896 0.885002 0.427442 0.373211
C66   C     C_R   0.421799 0.114814 0.573193 0.370594
C67   C     C_R   0.477998 0.889838 0.408579 0.383303
C68   C     C_R   0.521978 0.110257 0.591486 0.383856
C69   C     C_R   0.723451 0.264891 0.949518 -0.157667
C70   C     C_R   0.276750 0.735401 0.050111 -0.160544
C71   C     C_R   0.281156 0.267362 0.042235 -0.166931
C72   C     C_R   0.723234 0.734653 0.950070 -0.156802
C73   C     C_R   0.223214 0.764473 0.949852 -0.158578
C74   C     C_R   0.776870 0.235803 0.050063 -0.158675
C75   C     C_R   0.777058 0.764771 0.049693 -0.158124
C76   C     C_R   0.223052 0.237467 0.949564 -0.158065
C77   C     C_R   0.706578 0.206884 0.010789 0.347860
C78   C     C_R   0.292380 0.794911 0.991147 0.346578
C79   C     C_R   0.291264 0.203185 0.991998 0.378173
C80   C     C_R   0.707077 0.793940 0.009391 0.347400
C81   C     C_R   0.207593 0.704973 0.008703 0.348271
C82   C     C_R   0.793742 0.293807 0.988865 0.352398
C83   C     C_R   0.793216 0.705466 0.990288 0.345901
C84   C     C_R   0.213122 0.301831 0.999522 0.352375
C85   C     C_R   0.733145 0.192403 0.060922 0.385762
C86   C     C_R   0.265801 0.809327 0.941044 0.386398
C87   C     C_R   0.262631 0.188493 0.945386 0.387397
C88   C     C_R   0.734070 0.809256 0.058543 0.400086
C89   C     C_R   0.234460 0.690178 0.058197 0.401419
C90   C     C_R   0.766995 0.308554 0.939115 0.399109
C91   C     C_R   0.766505 0.690536 0.940531 0.386965
C92   C     C_R   0.242420 0.317046 0.044971 0.354581
C93   C     C_R   0.652273 0.336321 0.936681 0.367380
C94   C     C_R   0.348840 0.665196 0.061638 0.368455
C95   C     C_R   0.362000 0.318395 0.046297 0.379191
C96   C     C_R   0.651224 0.664507 0.938520 0.373269
C97   C     C_R   0.150561 0.834053 0.939369 0.372728
C98   C     C_R   0.848802 0.165165 0.061620 0.375164
C99   C     C_R   0.848487 0.835634 0.062157 0.368472
C100  C     C_R   0.148439 0.169828 0.942263 0.370681
C101  C     C_R   0.619262 0.349312 0.895704 -0.285221
C102  C     C_R   0.381276 0.651463 0.103518 -0.286876
C103  C     C_R   0.388468 0.339817 0.095536 -0.270391
C104  C     C_R   0.618864 0.650978 0.896469 -0.291301
C105  C     C_R   0.118449 0.848200 0.896986 -0.289877
C106  C     C_R   0.881250 0.151409 0.103478 -0.289064
C107  C     C_R   0.881013 0.849109 0.103905 -0.286555
C108  C     C_R   0.117314 0.153669 0.898703 -0.278169
C109  C     C_R   0.629094 0.312587 0.817761 0.169987
C110  C     C_R   0.370960 0.687548 0.182090 0.171459
C111  C     C_R   0.371433 0.313405 0.181279 0.181040
C112  C     C_R   0.629358 0.686927 0.817734 0.178090
C113  C     C_R   0.129148 0.812656 0.817939 0.178494
C114  C     C_R   0.870892 0.187418 0.182093 0.177626
C115  C     C_R   0.870821 0.812852 0.182344 0.171507
C116  C     C_R   0.128502 0.187533 0.818605 0.171310
C117  C     C_R   0.675659 0.271601 0.774117 -0.253615
C118  C     C_R   0.324172 0.728129 0.225910 -0.249063
C119  C     C_R   0.320086 0.283368 0.227996 -0.290820
C120  C     C_R   0.676244 0.727079 0.773870 -0.261683
C121  C     C_R   0.176195 0.772586 0.773861 -0.263167
C122  C     C_R   0.824012 0.227808 0.226033 -0.262433
C123  C     C_R   0.824270 0.772024 0.225875 -0.250553
C124  C     C_R   0.175524 0.227670 0.774070 -0.259934
C125  C     C_R   0.703982 0.249181 0.820298 0.274698
C126  C     C_R   0.295649 0.750152 0.179875 0.280923
C127  C     C_R   0.289643 0.268955 0.182608 0.256267
C128  C     C_R   0.704821 0.748598 0.819858 0.248769
C129  C     C_R   0.204908 0.750914 0.819671 0.249558
C130  C     C_R   0.795468 0.249806 0.180066 0.249887
C131  C     C_R   0.796064 0.749804 0.179513 0.278928
C132  C     C_R   0.203681 0.250617 0.820298 0.279976
C133  C     C_R   0.692828 0.283399 0.901200 0.003259
C134  C     C_R   0.307550 0.716995 0.098128 0.007542
C135  C     C_R   0.312109 0.283394 0.090596 0.007217
C136  C     C_R   0.692560 0.715979 0.901987 0.002556
C137  C     C_R   0.192324 0.783016 0.902151 0.002529
C138  C     C_R   0.807604 0.217086 0.098055 0.001721
C139  C     C_R   0.807652 0.783362 0.098039 0.006295
C140  C     C_R   0.190851 0.219776 0.903665 0.004990
O33   O     O_R   0.062020 0.072840 0.007170 -0.563027
O34   O     O_R   0.937980 0.927160 0.992830 -0.560947
O35   O     O_R   0.937980 0.072840 0.992830 -0.554806
O36   O     O_R   0.062020 0.927160 0.007170 -0.559959
O37   O     O_R   0.562020 0.572840 0.007170 -0.559180
O38   O     O_R   0.437980 0.427160 0.992830 -0.564996
O39   O     O_R   0.437980 0.572840 0.992830 -0.561310
O40   O     O_R   0.562020 0.427160 0.007170 -0.560765
O41   O     O_R   0.947860 0.073950 0.109290 -0.581575
O42   O     O_R   0.052140 0.926050 0.890710 -0.581066
O43   O     O_R   0.052140 0.073950 0.890710 -0.573231
O44   O     O_R   0.947860 0.926050 0.109290 -0.579621
O45   O     O_R   0.447860 0.573950 0.109290 -0.576828
O46   O     O_R   0.552140 0.426050 0.890710 -0.580564
O47   O     O_R   0.552140 0.573950 0.890710 -0.580415
O48   O     O_R   0.447860 0.426050 0.109290 -0.574586
C141  C     C_R   0.074997 0.098986 0.933329 0.957221
C142  C     C_R   0.924328 0.902031 0.067599 0.946401
C143  C     C_R   0.924479 0.098223 0.067384 0.952251
C144  C     C_R   0.075329 0.901525 0.932837 0.945862
C145  C     C_R   0.575543 0.598117 0.932575 0.946090
C146  C     C_R   0.428964 0.396677 0.062884 0.944896
C147  C     C_R   0.424489 0.598241 0.067392 0.954265
C148  C     C_R   0.575813 0.402174 0.932267 0.942904
Zn9   Zn    Zn3+2 0.505960 0.500000 0.080520 1.257046
Zn10  Zn    Zn3+2 0.494040 0.500000 0.919480 1.252264
Zn11  Zn    Zn3+2 0.005960 0.000000 0.080520 1.254449
Zn12  Zn    Zn3+2 0.994040 0.000000 0.919480 1.260171
Cl1   Cl    Cl    0.710764 0.997024 0.626392 -0.403838
Cl2   Cl    Cl    0.289256 0.002999 0.373552 -0.427262
Cl3   Cl    Cl    0.214709 0.504218 0.626279 -0.395771
Cl4   Cl    Cl    0.790003 0.497406 0.375010 -0.405272
Cl5   Cl    Cl    0.069625 0.328541 0.688384 -0.403420
Cl6   Cl    Cl    0.903379 0.688194 0.535650 -0.430111
Cl7   Cl    Cl    0.827144 0.334837 0.642530 -0.448705
Cl8   Cl    Cl    0.187481 0.645177 0.346197 -0.481253
Cl9   Cl    Cl    0.683678 0.847404 0.348270 -0.474697
Cl10  Cl    Cl    0.315804 0.151589 0.652792 -0.475649
Cl11  Cl    Cl    0.404600 0.809884 0.530903 -0.426460
Cl12  Cl    Cl    0.595462 0.190002 0.468843 -0.426340
Cl13  Cl    Cl    0.956089 0.366787 0.711364 -0.301019
Cl14  Cl    Cl    0.014877 0.605180 0.293396 -0.355609
Cl15  Cl    Cl    0.953373 0.287695 0.554956 -0.384592
Cl16  Cl    Cl    0.073388 0.691984 0.379862 -0.351961
Cl17  Cl    Cl    0.567954 0.800185 0.389249 -0.352642
Cl18  Cl    Cl    0.431471 0.199477 0.612028 -0.349411
Cl19  Cl    Cl    0.517084 0.891228 0.290697 -0.351587
Cl20  Cl    Cl    0.483121 0.108712 0.709404 -0.349444
Cl21  Cl    Cl    0.787733 0.382694 0.864340 -0.325962
Cl22  Cl    Cl    0.215526 0.613890 0.129446 -0.314777
Cl23  Cl    Cl    0.230906 0.399091 0.104875 -0.358930
Cl24  Cl    Cl    0.787328 0.616239 0.865806 -0.358994
Cl25  Cl    Cl    0.285864 0.883951 0.866911 -0.355702
Cl26  Cl    Cl    0.711664 0.119465 0.137611 -0.358610
Cl27  Cl    Cl    0.714345 0.885215 0.130479 -0.320760
Cl28  Cl    Cl    0.276341 0.108102 0.881750 -0.327211
Cl29  Cl    Cl    0.651399 0.152786 0.025771 -0.339138
Cl30  Cl    Cl    0.346111 0.850895 0.978821 -0.339093
Cl31  Cl    Cl    0.339970 0.140795 0.987645 -0.301782
Cl32  Cl    Cl    0.652368 0.848854 0.022893 -0.314104
Cl33  Cl    Cl    0.153701 0.649185 0.021222 -0.310790
Cl34  Cl    Cl    0.849024 0.347756 0.973778 -0.308898
Cl35  Cl    Cl    0.847747 0.650333 0.977035 -0.343215
Cl36  Cl    Cl    0.163216 0.363162 0.006349 -0.329105
Cl37  Cl    Cl    0.644176 0.383833 0.033411 -0.407750
Cl38  Cl    Cl    0.358690 0.620394 0.962198 -0.418714
Cl39  Cl    Cl    0.390223 0.333499 0.929053 -0.384948
Cl40  Cl    Cl    0.641480 0.619572 0.037819 -0.396042
Cl41  Cl    Cl    0.139857 0.877371 0.040190 -0.400723
Cl42  Cl    Cl    0.858201 0.119852 0.962789 -0.391711
Cl43  Cl    Cl    0.857628 0.881514 0.963760 -0.408534
Cl44  Cl    Cl    0.134821 0.131528 0.047119 -0.410172
N1    N     N_R   0.591244 0.314459 0.783904 0.243105
O49   O     O_R   0.591552 0.368026 0.733912 -0.301877
O50   O     O_R   0.563869 0.256558 0.789032 -0.286766
N2    N     N_R   0.408633 0.685524 0.216302 0.239478
O51   O     O_R   0.408225 0.631808 0.266184 -0.302581
O52   O     O_R   0.435916 0.743414 0.211612 -0.295390
N3    N     N_R   0.407342 0.314989 0.218967 0.241057
O53   O     O_R   0.405385 0.368248 0.270509 -0.308631
O54   O     O_R   0.447526 0.269622 0.189807 -0.302903
N4    N     N_R   0.591750 0.685143 0.783415 0.241549
O55   O     O_R   0.592256 0.631501 0.733459 -0.309793
O56   O     O_R   0.563990 0.742921 0.788869 -0.300890
N5    N     N_R   0.091532 0.814674 0.783631 0.241026
O57   O     O_R   0.092016 0.868222 0.733471 -0.310573
O58   O     O_R   0.063292 0.757325 0.790160 -0.302439
N6    N     N_R   0.908574 0.185410 0.216271 0.242089
O59   O     O_R   0.908142 0.131794 0.266302 -0.308441
O60   O     O_R   0.936285 0.243051 0.210705 -0.298817
N7    N     N_R   0.908378 0.814997 0.216768 0.240798
O61   O     O_R   0.907701 0.868853 0.266584 -0.304403
O62   O     O_R   0.935818 0.757125 0.212355 -0.292716
N8    N     N_R   0.090083 0.185119 0.786015 0.260764
O63   O     O_R   0.094191 0.135295 0.728994 -0.298728
O64   O     O_R   0.043731 0.217311 0.832648 -0.262074
N9    N     N_R   0.742304 0.190540 0.786705 0.259356
O65   O     O_R   0.789381 0.196087 0.782371 -0.259902
O66   O     O_R   0.729361 0.130229 0.762623 -0.254743
N10   N     N_R   0.255967 0.807080 0.214706 0.255510
O67   O     O_R   0.268008 0.868696 0.237420 -0.260048
O68   O     O_R   0.208319 0.798353 0.222131 -0.259720
N11   N     N_R   0.235890 0.240312 0.228865 0.239000
O69   O     O_R   0.195439 0.282791 0.277702 -0.305483
O70   O     O_R   0.226707 0.174215 0.213730 -0.274086
N12   N     N_R   0.745035 0.804511 0.784631 0.250450
O71   O     O_R   0.733106 0.867280 0.764138 -0.243817
O72   O     O_R   0.793281 0.793352 0.773830 -0.285878
N13   N     N_R   0.245609 0.695358 0.783935 0.250240
O73   O     O_R   0.293854 0.706995 0.772767 -0.285730
O74   O     O_R   0.234110 0.632417 0.763473 -0.243346
N14   N     N_R   0.755465 0.306271 0.215215 0.250705
O75   O     O_R   0.767447 0.368499 0.236607 -0.244941
O76   O     O_R   0.707305 0.296092 0.225383 -0.285699
N15   N     N_R   0.757169 0.692151 0.213659 0.257118
O77   O     O_R   0.709728 0.699577 0.219742 -0.259621
O78   O     O_R   0.769813 0.631053 0.236860 -0.255195
N16   N     N_R   0.243666 0.306890 0.784413 0.255969
O79   O     O_R   0.231619 0.368752 0.761952 -0.251714
O80   O     O_R   0.291357 0.297647 0.776783 -0.261191

loop_
_geom_bond_atom_site_label_1
_geom_bond_atom_site_label_2
_geom_bond_distance
_ccdc_geom_bond_type
C91   Cl24  1.768296 S    
C73   C137  1.490691 S    
O4    C4    1.259376 A    
O5    C5    1.257028 A    
C33   C53   1.404502 A    
O31   Zn4   2.075299 S    
C70   C78   1.409101 A    
C35   C55   1.413663 A    
C118  C126  1.427596 A    
C130  C138  1.403492 A    
C12   C37   1.452794 S    
O33   Zn11  1.995398 S    
C69   C133  1.492858 S    
N7    O61   1.302558 A    
O30   C6    1.301402 A    
N8    O63   1.302407 A    
C34   C52   1.410221 A    
C21   C23   1.420186 A    
C86   Cl25  1.768488 S    
C22   C24   1.419670 A    
C63   Cl15  1.771396 S    
O7    Zn7   2.022114 S    
C84   Cl36  1.767307 S    
C110  C118  1.382576 A    
C116  N8    1.439353 S    
C57   C65   1.401908 A    
O2    C2    1.258093 A    
C103  C111  1.386061 A    
C43   C48   1.393231 A    
C77   Cl29  1.767175 S    
O8    Zn8   2.022114 S    
O6    Zn6   2.021328 S    
C33   C41   1.416768 A    
O40   Zn9   1.991071 S    
C54   Cl6   1.765984 S    
C75   C83   1.409439 A    
C69   C77   1.409168 A    
O23   C15   1.309146 A    
C28   C61   1.421947 A    
C53   C61   1.404702 A    
C72   C80   1.408394 A    
C68   Cl20  1.762289 S    
C90   Cl21  1.767272 S    
O27   C3    1.298364 A    
C31   C59   1.412545 A    
C113  C121  1.382945 A    
C115  N7    1.439961 S    
C106  C114  1.393342 A    
C19   C51   1.419340 A    
O23   Zn7   2.024135 S    
O30   Zn1   2.075299 S    
N6    O60   1.300550 A    
C76   C140  1.495043 S    
N16   O79   1.301362 A    
O17   Zn1   2.029706 S    
C62   Cl14  1.763240 S    
C56   C64   1.400653 A    
C94   C134  1.400116 A    
C26   C63   1.415673 A    
N3    O54   1.300559 A    
C45   Cl1   1.779857 S    
C17   C21   1.424706 A    
O47   C145  1.266029 A    
O24   Zn8   2.024135 S    
O9    C9    1.251888 A    
C58   C66   1.402275 A    
N14   O76   1.301118 A    
O12   C12   1.265096 A    
C36   C56   1.404135 A    
N12   O72   1.301179 A    
C100  C140  1.402210 A    
C119  C127  1.432634 A    
O34   Zn12  1.995399 S    
C120  C128  1.427171 A    
C72   C91   1.411121 A    
C99   C139  1.401373 A    
C54   C62   1.394878 A    
C48   Cl4   1.781554 S    
O7    C7    1.260717 A    
C107  C142  1.453750 S    
O9    Zn6   2.115284 S    
O8    C8    1.263082 A    
C93   C133  1.401038 A    
C94   Cl38  1.781655 S    
O11   Zn8   2.111215 S    
C127  N11   1.434409 S    
O13   C13   1.270508 A    
C96   C136  1.400405 A    
C29   C37   1.432725 A    
O16   Zn3   2.111215 S    
O33   C141  1.225676 A    
C31   C39   1.426876 A    
C111  N3    1.439545 S    
O22   Zn6   2.029706 S    
C81   Cl33  1.767885 S    
O38   C146  1.228953 A    
O36   Zn11  1.991071 S    
C8    C124  1.463314 S    
O18   C10   1.303676 A    
N1    O49   1.302527 A    
C109  N1    1.440054 S    
C16   C41   1.468573 S    
C84   C92   1.408623 A    
C70   C89   1.412048 A    
C71   C79   1.408859 A    
O2    Zn2   2.021328 S    
C20   C27   1.418710 A    
O36   C144  1.227637 A    
N2    O52   1.300759 A    
O6    C6    1.257364 A    
C65   Cl17  1.772570 S    
C121  C129  1.427091 A    
O41   C143  1.265070 A    
C95   C103  1.423784 A    
C37   C45   1.395107 A    
C10   C39   1.454949 S    
N9    O65   1.301217 A    
C131  C139  1.405690 A    
C125  N9    1.439701 S    
C29   C49   1.396683 A    
C129  C137  1.402665 A    
O20   C12   1.288434 A    
C55   C63   1.395946 A    
O21   C13   1.281496 A    
C20   C52   1.427264 A    
O45   C147  1.264848 A    
C60   C68   1.388732 A    
O45   Zn9   2.004867 S    
O38   Zn10  1.995399 S    
O24   C16   1.298777 A    
C95   Cl39  1.777282 S    
N10   O67   1.301312 A    
C117  C125  1.427032 A    
C73   C86   1.410947 A    
C115  C123  1.383210 A    
C89   Cl22  1.766618 S    
O40   C148  1.229048 A    
C75   C88   1.412159 A    
C111  C119  1.391569 A    
C129  N13   1.437996 S    
O3    C3    1.259655 A    
O46   C148  1.264226 A    
N13   O73   1.301443 A    
N5    O58   1.301126 A    
C128  N12   1.437950 S    
C72   C136  1.492896 S    
O44   C142  1.265533 A    
O44   Zn11  2.010359 S    
C124  C132  1.428378 A    
C92   Cl23  1.768170 S    
C107  C115  1.393791 A    
C127  C135  1.402298 A    
C112  N4    1.439763 S    
C128  C136  1.403384 A    
C47   Cl3   1.778014 S    
C114  C122  1.382644 A    
C98   Cl42  1.780900 S    
O47   Zn10  2.010358 S    
N4    O55   1.302562 A    
C32   C40   1.427030 A    
C19   C25   1.427868 A    
C132  C140  1.404484 A    
C70   C134  1.492425 S    
C98   C106  1.429534 A    
C42   C48   1.376800 A    
N8    O64   1.301269 A    
O12   Zn7   2.111215 S    
C36   C51   1.404124 A    
O13   Zn2   2.115284 S    
C73   C81   1.407887 A    
C60   Cl12  1.768308 S    
N11   O69   1.301384 A    
C77   C85   1.407663 A    
C64   Cl16  1.772319 S    
C93   Cl37  1.781031 S    
C29   C57   1.407046 A    
C18   C22   1.424434 A    
O10   C10   1.251942 A    
C34   C54   1.413011 A    
C100  Cl44  1.780524 S    
C101  C148  1.451761 S    
C36   C44   1.432304 A    
C9    C40   1.455056 S    
O42   C144  1.265478 A    
O14   C14   1.257102 A    
C11   C38   1.452815 S    
C17   C49   1.420209 A    
C97   C105  1.429687 A    
C130  N14   1.438081 S    
C108  C141  1.457852 S    
C30   C38   1.432624 A    
O39   C147  1.228432 A    
C96   Cl40  1.780917 S    
O37   C145  1.227815 A    
O10   Zn5   2.115284 S    
C85   Cl26  1.768334 S    
C1    C117  1.463317 S    
C25   C27   1.428508 A    
C76   C87   1.412409 A    
C123  C131  1.427458 A    
C78   Cl30  1.767306 S    
C88   Cl27  1.766906 S    
C20   C26   1.410010 A    
O16   C16   1.267957 A    
N16   O80   1.301353 A    
C34   C42   1.433317 A    
C83   Cl35  1.767148 S    
O19   C11   1.288349 A    
C132  N16   1.439398 S    
C126  C134  1.404659 A    
C53   Cl5   1.763728 S    
O25   Zn6   2.075299 S    
C105  C144  1.451411 S    
N15   O78   1.301335 A    
N15   O77   1.301257 A    
O3    Zn3   2.022114 S    
O27   Zn8   2.075299 S    
C22   C67   1.405200 A    
C113  N5    1.439769 S    
O32   Zn3   2.075299 S    
C40   C45   1.378296 A    
C94   C102  1.429453 A    
C122  C130  1.426998 A    
O15   Zn4   2.111215 S    
C23   C66   1.430513 A    
C18   C50   1.420103 A    
C41   C47   1.373988 A    
C80   Cl32  1.767668 S    
O22   C14   1.291872 A    
C59   Cl11  1.768398 S    
C57   Cl9   1.761837 S    
C7    C123  1.464390 S    
O18   Zn2   2.029706 S    
C5    C121  1.461772 S    
C61   Cl13  1.776785 S    
C76   C84   1.409845 A    
C83   C91   1.408193 A    
C46   Cl2   1.779952 S    
C81   C89   1.406399 A    
C97   Cl41  1.782461 S    
C80   C88   1.407384 A    
C131  N15   1.439171 S    
C59   C67   1.388450 A    
C93   C101  1.429137 A    
C102  C110  1.393694 A    
C96   C104  1.430358 A    
C35   C43   1.438000 A    
O41   Zn11  2.004867 S    
O1    C1    1.258222 A    
C14   C43   1.451255 S    
N6    O59   1.302557 A    
O28   C4    1.302789 A    
C104  C112  1.393228 A    
O29   C5    1.301249 A    
C108  C116  1.390559 A    
C109  C117  1.382038 A    
C39   C46   1.378290 A    
C26   C28   1.422585 A    
C112  C120  1.383460 A    
N11   O70   1.301695 A    
C55   Cl7   1.760943 S    
O34   C142  1.228715 A    
C44   C47   1.398940 A    
O15   C15   1.251843 A    
C79   Cl31  1.767848 S    
C100  C108  1.430149 A    
C101  C109  1.393770 A    
C24   C65   1.430199 A    
C82   Cl34  1.767498 S    
C31   C50   1.406946 A    
C99   C107  1.430162 A    
C87   Cl28  1.768379 S    
O4    Zn4   2.022114 S    
C71   C135  1.492945 S    
O5    Zn5   2.021328 S    
N14   O75   1.301269 A    
N10   O68   1.301268 A    
C114  N6    1.439820 S    
N12   O71   1.301278 A    
O14   Zn1   2.115284 S    
C125  C133  1.405986 A    
O48   Zn9   2.010359 S    
C15   C42   1.461570 S    
C106  C143  1.451693 S    
C21   C68   1.405348 A    
O26   C2    1.301811 A    
C66   Cl18  1.772342 S    
O11   C11   1.265193 A    
N5    O57   1.302585 A    
C105  C113  1.393160 A    
C38   C46   1.395205 A    
O35   Zn12  1.991069 S    
C30   C50   1.396443 A    
C126  N10   1.438830 S    
O28   Zn7   2.075299 S    
O17   C9    1.303751 A    
O29   Zn2   2.075299 S    
O46   Zn10  2.004868 S    
O37   Zn9   1.995398 S    
C33   C51   1.408415 A    
N1    O50   1.300731 A    
C74   C85   1.410926 A    
N4    O56   1.300438 A    
C74   C138  1.491805 S    
O35   C143  1.228123 A    
C104  C145  1.453030 S    
C67   Cl19  1.762226 S    
C95   C135  1.397673 A    
C19   C28   1.421491 A    
C110  N2    1.440032 S    
N2    O51   1.302543 A    
C35   C52   1.400410 A    
C2    C118  1.463466 S    
O42   Zn12  2.004868 S    
N9    O66   1.301348 A    
C13   C44   1.455586 S    
O48   C146  1.270497 A    
N3    O53   1.302605 A    
C98   C138  1.400000 A    
O26   Zn5   2.075299 S    
C17   C24   1.414473 A    
C32   C60   1.412617 A    
C18   C23   1.414639 A    
N7    O62   1.300736 A    
C99   Cl43  1.780943 S    
O43   C141  1.270086 A    
C56   Cl8   1.763978 S    
C102  C147  1.451851 S    
C58   Cl10  1.762163 S    
O20   Zn4   2.024135 S    
O21   Zn5   2.029706 S    
C32   C49   1.406928 A    
O39   Zn10  1.991069 S    
N13   O74   1.301393 A    
O31   C7    1.303060 A    
O43   Zn12  2.010358 S    
O32   C8    1.300537 A    
C3    C119  1.460877 S    
C4    C120  1.462768 S    
C74   C82   1.408405 A    
O19   Zn3   2.024135 S    
C71   C92   1.410956 A    
C6    C122  1.462409 S    
C103  C146  1.454589 S    
C97   C137  1.399400 A    
C116  C124  1.386897 A    
O25   C1    1.301642 A    
C69   C90   1.411811 A    
C78   C86   1.407299 A    
C25   C64   1.430947 A    
O1    Zn1   2.021328 S    
C82   C90   1.407177 A    
C75   C139  1.494348 S    
C30   C58   1.406829 A    
C27   C62   1.408822 A    
C79   C87   1.407300 A    
