data_mof_unit_22394.cif
_audit_creation_date              2012-10-26T18:29:01-0400
_audit_creation_method            fapswitch 2.2
_symmetry_space_group_name_H-M    P1
_symmetry_Int_Tables_number       1
_space_group_crystal_system       triclinic
_cell_length_a                    11.743625
_cell_length_b                    13.077572
_cell_length_c                    15.908268
_cell_angle_alpha                 93.909183
_cell_angle_beta                  74.299837
_cell_angle_gamma                 99.663579
_cell_volume                      2317.96913066

loop_
_atom_site_label
_atom_site_type_symbol
_atom_type_description
_atom_site_fract_x
_atom_site_fract_y
_atom_site_fract_z
_atom_type_partial_charge
C1    C     C_R   0.522787 0.700605 0.495651 0.556884
C2    C     C_R   0.344606 0.018374 0.533263 -0.127530
C3    C     C_R   0.652475 0.873076 0.452017 0.199631
C4    C     C_R   0.352491 0.125364 0.527381 0.204693
C5    C     C_R   0.434381 0.862455 0.501030 0.214388
C6    C     C_R   0.565496 0.135806 0.455852 0.233229
C7    C     C_R   0.446024 0.970171 0.502566 -0.054231
C8    C     C_R   0.558164 0.029304 0.467257 -0.047955
C9    C     C_R   0.948014 0.611233 0.567769 -0.197531
C10   C     C_R   0.050122 0.383725 0.438627 -0.199325
C11   C     C_R   0.827341 0.600487 0.563519 0.395687
C12   C     C_R   0.479666 0.299315 0.496629 0.569649
C13   C     C_R   0.172827 0.400812 0.436097 0.358590
C14   C     C_R   0.854974 0.448117 0.473749 0.386679
C15   C     C_R   0.143358 0.547661 0.531974 0.382557
C16   C     C_R   0.426602 0.490514 0.668219 0.558564
C17   C     C_R   0.573215 0.511383 0.332093 0.532086
C18   C     C_R   0.975537 0.456252 0.479436 -0.088251
C19   C     C_R   0.022564 0.539361 0.526543 -0.091837
C20   C     C_R   0.381115 0.470436 0.763959 -0.035171
C21   C     C_R   0.615873 0.522301 0.235429 -0.053498
C22   C     C_R   0.218347 0.416507 0.893482 0.258828
C23   C     C_R   0.344417 0.473755 0.087139 -0.121484
C24   C     C_R   0.769609 0.517504 0.098377 0.279113
C25   C     C_R   0.258938 0.432022 0.802461 0.182628
C26   C     C_R   0.737513 0.529548 0.189485 0.188223
C27   C     C_R   0.462442 0.484228 0.816495 0.194176
C28   C     C_R   0.532030 0.527579 0.187583 0.202102
C29   C     C_R   0.423237 0.458734 0.905983 -0.070780
C30   C     C_R   0.557916 0.499030 0.097084 -0.069108
C31   C     C_R   0.299494 0.441207 0.946287 -0.028615
C32   C     C_R   0.679477 0.490514 0.053065 -0.043963
C33   C     C_R   0.505373 0.461411 0.957488 -0.018419
C34   C     C_R   0.621365 0.440217 0.919386 -0.093133
C35   C     C_R   0.468798 0.479396 0.048671 -0.016024
C36   C     C_3   0.093376 0.405358 0.154207 -0.110815
C37   C     C_3   0.870643 0.466881 0.841588 -0.112296
C38   C     C_3   0.243158 0.312275 0.306889 -0.010316
C39   C     C_3   0.352292 0.264766 0.256588 -0.359199
C40   C     C_3   0.806538 0.767715 0.624826 -0.006246
C41   C     C_3   0.715211 0.841847 0.654301 -0.349973
C42   C     C_3   0.449442 0.674927 0.214960 -0.142737
C43   C     C_3   0.586868 0.638213 0.807127 -0.087651
C44   C     C_3   0.850776 0.652790 0.255366 0.017611
C45   C     C_R   0.259586 0.452062 0.037864 0.248915
C46   C     C_3   0.984272 0.683030 0.246910 -0.374333
C47   C     C_3   0.128030 0.321243 0.740362 0.006690
C48   C     C_3   0.073652 0.314389 0.663518 -0.340985
C49   C     C_3   0.081839 0.278416 0.955798 0.021968
C50   C     C_3   0.948678 0.239325 0.990877 -0.335810
C51   C     C_3   0.925021 0.628877 0.018227 0.039589
C52   C     C_3   0.057622 0.644221 0.970773 -0.327229
C53   C     C_3   0.631258 0.180950 0.312715 -0.000245
C54   C     C_3   0.727772 0.138192 0.241171 -0.397182
C55   C     C_3   0.297099 0.790221 0.426891 0.041499
C56   C     C_R   0.709599 0.456642 0.964833 0.263209
C57   C     C_3   0.176607 0.821548 0.431063 -0.401591
C58   C     C_3   0.166649 0.127487 0.507173 -0.107866
C59   C     C_3   0.863182 0.885076 0.411880 -0.159381
C60   C     C_3   0.140702 0.618770 0.670161 -0.066293
C61   C     C_3   0.861558 0.379414 0.336531 -0.050775
C62   C     C_R   0.465787 0.185587 0.494530 0.017747
C63   C     C_R   0.537435 0.813811 0.483796 -0.001144
C64   C     C_R   0.660060 0.980698 0.440238 -0.132736
Cu1   Cu    Cu3+1 0.386820 0.492450 0.493500 1.075924
Cu2   Cu    Cu3+1 0.613180 0.507550 0.506500 1.091903
H1    H     H_    0.984151 0.675455 0.603315 0.109975
H2    H     H_    0.847922 0.544422 0.833561 0.092039
H3    H     H_    0.841754 0.409530 0.793826 0.111485
H4    H     H_    0.969158 0.475592 0.826729 0.193001
H5    H     H_    0.244319 0.385570 0.275154 0.139691
H6    H     H_    0.162023 0.256515 0.303121 0.087828
H7    H     H_    0.351556 0.189247 0.284862 0.124928
H8    H     H_    0.351256 0.252000 0.187045 0.087560
H9    H     H_    0.435551 0.317453 0.259950 0.163782
H10   H     H_    0.872882 0.798022 0.564215 0.129186
H11   H     H_    0.851844 0.767924 0.677825 0.089374
H12   H     H_    0.013918 0.313128 0.409693 0.126612
H13   H     H_    0.672376 0.835718 0.725361 0.092411
H14   H     H_    0.760488 0.923045 0.641430 0.094255
H15   H     H_    0.644515 0.824315 0.619297 0.188763
H16   H     H_    0.478683 0.691967 0.143998 0.111933
H17   H     H_    0.516082 0.716329 0.248694 0.105032
H18   H     H_    0.363992 0.705356 0.242329 0.116620
H19   H     H_    0.552967 0.650945 0.878857 0.089337
H20   H     H_    0.537861 0.678555 0.772072 0.130016
H21   H     H_    0.682506 0.673380 0.789498 0.146366
H22   H     H_    0.802038 0.665129 0.324408 0.211265
H23   H     H_    0.308917 0.482806 0.155645 0.177411
H24   H     H_    0.823603 0.705973 0.214987 0.091889
H25   H     H_    0.036385 0.662477 0.180425 0.184443
H26   H     H_    0.006020 0.767881 0.258091 0.077930
H27   H     H_    0.010655 0.641678 0.295677 0.134807
H28   H     H_    0.053239 0.294904 0.797287 0.164837
H29   H     H_    0.196542 0.268362 0.727000 0.147733
H30   H     H_    0.145318 0.335278 0.603377 0.221926
H31   H     H_    0.027494 0.234203 0.656644 0.102510
H32   H     H_    0.007167 0.368024 0.673409 0.115813
H33   H     H_    0.126379 0.270858 0.007805 0.133864
H34   H     H_    0.642478 0.406762 0.854060 0.162929
H35   H     H_    0.119224 0.227048 0.899972 0.069536
H36   H     H_    0.902321 0.239603 0.938651 0.170867
H37   H     H_    0.935259 0.158885 0.014035 0.055576
H38   H     H_    0.908733 0.289817 0.046253 0.199292
H39   H     H_    0.910470 0.690893 0.069471 0.089869
H40   H     H_    0.874072 0.638824 0.970472 0.107659
H41   H     H_    0.075899 0.585294 0.917436 0.198633
H42   H     H_    0.084698 0.722429 0.941986 0.046396
H43   H     H_    0.111758 0.637774 0.016968 0.187333
H44   H     H_    0.624215 0.260111 0.295672 0.128799
H45   H     H_    0.744907 0.028225 0.412174 0.156242
H46   H     H_    0.543875 0.131527 0.312097 0.096087
H47   H     H_    0.732644 0.057455 0.255756 0.140467
H48   H     H_    0.705742 0.137879 0.177513 0.093432
H49   H     H_    0.816362 0.186462 0.235617 0.133862
H50   H     H_    0.292252 0.706520 0.408493 0.189107
H51   H     H_    0.365765 0.833444 0.372661 0.077920
H52   H     H_    0.149564 0.794215 0.370647 0.080567
H53   H     H_    0.107314 0.786840 0.488187 0.166428
H54   H     H_    0.182912 0.907134 0.436217 0.113108
H55   H     H_    0.111043 0.056349 0.539266 0.083771
H56   H     H_    0.258588 0.973150 0.562843 0.167188
H57   H     H_    0.209823 0.110575 0.437189 0.123467
H58   H     H_    0.105124 0.183180 0.507611 0.147370
H59   H     H_    0.868643 0.942008 0.466462 0.106250
H60   H     H_    0.883456 0.923917 0.348361 0.105933
H61   H     H_    0.933133 0.835998 0.406766 0.126419
H62   H     H_    0.212155 0.615343 0.702737 0.178689
H63   H     H_    0.069363 0.550698 0.689216 0.103537
H64   H     H_    0.102509 0.690065 0.696338 0.086640
H65   H     H_    0.790839 0.374968 0.302153 0.190925
H66   H     H_    0.911122 0.314054 0.311235 0.074082
H67   H     H_    0.106393 0.457646 0.209879 0.102488
H68   H     H_    0.923970 0.453432 0.318978 0.118282
H69   H     H_    0.132338 0.333287 0.154029 0.054314
H70   H     H_    0.995858 0.381775 0.163142 0.166026
N1    N     N_R   0.216750 0.481110 0.483710 -0.216286
N2    N     N_R   0.783250 0.518890 0.516290 -0.206182
O1    O     O_R   0.419950 0.645670 0.495380 -0.450572
O2    O     O_3   0.822528 0.429937 0.927334 -0.520757
O3    O     O_3   0.247331 0.330575 0.394513 -0.513131
O4    O     O_3   0.748690 0.666320 0.610354 -0.494404
O5    O     O_3   0.429142 0.567489 0.229696 -0.569023
O6    O     O_3   0.578923 0.532188 0.782206 -0.541885
O7    O     O_3   0.827508 0.546554 0.231865 -0.563103
O8    O     O_3   0.176934 0.425412 0.753228 -0.575545
O9    O     O_3   0.097695 0.382727 0.930162 -0.468911
O10   O     O_3   0.890375 0.529192 0.055037 -0.434001
O11   O     O_3   0.661443 0.186226 0.393954 -0.519556
O12   O     O_R   0.580050 0.354330 0.504620 -0.450374
O13   O     O_3   0.321374 0.805447 0.510190 -0.508567
O14   O     O_3   0.250326 0.171766 0.554169 -0.562503
O15   O     O_3   0.751056 0.820264 0.428325 -0.566868
O16   O     O_3   0.192266 0.627956 0.579191 -0.497363
O17   O     O_3   0.807417 0.367500 0.426766 -0.496942
O18   O     O_R   0.611110 0.658410 0.506370 -0.439088
O19   O     O_R   0.388890 0.341590 0.493630 -0.435336
O20   O     O_R   0.350820 0.490050 0.621260 -0.471743
O21   O     O_R   0.649180 0.509950 0.378740 -0.498290
O22   O     O_R   0.541970 0.502800 0.632250 -0.432498
O23   O     O_R   0.458030 0.497200 0.367750 -0.447215
O24   O     O_3   0.139440 0.459153 0.075391 -0.505079

loop_
_geom_bond_atom_site_label_1
_geom_bond_atom_site_label_2
_ccdc_geom_bond_type
C53   H44   S    
C53   O11   S    
C21   C26   A    
C37   H2    S    
C50   H38   S    
C23   C45   A    
C40   O4    S    
C14   O17   S    
C16   O22   A    
C14   C18   A    
C2    C4    A    
C2    C7    A    
C42   H16   S    
C36   H67   S    
C41   H14   S    
Cu2   O22   S    
C59   O15   S    
C7    C8    A    
C53   C54   S    
C59   H60   S    
C34   C56   A    
C48   H31   S    
C5    C63   A    
C58   H57   S    
C30   C35   A    
C52   H43   S    
C11   N2    A    
C24   C26   A    
Cu2   O12   S    
C37   H3    S    
C49   H35   S    
C38   C39   S    
C56   O2    S    
C27   C29   A    
C55   H50   S    
C59   H61   S    
C54   H47   S    
C29   C33   A    
C3    O15   S    
C49   O9    S    
C18   C19   A    
C39   H8    S    
C49   C50   S    
C15   O16   S    
C61   H66   S    
C6    O11   S    
C9    C19   A    
C14   N2    A    
C52   H41   S    
C58   O14   S    
C37   O2    S    
C34   H34   S    
C23   H23   S    
C25   O8    S    
C13   O3    S    
C12   O19   A    
C30   C32   A    
C1    O1    A    
C51   H39   S    
C57   H53   S    
Cu1   N1    S    
C47   O8    S    
C50   H37   S    
C37   H4    S    
C36   O24   S    
C43   O6    S    
C1    C63   S    
Cu2   O21   S    
C44   C46   S    
C61   H68   S    
C27   O6    S    
C2    H56   S    
C10   H12   S    
C4    O14   S    
C38   H6    S    
C22   C31   A    
C16   O20   A    
C51   C52   S    
C43   H19   S    
C12   O12   A    
C60   H62   S    
C42   H18   S    
Cu1   O19   S    
C24   O10   S    
C60   H64   S    
C5    C7    A    
C64   H45   S    
C6    C8    A    
C46   H25   S    
C3    C64   A    
C22   C25   A    
C17   C21   S    
C40   H10   S    
C13   N1    A    
C1    O18   A    
C15   C19   A    
C45   O24   S    
C24   C32   A    
C49   H33   S    
C12   C62   S    
C47   C48   S    
Cu2   N2    S    
C16   C20   S    
C41   H15   S    
C54   H49   S    
C44   O7    S    
C28   O5    S    
C9    C11   A    
C17   O23   A    
C8    C64   A    
C57   H54   S    
C53   H46   S    
C40   C41   S    
C21   C28   A    
C50   H36   S    
C39   H9    S    
C55   C57   S    
C31   C45   A    
C38   O3    S    
C36   H69   S    
C44   H24   S    
C55   H51   S    
C38   H5    S    
C58   H55   S    
C48   H30   S    
C43   H20   S    
C58   H58   S    
C42   H17   S    
C26   O7    S    
Cu1   O20   S    
C10   C13   A    
C60   H63   S    
C41   H13   S    
C55   O13   S    
C20   C27   A    
C3    C63   A    
C59   H59   S    
C48   H32   S    
C23   C35   A    
C5    O13   S    
C36   H70   S    
C4    C62   A    
C43   H21   S    
C6    C62   A    
C28   C30   A    
C29   C31   A    
C44   H22   S    
C61   O17   S    
Cu2   O18   S    
C46   H27   S    
C51   O10   S    
C10   C18   A    
C51   H40   S    
C54   H48   S    
C33   C35   A    
C47   H28   S    
C33   C34   A    
C39   H7    S    
C17   O21   A    
C11   O4    S    
C60   O16   S    
C61   H65   S    
Cu1   O1    S    
C46   H26   S    
C22   O9    S    
C52   H42   S    
Cu1   Cu2   S    
C20   C25   A    
Cu1   O23   S    
C42   O5    S    
C47   H29   S    
C40   H11   S    
C9    H1    S    
C32   C56   A    
C57   H52   S    
C15   N1    A    
