data_mof_unit_33064.cif
_audit_creation_date              2012-10-26T20:16:51-0400
_audit_creation_method            fapswitch 2.2
_symmetry_space_group_name_H-M    P1
_symmetry_Int_Tables_number       1
_space_group_crystal_system       triclinic
_cell_length_a                    10.883419
_cell_length_b                    10.87865
_cell_length_c                    10.403732
_cell_angle_alpha                 91.461007
_cell_angle_beta                  91.115837
_cell_angle_gamma                 90.24482
_cell_volume                      1231.12171817

loop_
_atom_site_label
_atom_site_type_symbol
_atom_type_description
_atom_site_fract_x
_atom_site_fract_y
_atom_site_fract_z
_atom_type_partial_charge
C1    C     C_R   0.500833 0.261367 0.498127 0.548420
C2    C     C_R   0.543220 0.858299 0.827638 -0.060879
C3    C     C_R   0.552466 0.109101 0.256551 0.041869
C4    C     C_R   0.447238 0.890886 0.743367 0.041894
C5    C     C_R   0.673981 0.110690 0.213691 -0.098538
C6    C     C_R   0.325647 0.889083 0.785987 -0.098402
C7    C     C_R   0.699175 0.145744 0.088168 -0.002372
C8    C     C_R   0.300299 0.854017 0.911468 -0.002447
C9    C     C_R   0.602915 0.179865 0.005402 -0.114049
C10   C     C_R   0.396481 0.820082 0.994426 -0.114165
C11   C     C_R   0.524409 0.930249 0.389529 -0.154017
C12   C     C_R   0.499126 0.738632 0.501868 0.548378
C13   C     C_R   0.475455 0.069750 0.610443 -0.153990
C14   C     C_R   0.499736 0.872096 0.504781 -0.004239
C15   C     C_R   0.500151 0.127903 0.495196 -0.004222
C16   C     C_R   0.261371 0.498246 0.498418 0.547991
C17   C     C_R   0.738629 0.501747 0.501582 0.548001
C18   C     C_R   0.475122 0.942843 0.617131 -0.034355
C19   C     C_R   0.524711 0.057155 0.382829 -0.034352
C20   C     C_1   0.500021 0.500022 0.071879 0.091284
C21   C     C_1   0.499985 0.499981 0.928121 0.091256
C22   C     C_R   0.167751 0.521343 0.042516 -0.101048
C23   C     C_R   0.872101 0.502079 0.504035 -0.005536
C24   C     C_R   0.833048 0.478452 0.957762 -0.101134
C25   C     C_R   0.127570 0.548076 0.167027 -0.069138
C26   C     C_R   0.873188 0.451785 0.833222 -0.069651
C27   C     C_R   0.111005 0.452881 0.253817 0.051723
C28   C     C_R   0.888997 0.546940 0.746223 0.051744
C29   C     C_R   0.134096 0.330977 0.214439 -0.070546
C30   C     C_R   0.865190 0.668748 0.785419 -0.069778
C31   C     C_R   0.173281 0.304696 0.089563 -0.096340
C32   C     C_R   0.826067 0.694971 0.910331 -0.095765
C33   C     C_R   0.190279 0.399746 0.003730 -0.107063
C34   C     C_R   0.127899 0.497906 0.495968 -0.005546
C35   C     C_R   0.809815 0.599955 0.996370 -0.106841
C36   C     C_R   0.930911 0.481722 0.386966 -0.151626
C37   C     C_R   0.069089 0.518239 0.613041 -0.151638
C38   C     C_1   0.823293 0.142820 0.042957 0.160910
C39   C     C_1   0.176095 0.856737 0.956441 0.160919
C40   C     C_R   0.942171 0.520742 0.618797 -0.036727
C41   C     C_R   0.057828 0.479202 0.381214 -0.036720
C42   C     C_R   0.481830 0.177801 0.047569 -0.115964
C43   C     C_R   0.517639 0.822355 0.952494 -0.115964
C44   C     C_R   0.456400 0.141885 0.172469 -0.060743
Cu1   Cu    Cu3+1 0.500000 0.500000 0.625300 0.978033
Cu2   Cu    Cu3+1 0.500000 0.500000 0.374700 0.978010
H1    H     H_    0.220347 0.379154 0.907005 0.115048
H2    H     H_    0.893328 0.357592 0.805055 0.123339
H3    H     H_    0.119449 0.256404 0.279524 0.106138
H4    H     H_    0.879263 0.743307 0.720173 0.106011
H5    H     H_    0.189045 0.210410 0.058824 0.124022
H6    H     H_    0.809824 0.789200 0.940956 0.123659
H7    H     H_    0.877892 0.466034 0.298593 0.137963
H8    H     H_    0.122109 0.533912 0.701416 0.138068
H9    H     H_    0.621295 0.206644 0.907986 0.118512
H10   H     H_    0.377979 0.793288 0.091810 0.118343
H11   H     H_    0.407691 0.202483 0.982586 0.105328
H12   H     H_    0.779803 0.620510 0.093124 0.115101
H13   H     H_    0.591713 0.797819 0.017625 0.105279
H14   H     H_    0.362082 0.137406 0.203234 0.106912
H15   H     H_    0.637584 0.862957 0.797051 0.106780
H16   H     H_    0.748150 0.081871 0.276999 0.108868
H17   H     H_    0.251534 0.917752 0.722526 0.108869
H18   H     H_    0.544018 0.876630 0.302994 0.134796
H19   H     H_    0.455836 0.123369 0.696975 0.134774
H20   H     H_    0.180211 0.594488 0.975485 0.125485
H21   H     H_    0.821201 0.405337 0.024961 0.125685
H22   H     H_    0.108004 0.642360 0.195339 0.123088
N1    N     N_1   0.500010 0.499990 0.186410 -0.194904
N2    N     N_1   0.499990 0.500010 0.813590 -0.194917
N3    N     N_1   0.922985 0.140294 0.006360 -0.313410
N4    N     N_1   0.076335 0.859098 0.992851 -0.313117
O1    O     O_R   0.499990 0.319650 0.605810 -0.512450
O2    O     O_R   0.500010 0.680350 0.394190 -0.512486
O3    O     O_R   0.499990 0.319640 0.394190 -0.486258
O4    O     O_R   0.500010 0.680360 0.605810 -0.486283
O5    O     O_R   0.319640 0.500010 0.605810 -0.510442
O6    O     O_R   0.680360 0.499990 0.394190 -0.510423
O7    O     O_R   0.319650 0.500010 0.394190 -0.487030
O8    O     O_R   0.680350 0.499990 0.605810 -0.486984

loop_
_geom_bond_atom_site_label_1
_geom_bond_atom_site_label_2
_ccdc_geom_bond_type
C12   O2    A    
C27   C29   A    
C34   C37   A    
C14   C18   A    
C29   H3    S    
Cu1   Cu2   S    
C15   C19   A    
C25   H22   S    
C11   C19   A    
C9    C42   A    
C17   C23   S    
C13   C18   A    
Cu1   O4    S    
C24   C26   A    
C37   C40   A    
Cu2   O7    S    
C11   C14   A    
C28   C40   S    
C23   C40   A    
Cu1   O1    S    
C16   O5    A    
C22   H20   S    
Cu2   N1    S    
C35   H12   S    
C36   H7    S    
C24   H21   S    
C16   C34   S    
C32   H6    S    
C22   C25   A    
C39   N4    T    
C31   C33   A    
C3    C19   S    
C1    C15   S    
C8    C39   S    
C10   H10   S    
C2    H15   S    
C43   H13   S    
C4    C18   S    
C30   H4    S    
C36   C41   A    
C34   C41   A    
C42   C44   A    
C42   H11   S    
Cu2   O3    S    
C3    C44   A    
C24   C35   A    
Cu1   N2    S    
C1    O3    A    
C32   C35   A    
C4    C6    A    
C11   H18   S    
C5    C7    A    
C6    C8    A    
C17   O8    A    
C6    H17   S    
C2    C4    A    
C27   C41   S    
C2    C43   A    
C9    H9    S    
C37   H8    S    
C12   C14   S    
C13   C15   A    
C12   O4    A    
C33   H1    S    
C20   N1    T    
Cu2   O2    S    
Cu2   O6    S    
C7    C9    A    
C22   C33   A    
C38   N3    T    
C10   C43   A    
C31   H5    S    
C3    C5    A    
C26   H2    S    
C25   C27   A    
C26   C28   A    
C21   N2    T    
C16   O7    A    
C1    O1    A    
C28   C30   A    
C29   C31   A    
C30   C32   A    
C44   H14   S    
C17   O6    A    
C7    C38   S    
C5    H16   S    
Cu1   O8    S    
C13   H19   S    
C20   C21   S    
C8    C10   A    
C23   C36   A    
Cu1   O5    S    
