data_mof_unit_47937.cif
_audit_creation_date              2012-12-10T17:48:44-0500
_audit_creation_method            fapswitch 2.2
_symmetry_space_group_name_H-M    P1
_symmetry_Int_Tables_number       1
_space_group_crystal_system       triclinic
_cell_length_a                    15.806033
_cell_length_b                    10.712751
_cell_length_c                    9.938862
_cell_angle_alpha                 88.188744
_cell_angle_beta                  91.497924
_cell_angle_gamma                 95.014972
_cell_volume                      1675.16679342

loop_
_atom_site_label
_atom_site_type_symbol
_atom_type_description
_atom_site_fract_x
_atom_site_fract_y
_atom_site_fract_z
_atom_type_partial_charge
C1    C     C_R   0.503191 0.260331 0.504915 0.884072
C2    C     C_3   0.959470 0.522970 0.643514 -0.129657
C3    C     C_3   0.919300 0.501393 0.494708 -0.151396
C4    C     C_3   0.960585 0.609495 0.392140 0.783417
C5    C     C_3   0.058229 0.583958 0.370753 0.769432
C6    C     C_1   0.826867 0.505481 0.497934 0.157976
C7    C     C_1   0.174833 0.480908 0.489348 0.038205
C8    C     C_1   0.250019 0.486378 0.494325 -0.154658
C9    C     C_R   0.610539 0.112062 0.711720 0.307960
C10   C     C_R   0.670032 0.035559 0.774779 0.346017
C11   C     C_R   0.702007 0.942005 0.700525 0.401527
C12   C     C_R   0.338617 0.496160 0.498524 0.899331
C13   C     C_R   0.652794 0.894516 0.591344 -0.158439
C14   C     C_R   0.574609 0.943958 0.556873 -0.117142
C15   C     C_R   0.562259 0.065074 0.596108 -0.076037
C16   C     C_R   0.498482 0.126263 0.521585 -0.181130
C17   C     C_R   0.428766 0.056455 0.461619 -0.145884
C18   C     C_R   0.435007 0.929538 0.440805 0.487439
C19   C     C_R   0.507011 0.874361 0.490205 -0.152868
C20   C     C_R   0.380484 0.338881 0.138033 -0.332618
C21   C     C_R   0.322396 0.256946 0.067420 -0.143285
C22   C     C_R   0.329109 0.248833 0.927668 0.523576
C23   C     C_R   0.501799 0.740105 0.497383 0.992239
C24   C     C_R   0.387783 0.330946 0.859620 -0.207775
C25   C     C_R   0.443785 0.417487 0.927765 0.103017
C26   C     C_R   0.441851 0.419898 0.071560 0.075810
C27   C     C_R   0.558639 0.572242 0.073058 0.533250
C28   C     C_R   0.554992 0.579214 0.928926 -0.172586
C29   C     C_R   0.661746 0.498884 0.501051 0.872002
C30   C     C_3   0.059592 0.529783 0.629336 -0.357224
C31   C     C_3   0.036737 0.347796 0.464919 0.340483
C32   C     C_3   0.937634 0.365246 0.440617 -0.241716
C33   C     C_1   0.751284 0.502466 0.501365 -0.168422
C34   C     C_3   0.083327 0.484737 0.485553 -0.124565
H1    H     H_    0.085606 0.462772 0.704179 0.223657
H2    H     H_    0.376945 0.336621 0.245059 0.207278
H3    H     H_    0.387264 0.324904 0.752820 0.205485
N1    N     N_R   0.499210 0.498800 0.142780 -0.161392
N2    N     N_R   0.499180 0.498720 0.857170 -0.166081
O1    O     O_R   0.500000 0.316780 0.614690 -0.581454
O2    O     O_R   0.499990 0.316750 0.385360 -0.646995
O3    O     O_R   0.377150 0.500020 0.614720 -0.609122
O4    O     O_R   0.377140 0.499990 0.385380 -0.648524
O5    O     O_R   0.500010 0.683250 0.614640 -0.660254
O6    O     O_R   0.500000 0.683220 0.385310 -0.547760
O7    O     O_R   0.622860 0.500010 0.614620 -0.662559
O8    O     O_R   0.622850 0.499980 0.385280 -0.563805
Zn1   Zn    Zn3+2 0.500010 0.500020 0.653130 0.946771
Zn2   Zn    Zn3+2 0.499990 0.499980 0.346870 0.990418
C35   C     C_2   0.931786 0.415413 0.742988 0.420897
H4    H     H_    0.976919 0.355456 0.788994 0.119672
O9    O     O_2   0.857930 0.395869 0.776606 -0.602581
C36   C     C_2   0.107820 0.653780 0.667844 0.451856
H5    H     H_    0.093049 0.741666 0.619777 0.157371
O10   O     O_2   0.163345 0.656317 0.755817 -0.584528
C37   C     C_2   0.929174 0.639470 0.708985 0.504126
H6    H     H_    0.972130 0.717672 0.740375 0.029948
O11   O     O_2   0.854183 0.645877 0.732390 -0.540179
O12   O     O_3   0.910714 0.601231 0.268684 -0.655295
C38   C     C_3   0.931987 0.690953 0.164863 -0.237468
H7    H     H_    0.953202 0.785175 0.200239 0.161546
H8    H     H_    0.874067 0.702606 0.102161 0.188841
H9    H     H_    0.978280 0.656373 0.096338 0.206328
C39   C     C_2   0.346000 0.112116 0.441669 0.375794
H10   H     H_    0.342520 0.212437 0.446453 0.002007
O13   O     O_2   0.279535 0.046001 0.428374 -0.551242
O14   O     O_3   0.588966 0.215955 0.778324 -0.607809
C40   C     C_3   0.662030 0.299411 0.801816 -0.107010
H11   H     H_    0.701767 0.313787 0.711026 0.162258
H12   H     H_    0.700990 0.269653 0.889097 0.200794
H13   H     H_    0.641685 0.390676 0.830055 0.178848
O15   O     O_3   0.698237 0.050597 0.907221 -0.608226
C41   C     C_3   0.629282 0.033107 0.996082 -0.084610
H14   H     H_    0.574920 0.969519 0.957758 0.146840
H15   H     H_    0.606358 0.124696 0.019835 0.152770
H16   H     H_    0.652143 0.990595 0.092051 0.215416
O16   O     O_3   0.772971 0.881927 0.743553 -0.580787
C42   C     C_3   0.842161 0.968293 0.779182 -0.099853
H17   H     H_    0.844790 0.979761 0.889830 0.212206
H18   H     H_    0.840937 0.061407 0.726485 0.147808
H19   H     H_    0.901912 0.929354 0.751821 0.156393
C43   C     C_2   0.686775 0.798838 0.510275 0.376364
H20   H     H_    0.727444 0.734205 0.558375 0.104337
O17   O     O_2   0.672700 0.795216 0.389016 -0.552252
O18   O     O_3   0.368441 0.856039 0.381925 -0.570422
C44   C     C_3   0.374703 0.869453 0.240686 -0.215873
H21   H     H_    0.323880 0.806196 0.193391 0.181317
H22   H     H_    0.436675 0.842159 0.205762 0.157813
H23   H     H_    0.365305 0.966852 0.205050 0.164020
O19   O     O_3   0.622821 0.638400 0.144700 -0.536021
C45   C     C_3   0.697970 0.576611 0.135695 -0.079338
H24   H     H_    0.728166 0.595341 0.036735 0.164757
H25   H     H_    0.687009 0.473319 0.154149 0.148884
H26   H     H_    0.743737 0.613390 0.214036 0.216556
C46   C     C_2   0.254559 0.182948 0.142555 0.460379
H27   H     H_    0.243569 0.205408 0.245449 0.061191
O20   O     O_2   0.209937 0.097575 0.091388 -0.517817
O21   O     O_3   0.273474 0.168240 0.855121 -0.601349
C47   C     C_3   0.316946 0.065818 0.817075 -0.233194
H28   H     H_    0.271736 0.999777 0.761602 0.219180
H29   H     H_    0.341350 0.014128 0.906903 0.161789
H30   H     H_    0.369830 0.096005 0.748465 0.149897
C48   C     C_2   0.611856 0.674558 0.857759 0.454166
H31   H     H_    0.624249 0.668429 0.753076 0.130297
O22   O     O_2   0.646023 0.764037 0.916886 -0.538050
C49   C     C_2   0.072653 0.279409 0.348075 0.389663
H32   H     H_    0.132664 0.312951 0.305806 0.038971
O23   O     O_2   0.038041 0.180049 0.309424 -0.539057
O24   O     O_3   0.044610 0.275386 0.588709 -0.636293
C50   C     C_3   0.114850 0.201891 0.602672 -0.157960
H33   H     H_    0.125074 0.179624 0.711223 0.216782
H34   H     H_    0.174759 0.249991 0.564973 0.134109
H35   H     H_    0.100467 0.111492 0.551674 0.219717
C51   C     C_2   0.884433 0.255784 0.510084 0.608574
H36   H     H_    0.830145 0.271011 0.569599 0.038558
O25   O     O_2   0.898263 0.147379 0.490751 -0.557114
C52   C     C_2   0.908015 0.354517 0.292196 0.542812
H37   H     H_    0.952311 0.364872 0.210608 0.139882
O26   O     O_2   0.832441 0.339760 0.261418 -0.588984
O27   O     O_3   0.115381 0.694871 0.390202 -0.641238
C53   C     C_3   0.110833 0.795745 0.295834 -0.130413
H38   H     H_    0.068169 0.864081 0.330917 0.214449
H39   H     H_    0.093955 0.767963 0.192289 0.134946
H40   H     H_    0.174844 0.846776 0.290935 0.229602
O28   O     O_3   0.065955 0.532102 0.240574 -0.700490
C54   C     C_3   0.147915 0.546297 0.183233 -0.319539
H41   H     H_    0.200466 0.582663 0.250924 0.209775
H42   H     H_    0.146354 0.609120 0.092547 0.202015
H43   H     H_    0.163740 0.455089 0.145876 0.174613
O29   O     O_3   0.960977 0.729996 0.450820 -0.691582
C55   C     C_3   0.885247 0.790684 0.435230 -0.217523
H44   H     H_    0.867032 0.820384 0.535013 0.210854
H45   H     H_    0.831105 0.733703 0.389029 0.197055
H46   H     H_    0.897669 0.878214 0.373718 0.213045

loop_
_geom_bond_atom_site_label_1
_geom_bond_atom_site_label_2
_ccdc_geom_bond_type
C54   H41   S    
C23   O6    A    
C41   H14   S    
C46   H27   S    
C42   H19   S    
C32   C52   S    
C3    C6    S    
C51   H36   S    
C7    C8    T    
O8    Zn2   S    
N1    Zn2   S    
O16   C42   S    
C20   C26   A    
C30   H1    S    
C29   O8    A    
C38   H9    S    
C22   O21   S    
C12   O4    A    
C52   O26   D    
C17   C39   S    
C42   H18   S    
C49   H32   S    
C27   N1    A    
C15   C16   A    
C29   C33   S    
C37   H6    S    
C27   O19   S    
C38   H8    S    
C18   C19   A    
C50   H33   S    
C53   H40   S    
C12   O3    A    
C31   C49   S    
C2    C35   S    
C1    O1    A    
C40   H11   S    
C47   H28   S    
C16   C17   A    
C35   O9    D    
C13   C14   A    
C11   O16   S    
C9    C10   A    
C55   H46   S    
O12   C38   S    
C21   C22   A    
C41   H15   S    
O2    Zn2   S    
C24   H3    S    
C36   O10   D    
C30   C36   S    
O7    Zn1   S    
C18   O18   S    
C30   C34   S    
C5    O27   S    
O14   C40   S    
C24   C25   A    
C45   H24   S    
C44   H21   S    
C26   N1    A    
C4    O29   S    
C21   C46   S    
C54   H43   S    
C35   H4    S    
C25   C26   A    
O18   C44   S    
C13   C43   S    
C23   O5    A    
C38   H7    S    
C39   O13   D    
C19   C23   S    
C9    O14   S    
C45   H25   S    
C31   C32   S    
O6    Zn2   S    
C8    C12   S    
C5    C34   S    
C17   C18   A    
C31   O24   S    
C31   C34   S    
C48   O22   D    
C1    C16   S    
O3    Zn1   S    
C50   H35   S    
C53   H38   S    
C1    O2    A    
C47   H29   S    
C55   H44   S    
O21   C47   S    
C43   O17   D    
O28   C54   S    
C41   H16   S    
C22   C24   A    
C3    C4    S    
C48   H31   S    
O27   C53   S    
O1    Zn1   S    
C54   H42   S    
C42   H17   S    
C14   C19   A    
O4    Zn2   S    
O15   C41   S    
C55   H45   S    
C44   H23   S    
C51   O25   D    
C46   O20   D    
C36   H5    S    
C28   N2    A    
C6    C33   T    
C29   O7    A    
C2    C30   S    
C39   H10   S    
O29   C55   S    
C9    C15   A    
C2    C37   S    
C52   H37   S    
C25   N2    A    
C45   H26   S    
C11   C13   A    
C28   C48   S    
O19   C45   S    
C49   O23   D    
C40   H13   S    
C4    O12   S    
C7    C34   S    
C37   O11   D    
C2    C3    S    
C44   H22   S    
C3    C32   S    
C50   H34   S    
C53   H39   S    
C10   C11   A    
C20   H2    S    
C4    C5    S    
C47   H30   S    
C20   C21   A    
C40   H12   S    
C43   H20   S    
C5    O28   S    
C27   C28   A    
C14   C15   A    
C32   C51   S    
O24   C50   S    
O5    Zn1   S    
N2    Zn1   S    
C10   O15   S    
