data_mof_unit_55224.cif
_audit_creation_date              2012-12-11T16:24:28-0500
_audit_creation_method            fapswitch 2.2
_symmetry_space_group_name_H-M    P1
_symmetry_Int_Tables_number       1
_space_group_crystal_system       triclinic
_cell_length_a                    14.746218
_cell_length_b                    14.76335
_cell_length_c                    33.237741
_cell_angle_alpha                 95.997161
_cell_angle_beta                  96.190277
_cell_angle_gamma                 61.212965
_cell_volume                      6293.26671351

loop_
_atom_site_label
_atom_site_type_symbol
_atom_type_description
_atom_site_fract_x
_atom_site_fract_y
_atom_site_fract_z
_atom_type_partial_charge
C1    C     C_R   0.391165 0.699043 0.445871 0.549343
C2    C     C_1   0.316486 0.341859 0.229010 0.040733
C3    C     C_1   0.321192 0.345682 0.265333 0.064047
C4    C     C_R   0.405730 0.386360 0.434040 0.543380
C5    C     C_R   0.293537 0.294032 0.101783 0.031444
C6    C     C_R   0.748466 0.378204 0.408059 0.022031
C7    C     C_R   0.761551 0.449744 0.387880 -0.123414
C8    C     C_R   0.780723 0.431860 0.346975 -0.115592
C9    C     C_R   0.789257 0.341290 0.325676 0.035567
C10   C     C_R   0.785706 0.265314 0.346545 -0.099110
C11   C     C_R   0.764692 0.283954 0.387464 -0.115790
C12   C     C_R   0.331448 0.347159 0.308671 0.023908
C13   C     C_R   0.804365 0.312507 0.199759 0.369991
C14   C     C_R   0.794696 0.330309 0.281461 0.335447
C15   C     C_R   0.826674 0.387700 0.141027 -0.151532
C16   C     C_R   0.699611 0.410707 0.447102 0.555474
C17   C     C_R   0.865044 0.377280 0.103474 -0.142818
C18   C     C_R   0.887505 0.203327 0.093459 -0.098377
C19   C     C_R   0.846330 0.213675 0.130777 0.256193
C20   C     C_R   0.822343 0.304584 0.156285 0.017716
C21   C     C_R   0.901497 0.282993 0.080468 -0.029663
C22   C     C_R   0.372348 0.750299 0.407850 0.022857
C23   C     C_R   0.409801 0.261683 0.328931 0.270523
C24   C     C_R   0.285373 0.764993 0.381815 -0.121207
C25   C     C_R   0.280119 0.786825 0.341687 -0.111064
C26   C     C_R   0.360730 0.796154 0.327046 0.040290
C27   C     C_R   0.442815 0.791571 0.353911 -0.103155
C28   C     C_R   0.393427 0.701417 0.561231 0.545982
C29   C     C_R   0.448965 0.768099 0.394071 -0.123989
C30   C     C_R   0.365574 0.809070 0.202354 0.387419
C31   C     C_R   0.362547 0.801740 0.283343 0.336274
C32   C     C_R   0.260975 0.837452 0.137432 -0.147237
C33   C     C_R   0.234013 0.873713 0.098760 -0.130522
C34   C     C_R   0.428493 0.272279 0.370887 -0.099370
C35   C     C_R   0.395347 0.879649 0.099721 -0.107200
C36   C     C_R   0.424527 0.841036 0.138470 0.259382
C37   C     C_R   0.353380 0.825814 0.158647 0.024395
C38   C     C_R   0.298514 0.899986 0.080380 -0.030713
C39   C     C_R   0.371569 0.369034 0.585134 0.019604
C40   C     C_R   0.407318 0.388796 0.548999 0.538611
C41   C     C_R   0.284795 0.448382 0.603904 -0.127398
C42   C     C_R   0.265847 0.439318 0.643085 -0.117623
C43   C     C_R   0.333471 0.350853 0.664026 0.034321
C44   C     C_R   0.414393 0.267752 0.643789 -0.115616
C45   C     C_R   0.388398 0.241312 0.166960 -0.077588
C46   C     C_R   0.433194 0.276686 0.604651 -0.117705
C47   C     C_R   0.319770 0.349589 0.788955 0.346507
C48   C     C_R   0.326084 0.348635 0.707677 0.348215
C49   C     C_R   0.219366 0.404913 0.850880 -0.120476
C50   C     C_R   0.207863 0.384818 0.889546 -0.128327
C51   C     C_R   0.387006 0.249991 0.893409 -0.126353
C52   C     C_R   0.702371 0.413063 0.562473 0.577021
C53   C     C_R   0.398469 0.270040 0.854829 -0.119511
C54   C     C_R   0.313329 0.344112 0.832441 0.034080
C55   C     C_R   0.290191 0.303645 0.910238 0.024420
C56   C     C_R   0.379118 0.223119 0.125272 -0.153009
C57   C     C_R   0.752973 0.382488 0.603341 0.012940
C58   C     C_R   0.738599 0.462794 0.633055 -0.165351
C59   C     C_R   0.763214 0.442820 0.673827 -0.125437
C60   C     C_R   0.803210 0.342262 0.685770 -0.000622
C61   C     C_R   0.824553 0.260247 0.656674 -0.089930
C62   C     C_R   0.800953 0.278899 0.615279 0.232670
C63   C     C_R   0.879363 0.212746 0.823851 -0.109953
C64   C     C_R   0.369771 0.366661 0.392606 -0.028990
C65   C     C_R   0.908969 0.201915 0.865152 -0.125480
C66   C     C_R   0.870858 0.381795 0.873330 -0.124200
C67   C     C_R   0.220899 0.388629 0.120488 0.276041
C68   C     C_R   0.841053 0.392439 0.832093 -0.110015
C69   C     C_R   0.848241 0.307191 0.807148 0.040747
C70   C     C_1   0.831765 0.315194 0.764108 -0.016660
C71   C     C_1   0.819482 0.325050 0.728184 -0.013571
C72   C     C_R   0.908504 0.285432 0.890013 0.020433
C73   C     C_R   0.376217 0.755104 0.601930 0.021151
C74   C     C_R   0.280683 0.790784 0.618989 -0.107339
C75   C     C_R   0.271157 0.819999 0.660249 -0.099875
C76   C     C_R   0.286430 0.448028 0.372370 -0.136826
C77   C     C_R   0.356717 0.814158 0.684839 0.039653
C78   C     C_R   0.233064 0.407021 0.162740 -0.101457
C79   C     C_R   0.450171 0.785054 0.667736 -0.111719
C80   C     C_R   0.459845 0.756109 0.626417 -0.128043
C81   C     C_R   0.397188 0.883851 0.832764 -0.110238
C82   C     C_R   0.377336 0.911420 0.873602 -0.124172
C83   C     C_R   0.228394 0.881334 0.862870 -0.124492
C84   C     C_R   0.248536 0.853683 0.822083 -0.109872
C85   C     C_R   0.331135 0.857730 0.806794 0.039903
C86   C     C_1   0.343278 0.842090 0.764012 -0.020883
C87   C     C_1   0.350409 0.830236 0.727939 -0.020618
C88   C     C_R   0.267885 0.438379 0.330614 -0.159982
C89   C     C_R   0.313672 0.331428 0.185772 -0.007967
C90   C     C_R   0.290634 0.913754 0.888767 0.020205
C91   C     C_R   0.962960 0.264307 0.045431 0.547366
C92   C     C_R   0.273152 0.259740 0.059963 0.567615
C93   C     C_R   0.259236 0.959639 0.043823 0.550692
C94   C     C_R   0.962339 0.267686 0.930793 0.542236
C95   C     C_R   0.270962 0.264193 0.945444 0.547072
C96   C     C_R   0.256185 0.964962 0.928968 0.543654
C97   C     C_3   0.044718 0.498270 0.112448 -0.088632
Cr1   Cr    Cr6+3 0.576280 0.580550 0.506370 1.026068
Cr2   Cr    Cr6+3 0.346780 0.572400 0.496520 1.028485
Cr3   Cr    Cr6+3 0.576960 0.347070 0.497150 1.121234
Cr4   Cr    Cr6+3 0.087320 0.083240 0.984860 1.030189
Cr5   Cr    Cr6+3 0.087720 0.316210 0.996740 1.052590
Cr6   Cr    Cr6+3 0.317350 0.090340 0.995890 1.034263
H1    H     H_    0.435923 0.150060 0.111880 0.173111
H2    H     H_    0.159300 0.887476 0.084432 0.166610
H3    H     H_    0.451678 0.182953 0.184741 0.208613
H4    H     H_    0.214939 0.792146 0.321652 0.143373
H5    H     H_    0.505498 0.799300 0.343265 0.148044
H6    H     H_    0.205572 0.824992 0.151719 0.171227
H7    H     H_    0.446937 0.897114 0.085184 0.169418
H8    H     H_    0.235453 0.520246 0.589461 0.135565
H9    H     H_    0.499953 0.213721 0.590764 0.161804
H10   H     H_    0.132454 0.427981 0.901920 0.133501
H11   H     H_    0.202044 0.504114 0.657751 0.136403
H12   H     H_    0.755165 0.227360 0.402249 0.150470
H13   H     H_    0.466554 0.197649 0.658875 0.140205
H14   H     H_    0.152740 0.463462 0.834540 0.134566
H15   H     H_    0.452265 0.187997 0.908932 0.135798
H16   H     H_    0.472579 0.223434 0.841741 0.135653
H17   H     H_    0.937992 0.126570 0.877024 0.130269
H18   H     H_    0.885045 0.146392 0.804698 0.113967
H19   H     H_    0.857829 0.182162 0.666398 0.132058
H20   H     H_    0.702331 0.542680 0.625135 0.136743
H21   H     H_    0.816770 0.465944 0.819345 0.112769
H22   H     H_    0.869572 0.447491 0.891641 0.131333
H23   H     H_    0.871535 0.441343 0.093569 0.141983
H24   H     H_    0.492479 0.208888 0.386233 0.185084
H25   H     H_    0.747473 0.506631 0.696210 0.123444
H26   H     H_    0.426580 0.936253 0.892695 0.131992
H27   H     H_    0.461476 0.886926 0.821141 0.114986
H28   H     H_    0.516761 0.780469 0.686602 0.111838
H29   H     H_    0.534518 0.728712 0.614247 0.126331
H30   H     H_    0.214885 0.790971 0.600958 0.148733
H31   H     H_    0.197191 0.833217 0.802136 0.115717
H32   H     H_    0.161013 0.882453 0.873558 0.130822
H33   H     H_    0.198388 0.842799 0.673284 0.121017
H34   H     H_    0.785173 0.490698 0.331632 0.138642
H35   H     H_    0.239771 0.521681 0.388279 0.145401
H36   H     H_    0.178497 0.478493 0.177858 0.117240
H37   H     H_    0.207091 0.504042 0.315164 0.128675
H38   H     H_    0.749886 0.522979 0.402850 0.138664
H39   H     H_    0.802140 0.989734 0.110487 0.382315
H40   H     H_    0.666743 0.697805 0.199012 0.372549
H41   H     H_    0.603171 0.988476 0.317230 0.383758
H42   H     H_    0.894011 0.034153 0.614217 0.338667
H43   H     H_    0.030372 0.561244 0.136351 0.128960
H44   H     H_    0.036601 0.434717 0.124213 0.107816
H45   H     H_    0.792720 0.194529 0.330686 0.165314
H46   H     H_    0.983677 0.531357 0.087621 0.157621
H47   H     H_    0.806488 0.459316 0.159194 0.163506
H48   H     H_    0.911990 0.131365 0.075138 0.179056
H49   H     H_    0.224681 0.752496 0.391530 0.139216
H50   H     H_    0.516714 0.757653 0.413522 0.133745
N1    N     N_R   0.755362 0.406977 0.219592 -0.215297
N2    N     N_R   0.412208 0.847379 0.268890 -0.181832
N3    N     N_R   0.412514 0.852032 0.229119 -0.102799
N4    N     N_R   0.240617 0.423862 0.767092 -0.233544
N5    N     N_R   0.244055 0.423814 0.727239 -0.231784
N6    N     N_R   0.405075 0.274582 0.729578 -0.231630
N7    N     N_R   0.401816 0.274849 0.769365 -0.232934
N8    N     N_R   0.750457 0.415697 0.259601 -0.214797
N9    N     N_R   0.842865 0.235674 0.261771 -0.192203
N10   N     N_R   0.848625 0.227177 0.221746 -0.114091
N11   N     N_R   0.316905 0.762655 0.216988 -0.223278
N12   N     N_R   0.315649 0.758829 0.256657 -0.220923
O1    O     O_R   0.679450 0.499830 0.463150 -0.518446
O2    O     O_R   0.340240 0.172500 0.045430 -0.523500
O3    O     O_R   0.309670 0.000990 0.032050 -0.500686
O4    O     O_R   0.480650 0.664000 0.464630 -0.501473
O5    O     O_R   0.168330 0.982130 0.939200 -0.517836
O6    O     O_R   0.000140 0.178170 0.944610 -0.501750
O7    O     O_R   0.983010 0.336750 0.948660 -0.518151
O8    O     O_R   0.181800 0.312190 0.959860 -0.500484
O9    O     O_R   0.338500 0.175680 0.956950 -0.516467
O10   O     O_R   0.308050 0.003930 0.950020 -0.500697
O11   O     O_3   0.164130 0.163270 0.992500 -0.251574
O12   O     O_R   0.356040 0.477400 0.534170 -0.507271
O13   O     O_R   0.323930 0.675950 0.455370 -0.513635
O14   O     O_R   0.354700 0.475360 0.451930 -0.501808
O15   O     O_R   0.494470 0.320860 0.448390 -0.510551
O16   O     O_R   0.662580 0.357570 0.460050 -0.485300
O17   O     O_R   0.680900 0.502040 0.551870 -0.529675
O18   O     O_R   0.481990 0.666040 0.546870 -0.504906
O19   O     O_R   0.325370 0.678160 0.544080 -0.511079
O20   O     O_2   0.917146 0.039631 0.169300 -0.253250
O21   O     O_2   0.728933 0.154982 0.166228 -0.232618
O22   O     O_3   0.811741 0.045731 0.100944 -0.537220
O23   O     O_R   0.495910 0.323070 0.537100 -0.486877
O24   O     O_2   0.621129 0.791143 0.126897 -0.293909
O25   O     O_2   0.543577 0.903100 0.186869 -0.225778
O26   O     O_3   0.598409 0.707005 0.187243 -0.501673
O27   O     O_2   0.422724 0.109179 0.274754 -0.246238
O28   O     O_2   0.558296 0.160768 0.277061 -0.252775
O29   O     O_3   0.563581 0.051583 0.334675 -0.533968
O30   O     O_2   0.739886 0.156295 0.568744 -0.291243
O31   O     O_2   0.869634 0.188772 0.542377 -0.239224
O32   O     O_3   0.929392 0.063145 0.600208 -0.515710
O33   O     O_3   0.142186 0.462861 0.096711 -0.544875
O34   O     O_R   0.663920 0.359620 0.542290 -0.425314
O35   O     O_3   0.500010 0.500010 0.500010 -0.261682
O36   O     O_R   0.170070 0.978950 0.027680 -0.509003
O37   O     O_R   0.001760 0.175230 0.026640 -0.500579
O38   O     O_R   0.984760 0.333570 0.037150 -0.511680
O39   O     O_R   0.183410 0.309240 0.041890 -0.446278
S1    S     S_3+6 0.825361 0.111922 0.143440 0.033844
S2    S     S_3+6 0.550127 0.812095 0.159907 0.027591
S3    S     S_3+6 0.489611 0.143769 0.302215 0.025488
S4    S     S_3+6 0.833676 0.171019 0.580003 0.025074

loop_
_geom_bond_atom_site_label_1
_geom_bond_atom_site_label_2
_ccdc_geom_bond_type
C66   C68   A    
C63   C65   A    
Cr6   O2    S    
N4    N5    A    
C80   H29   S    
C96   O10   A    
C46   H9    S    
C27   C29   A    
C18   C21   A    
C41   C42   A    
N1    N8    A    
C23   S3    S    
C35   C36   A    
C30   N11   A    
C5    C67   A    
C67   O33   S    
C8    H34   S    
C78   H36   S    
C68   H21   S    
C81   C82   A    
C81   H27   S    
C7    C8    A    
C39   C41   A    
C53   C54   A    
Cr5   O8    S    
H42   O32   S    
H39   O22   S    
C12   C23   A    
C84   H31   S    
C58   H20   S    
O28   S3    D    
C75   H33   S    
C36   C37   A    
C22   C29   A    
C28   O18   A    
C52   O17   A    
Cr2   O12   S    
Cr4   O37   S    
N6    N7    A    
C47   N4    A    
C17   H23   S    
H41   O29   S    
Cr5   O11   S    
C49   C54   A    
C74   H30   S    
C65   H17   S    
C51   H15   S    
C18   C19   A    
C97   H43   S    
Cr1   O18   S    
Cr5   O39   S    
C88   H37   S    
C3    C12   S    
C24   H49   S    
C94   O7    A    
C68   C69   A    
Cr1   O4    S    
C42   H11   S    
C49   H14   S    
O30   S4    D    
C31   N12   A    
C45   C56   A    
C16   O1    A    
C8    C9    A    
Cr2   O35   S    
Cr5   O38   S    
Cr4   O6    S    
C70   C71   T    
C93   O36   A    
C9    C10   A    
C76   C88   A    
C83   H32   S    
C92   O39   A    
C28   O19   A    
C72   C94   S    
C30   N3    A    
Cr6   O3    S    
C21   C91   S    
C96   O5    A    
C97   H44   S    
C61   C62   A    
C67   C78   A    
C4    O15   A    
C28   C73   S    
C62   S4    S    
C63   H18   S    
C44   C46   A    
C13   N10   A    
C47   N7    A    
C77   C79   A    
C78   C89   A    
Cr5   O7    S    
C15   C20   A    
C48   N6    A    
C66   C72   A    
C74   C75   A    
C12   C88   A    
C91   O37   A    
C63   C69   A    
C57   C62   A    
C35   C38   A    
C33   H2    S    
C84   C85   A    
C93   O3    A    
Cr2   O13   S    
C55   C95   S    
C32   H6    S    
C6    C11   A    
C16   O16   A    
C34   H24   S    
C60   C71   S    
C25   C26   A    
C85   C86   S    
C48   N5    A    
Cr6   O9    S    
C17   C21   A    
C79   C80   A    
C30   C37   S    
C60   C61   A    
C51   C53   A    
O26   S2    S    
C14   N9    A    
C2    C89   S    
C9    C14   S    
C59   C60   A    
Cr2   O14   S    
O29   S3    S    
Cr6   O10   S    
O20   S1    D    
C94   O6    A    
C1    O13   A    
C83   C84   A    
O24   S2    D    
C23   C34   A    
C79   H28   S    
O22   S1    S    
C34   C64   A    
C64   C76   A    
Cr4   O5    S    
O21   S1    D    
C52   O34   A    
C36   S2    S    
C32   C37   A    
C24   C25   A    
C82   H26   S    
Cr3   O16   S    
C75   C77   A    
C56   H1    S    
Cr2   O19   S    
Cr1   O1    S    
C35   H7    S    
C47   C54   S    
Cr3   O35   S    
O31   S4    D    
C5    C56   A    
C39   C46   A    
C43   C44   A    
C26   C27   A    
O27   S3    D    
C22   C24   A    
C58   C59   A    
C42   C43   A    
C4    O14   A    
C18   H48   S    
Cr3   O15   S    
C73   C74   A    
C7    H38   S    
C11   H12   S    
C45   H3    S    
C25   H4    S    
C29   H50   S    
N9    N10   A    
C43   C48   S    
C15   C17   A    
C83   C90   A    
N11   N12   A    
C97   H46   S    
C45   C89   A    
C13   C20   S    
Cr3   O23   S    
C86   C87   T    
C26   C31   S    
C97   O33   S    
C95   O9    A    
C50   C55   A    
O32   S4    S    
C52   C57   S    
C31   N2    A    
C53   H16   S    
C90   C96   S    
C6    C7    A    
C40   O23   A    
C76   H35   S    
Cr1   O17   S    
C65   C72   A    
C4    C64   S    
C33   C38   A    
C82   C90   A    
C66   H22   S    
Cr1   O35   S    
C50   H10   S    
C32   C33   A    
C19   C20   A    
O25   S2    D    
C59   H25   S    
Cr4   O36   S    
C92   O2    A    
C57   C58   A    
C77   C87   S    
C27   H5    S    
C14   N8    A    
C38   C93   S    
C1    O4    A    
Cr6   O11   S    
C73   C80   A    
C2    C3    T    
C51   C55   A    
C95   O8    A    
C69   C70   S    
C91   O38   A    
C13   N1    A    
C5    C92   S    
C10   C11   A    
C6    C16   S    
C40   O12   A    
C39   C40   S    
Cr3   O34   S    
C1    C22   S    
C44   H13   S    
C49   C50   A    
C41   H8    S    
N2    N3    A    
C19   S1    S    
H40   O26   S    
C61   H19   S    
Cr4   O11   S    
C15   H47   S    
C81   C85   A    
C10   H45   S    
