data_mof_unit_42292.cif
_audit_creation_date              2012-12-11T15:27:36-0500
_audit_creation_method            fapswitch 2.2
_symmetry_space_group_name_H-M    P1
_symmetry_Int_Tables_number       1
_space_group_crystal_system       triclinic
_cell_length_a                    23.37322
_cell_length_b                    7.298083
_cell_length_c                    15.073109
_cell_angle_alpha                 89.974379
_cell_angle_beta                  108.605108
_cell_angle_gamma                 90.000099
_cell_volume                      2436.79690177

loop_
_atom_site_label
_atom_site_type_symbol
_atom_type_description
_atom_site_fract_x
_atom_site_fract_y
_atom_site_fract_z
_atom_type_partial_charge
O1    O     O_R   0.711000 0.648610 0.341170 -0.537486
O2    O     O_R   0.289000 0.351390 0.658830 -0.537464
O3    O     O_R   0.789000 0.148610 0.158830 -0.535927
O4    O     O_R   0.211000 0.851390 0.841170 -0.535928
O5    O     O_R   0.829650 0.322030 0.336650 -0.532341
O6    O     O_R   0.170350 0.677970 0.663350 -0.532345
O7    O     O_R   0.670350 0.822030 0.163350 -0.538458
O8    O     O_R   0.329650 0.177970 0.836650 -0.538500
C1    C     C_R   0.854283 0.485734 0.356802 0.732748
C2    C     C_R   0.145717 0.514266 0.643197 0.732767
C3    C     C_R   0.645721 0.985780 0.143192 0.733294
C4    C     C_R   0.354278 0.014220 0.856809 0.733467
O9    O     O_R   0.713950 0.319280 0.352070 -0.537649
O10   O     O_R   0.286050 0.680720 0.647930 -0.537624
O11   O     O_R   0.786050 0.819280 0.147930 -0.539915
O12   O     O_R   0.213950 0.180720 0.852070 -0.539911
O13   O     O_R   0.672470 0.142870 0.174360 -0.529571
O14   O     O_R   0.327530 0.857130 0.825640 -0.529560
O15   O     O_R   0.827530 0.642870 0.325640 -0.534551
O16   O     O_R   0.172470 0.357130 0.674360 -0.534540
C5    C     C_R   0.701870 0.487439 0.375940 0.702619
C6    C     C_R   0.298140 0.512566 0.624070 0.702507
C7    C     C_R   0.798102 0.987522 0.124038 0.702496
C8    C     C_R   0.201894 0.012475 0.875957 0.702442
O17   O     O_3   0.736530 0.478650 0.191680 -0.380865
O18   O     O_3   0.263470 0.521350 0.808320 -0.380887
O19   O     O_3   0.763470 0.978650 0.308320 -0.378925
O20   O     O_3   0.236530 0.021350 0.691680 -0.378899
V1    V     V_3+5 0.752500 0.206170 0.260820 1.503259
V2    V     V_3+5 0.247500 0.793830 0.739180 1.503305
V3    V     V_3+5 0.747500 0.706170 0.239180 1.488303
V4    V     V_3+5 0.252500 0.293830 0.760820 1.488303
C9    C     C_R   0.828153 0.995967 0.052142 -0.123257
C10   C     C_R   0.171843 0.004003 0.947854 -0.123236
C11   C     C_R   0.671865 0.495577 0.447910 -0.121679
C12   C     C_R   0.328159 0.504487 0.552115 -0.121637
C13   C     C_R   0.822546 0.012157 0.888555 -0.057324
C14   C     C_R   0.177451 0.987709 0.111441 -0.057369
C15   C     C_R   0.677418 0.521221 0.611184 -0.056974
C16   C     C_R   0.322633 0.479067 0.388843 -0.057000
C17   C     C_R   0.793919 0.987815 0.956795 -0.092330
C18   C     C_R   0.206071 0.012203 0.043203 -0.092335
C19   C     C_R   0.705768 0.528702 0.541844 -0.093335
C20   C     C_R   0.294294 0.471078 0.458190 -0.093360
C21   C     C_R   0.891307 0.015706 0.079757 -0.112139
C22   C     C_R   0.108697 0.984059 0.920242 -0.112208
C23   C     C_R   0.609129 0.467056 0.421992 -0.111517
C24   C     C_R   0.390859 0.533689 0.578000 -0.111696
C25   C     C_R   0.921690 0.005754 0.011758 0.038106
C26   C     C_R   0.078311 0.993976 0.988235 0.038112
C27   C     C_R   0.578438 0.493595 0.488729 0.038028
C28   C     C_R   0.421575 0.507374 0.511292 0.038069
C29   C     C_R   0.886297 0.025774 0.916076 0.068773
C30   C     C_R   0.113702 0.973982 0.083917 0.068784
C31   C     C_R   0.613951 0.499307 0.584902 0.069536
C32   C     C_R   0.386078 0.501533 0.415126 0.069529
C33   C     C_R   0.985844 0.984287 0.034744 0.061901
C34   C     C_R   0.014156 0.015383 0.965241 0.061908
C35   C     C_R   0.513987 0.507342 0.464510 0.061644
C36   C     C_R   0.486032 0.493939 0.535539 0.061710
C37   C     C_R   0.977765 0.075844 0.876470 -0.160799
C38   C     C_R   0.022235 0.923773 0.123504 -0.160831
C39   C     C_R   0.523217 0.458221 0.627687 -0.159632
C40   C     C_R   0.476799 0.543345 0.372394 -0.159691
C41   C     C_R   0.915369 0.068422 0.850494 -0.152728
C42   C     C_R   0.084632 0.931239 0.149489 -0.152731
C43   C     C_R   0.585432 0.473615 0.652861 -0.150746
C44   C     C_R   0.414588 0.527712 0.347194 -0.150721
H1    H     H_    0.890021 0.103760 0.778953 0.148218
H2    H     H_    0.109980 0.895873 0.221026 0.148206
H3    H     H_    0.611193 0.457915 0.726186 0.148259
H4    H     H_    0.388823 0.543548 0.273881 0.148288
H5    H     H_    0.996588 0.131558 0.825588 0.144456
H6    H     H_    0.003414 0.867973 0.174369 0.144474
H7    H     H_    0.505193 0.416115 0.682004 0.144255
H8    H     H_    0.494815 0.585824 0.318129 0.144349
C45   C     C_1   0.416769 0.007024 0.918770 -0.128310
C46   C     C_1   0.583230 0.992976 0.081233 -0.128418
C47   C     C_1   0.083226 0.507134 0.581242 -0.129132
C48   C     C_1   0.916774 0.492866 0.418757 -0.129095
C49   C     C_1   0.469145 0.002422 0.969978 0.044219
C50   C     C_1   0.530854 0.997578 0.030025 0.044213
C51   C     C_1   0.030852 0.502481 0.530029 0.045987
C52   C     C_1   0.969148 0.497519 0.469970 0.046001
C53   C     C_1   0.077931 0.924924 0.824828 0.286097
N1    N     N_1   0.053787 0.877078 0.748832 -0.345513
C54   C     C_1   0.922093 0.074540 0.175214 0.285984
N2    N     N_1   0.946252 0.122132 0.251254 -0.345494
C55   C     C_1   0.420299 0.618717 0.668204 0.289155
N3    N     N_1   0.443403 0.687362 0.739965 -0.348801
C56   C     C_1   0.579573 0.382944 0.331579 0.288837
N4    N     N_1   0.556376 0.315125 0.259621 -0.348695
C57   C     C_1   0.271112 0.034583 0.070717 0.319266
N5    N     N_1   0.322962 0.052485 0.092617 -0.346375
C58   C     C_1   0.728870 0.965604 0.929284 0.319228
N6    N     N_1   0.677014 0.947846 0.907383 -0.346396
C59   C     C_1   0.229724 0.439748 0.432513 0.317263
N7    N     N_1   0.178247 0.414728 0.412087 -0.344556
C60   C     C_1   0.770376 0.559339 0.567529 0.317173
N8    N     N_1   0.821883 0.583798 0.587960 -0.344661
C61   C     C_1   0.786208 0.020574 0.790415 0.339071
N9    N     N_1   0.757213 0.027323 0.712264 -0.341710
C62   C     C_1   0.213789 0.979232 0.209580 0.339055
N10   N     N_1   0.242781 0.972430 0.287730 -0.341679
C63   C     C_1   0.713711 0.538480 0.709007 0.338808
N11   N     N_1   0.742668 0.552047 0.786912 -0.342932
C64   C     C_1   0.286357 0.461792 0.291018 0.338803
N12   N     N_1   0.257413 0.448217 0.213106 -0.342887

loop_
_geom_bond_atom_site_label_1
_geom_bond_atom_site_label_2
_ccdc_geom_bond_type
O17   V3    S    
C13   C61   S    
C54   N2    T    
O1    C5    A    
C57   N5    T    
O19   V1    S    
C18   C57   S    
C9    C21   A    
O3    C7    A    
C58   N6    T    
C10   C18   A    
C48   C52   T    
O15   V3    S    
C59   N7    T    
C25   C33   A    
C33   C38   A    
C17   C58   S    
C53   N1    T    
O7    C3    A    
C35   C40   A    
C26   C30   A    
C36   C39   A    
C40   C44   A    
O9    V1    S    
C21   C54   S    
C19   C60   S    
C14   C18   A    
O4    C8    A    
C25   C29   A    
O1    V3    S    
O13   V1    S    
O2    V4    S    
O3    V1    S    
C28   C36   A    
C1    O15   A    
C15   C31   A    
C51   C52   S    
C2    O16   A    
C16   C32   A    
O2    C6    A    
C64   N12   T    
C10   C22   A    
C45   C49   T    
C11   C19   A    
C16   C20   A    
C43   H3    S    
C44   H4    S    
C22   C53   S    
C13   C29   A    
C34   C37   A    
O11   C7    A    
C11   C23   A    
C35   C36   A    
O12   C8    A    
O10   V2    S    
C49   C50   S    
O5    V1    S    
C39   C43   A    
O7    V3    S    
C38   C42   A    
O8    V4    S    
C61   N9    T    
C7    C9    S    
C56   N4    T    
O18   V4    S    
C23   C27   A    
C37   H5    S    
C32   C44   A    
C8    C10   S    
C1    C48   S    
C26   C34   A    
O5    C1    A    
C14   C62   S    
C3    C46   S    
C20   C59   S    
C46   C50   T    
C31   C43   A    
C60   N8    T    
C14   C30   A    
C21   C25   A    
O8    C4    A    
C4    C45   S    
C40   H8    S    
O9    C5    A    
C16   C64   S    
O14   V2    S    
O6    V2    S    
C24   C55   S    
C12   C20   A    
C27   C35   A    
C29   C41   A    
O16   V4    S    
C15   C63   S    
C3    O13   A    
C23   C56   S    
O6    C2    A    
C15   C19   A    
C2    C47   S    
O11   V3    S    
C30   C42   A    
O12   V4    S    
C6    C12   S    
C63   N11   T    
C22   C26   A    
C9    C17   A    
O10   C6    A    
O20   V2    S    
C5    C11   S    
C47   C51   T    
C33   C34   A    
C42   H2    S    
C39   H7    S    
C41   H1    S    
C12   C24   A    
C27   C31   A    
C13   C17   A    
C37   C41   A    
C24   C28   A    
C4    O14   A    
C62   N10   T    
C38   H6    S    
C55   N3    T    
O4    V2    S    
C28   C32   A    
