data_mof_unit_43479.cif
_audit_creation_date              2012-10-26T18:26:39-0400
_audit_creation_method            fapswitch 2.2
_symmetry_space_group_name_H-M    P1
_symmetry_Int_Tables_number       1
_space_group_crystal_system       triclinic
_cell_length_a                    15.848843
_cell_length_b                    8.684054
_cell_length_c                    7.466218
_cell_angle_alpha                 103.241011
_cell_angle_beta                  93.57727
_cell_angle_gamma                 92.323092
_cell_volume                      996.733825016

loop_
_atom_site_label
_atom_site_type_symbol
_atom_type_description
_atom_site_fract_x
_atom_site_fract_y
_atom_site_fract_z
_atom_type_partial_charge
C1    C     C_R   0.497468 0.199721 0.453111 0.550288
C2    C     C_3   0.978059 0.649354 0.553142 0.030808
C3    C     C_1   0.250777 0.498372 0.510611 0.053039
C4    C     C_1   0.749223 0.501628 0.489389 0.053039
C5    C     C_3   0.030508 0.560844 0.673663 0.048736
C6    C     C_3   0.969492 0.439156 0.326337 0.048736
C7    C     C_3   0.083657 0.497139 0.510312 -0.024980
C8    C     C_3   0.916343 0.502861 0.489688 -0.024980
C9    C     C_1   0.175356 0.497433 0.513302 0.070561
C10   C     C_1   0.824644 0.502566 0.486698 0.070561
C11   C     C_2   0.044131 0.181119 0.387589 0.655510
C12   C     C_R   0.502532 0.800279 0.546889 0.550288
C13   C     C_2   0.955869 0.818880 0.612411 0.655510
C14   C     C_2   0.937799 0.368948 0.130426 0.631474
C15   C     C_2   0.062201 0.631052 0.869574 0.631474
C16   C     C_R   0.340092 0.499341 0.503225 0.551641
C17   C     C_R   0.659908 0.500659 0.496775 0.551641
C18   C     C_2   0.496255 0.031580 0.427006 -0.138971
C19   C     C_2   0.503745 0.968419 0.572994 -0.138970
C20   C     C_3   0.968080 0.413299 0.611561 -0.153710
C21   C     C_3   0.031920 0.586700 0.388439 -0.153710
C22   C     C_3   0.021941 0.350646 0.446857 0.030808
Cu1   Cu    Cu3+1 0.509330 0.517380 0.684380 1.004452
Cu2   Cu    Cu3+1 0.490670 0.482620 0.315620 1.004452
H1    H     H_    0.940230 0.340092 0.698788 0.176124
H2    H     H_    0.161690 0.683412 0.059136 0.331390
H3    H     H_    0.059770 0.659907 0.301212 0.176124
H4    H     H_    0.489198 0.959465 0.286572 0.140034
H5    H     H_    0.510802 0.040535 0.713428 0.140034
H6    H     H_    0.434283 0.377777 0.949222 0.248519
H7    H     H_    0.565716 0.622223 0.050778 0.248519
H8    H     H_    0.135296 0.024165 0.348027 0.349739
H9    H     H_    0.864704 0.975835 0.651972 0.349739
H10   H     H_    0.838310 0.316588 0.940864 0.331390
N1    N     N_2   0.476600 0.456420 0.038510 -0.251930
N2    N     N_2   0.523400 0.543580 0.961490 -0.251930
O1    O     O_R   0.506070 0.286130 0.619780 -0.509712
O2    O     O_R   0.128789 0.142316 0.391050 -0.669396
O3    O     O_2   0.012362 0.922566 0.663948 -0.452686
O4    O     O_R   0.871211 0.857684 0.608950 -0.669396
O5    O     O_2   0.987739 0.311130 0.019154 -0.485650
O6    O     O_R   0.851794 0.368367 0.076317 -0.677192
O7    O     O_2   0.012261 0.688870 0.980846 -0.485650
O8    O     O_R   0.148206 0.631633 0.923683 -0.677192
O9    O     O_R   0.493930 0.713870 0.380220 -0.509712
O10   O     O_R   0.490300 0.256770 0.308360 -0.494338
O11   O     O_R   0.509700 0.743230 0.691640 -0.494338
O12   O     O_R   0.386960 0.514660 0.655680 -0.492946
O13   O     O_R   0.613040 0.485340 0.344320 -0.492947
O14   O     O_R   0.371190 0.485310 0.344260 -0.490801
O15   O     O_R   0.628810 0.514690 0.655740 -0.490801
O16   O     O_2   0.987637 0.077434 0.336052 -0.452686

loop_
_geom_bond_atom_site_label_1
_geom_bond_atom_site_label_2
_ccdc_geom_bond_type
H9    O4    S    
C11   O2    S    
Cu1   Cu2   S    
C18   H4    S    
C3    C9    T    
H8    O2    S    
C6    C14   S    
C7    C22   S    
C11   O16   D    
C11   C22   S    
Cu1   O15   S    
N1    N2    D    
H10   O6    S    
C1    O1    A    
C14   O6    S    
Cu2   O10   S    
C17   O15   A    
C2    C21   S    
C21   H3    S    
H2    O8    S    
C5    C20   S    
C7    C21   S    
C16   O12   A    
C1    C18   S    
C8    C20   S    
H6    N1    S    
C14   O5    D    
Cu2   O9    S    
C12   C19   S    
C19   H5    S    
C20   C22   S    
C15   O8    S    
C18   C19   D    
C12   O11   A    
Cu2   O14   S    
C1    O10   A    
C13   O3    D    
Cu2   N1    S    
C5    C15   S    
C20   H1    S    
C4    C17   S    
C15   O7    D    
C2    C5    S    
C7    C9    S    
Cu1   O11   S    
C8    C10   S    
Cu1   N2    S    
C17   O13   A    
Cu2   O13   S    
C5    C7    S    
C2    C13   S    
H7    N2    S    
C13   O4    S    
C6    C8    S    
Cu1   O12   S    
Cu1   O1    S    
C6    C21   S    
C4    C10   T    
C2    C8    S    
C3    C16   S    
C16   O14   A    
C12   O9    A    
C6    C22   S    
