data_mof_unit_66044.cif
_audit_creation_date              2012-12-10T18:01:15-0500
_audit_creation_method            fapswitch 2.2
_symmetry_space_group_name_H-M    P1
_symmetry_Int_Tables_number       1
_space_group_crystal_system       triclinic
_cell_length_a                    18.252603
_cell_length_b                    18.306622
_cell_length_c                    25.827926
_cell_angle_alpha                 89.878871
_cell_angle_beta                  89.926907
_cell_angle_gamma                 89.70341
_cell_volume                      8630.09186975

loop_
_atom_site_label
_atom_site_type_symbol
_atom_type_description
_atom_site_fract_x
_atom_site_fract_y
_atom_site_fract_z
_atom_type_partial_charge
C1    C     C_R   0.859480 0.139407 0.750519 0.849619
C2    C     C_R   0.194394 0.197806 0.252366 -0.145405
C3    C     C_R   0.229201 0.675355 0.260719 0.063495
C4    C     C_3   0.021396 0.819303 0.555468 0.249193
C5    C     C_3   0.052183 0.803489 0.609156 -0.796225
C6    C     C_3   0.196733 0.968855 0.569218 0.160678
C7    C     C_3   0.247624 0.904285 0.579070 -0.795318
C8    C     C_3   0.189939 0.943607 0.430550 0.150405
C9    C     C_3   0.222171 0.872614 0.409881 -0.765866
C10   C     C_3   0.985350 0.836430 0.402826 0.143517
C11   C     C_3   0.980728 0.753647 0.400107 -0.776827
C12   C     C_3   0.521377 0.319298 0.055471 0.249194
C13   C     C_R   0.193788 0.198257 0.746903 -0.149899
C14   C     C_3   0.552161 0.303486 0.109159 -0.796228
C15   C     C_3   0.696729 0.468828 0.069219 0.160683
C16   C     C_3   0.747614 0.404250 0.079063 -0.795340
C17   C     C_3   0.689937 0.443597 0.930549 0.150394
C18   C     C_3   0.722168 0.372603 0.909880 -0.765877
C19   C     C_3   0.485348 0.336431 0.902826 0.143536
C20   C     C_3   0.480726 0.253648 0.900106 -0.776791
C21   C     C_3   0.073617 0.686591 0.789906 0.121801
C22   C     C_3   0.993235 0.666944 0.783624 -0.697910
C23   C     C_3   0.773068 0.862022 0.861620 0.148560
C24   C     C_R   0.802512 0.194467 0.751525 -0.138452
C25   C     C_3   0.801697 0.882648 0.914895 -0.794025
C26   C     C_3   0.783207 0.854193 0.135057 0.146257
C27   C     C_3   0.816927 0.871230 0.082513 -0.762632
C28   C     C_3   0.068555 0.684631 0.224607 0.125091
C29   C     C_3   0.988629 0.668778 0.236840 -0.722520
C30   C     C_3   0.573615 0.186594 0.289912 0.121809
C31   C     C_3   0.493234 0.166941 0.283628 -0.697877
C32   C     C_3   0.273075 0.362014 0.361623 0.148550
C33   C     C_3   0.301705 0.382633 0.414900 -0.794021
C34   C     C_3   0.283296 0.354237 0.635072 0.146374
C35   C     C_R   0.302426 0.694345 0.748366 -0.140347
C36   C     C_3   0.316919 0.371158 0.582480 -0.762846
C37   C     C_3   0.568524 0.184623 0.724710 0.125114
C38   C     C_3   0.488600 0.168812 0.736981 -0.722687
C39   C     C_3   0.969084 0.179229 0.051458 0.160737
C40   C     C_3   0.932924 0.237093 0.085250 -0.768930
C41   C     C_3   0.850869 0.091824 0.937303 0.124827
C42   C     C_3   0.809625 0.155004 0.912165 -0.758315
C43   C     C_3   0.469060 0.679225 0.551457 0.160734
C44   C     C_3   0.432891 0.737086 0.585248 -0.768934
C45   C     C_3   0.350860 0.591799 0.437294 0.124831
C46   C     C_R   0.694395 0.697806 0.752366 -0.145408
C47   C     C_3   0.309607 0.654970 0.412153 -0.758341
C48   C     C_R   0.693793 0.698252 0.246905 -0.149855
C49   C     C_R   0.302511 0.694466 0.251527 -0.138494
C50   C     C_R   0.822987 0.267467 0.251638 -0.250729
C51   C     C_R   0.216276 0.228495 0.205344 -0.240101
C52   C     C_R   0.209140 0.234622 0.792951 -0.230630
C53   C     C_R   0.139058 0.140999 0.748671 0.871471
C54   C     C_R   0.822391 0.267118 0.743618 -0.241256
C55   C     C_R   0.322986 0.767466 0.751642 -0.250729
C56   C     C_R   0.716280 0.728492 0.705343 -0.240091
C57   C     C_R   0.709139 0.734622 0.292952 -0.230628
C58   C     C_R   0.322396 0.767122 0.243652 -0.241272
C59   C     C_R   0.270316 0.822156 0.751936 0.119792
C60   C     C_R   0.770821 0.780780 0.703767 0.142689
C61   C     C_R   0.762110 0.788184 0.294749 0.139112
C62   C     C_R   0.269545 0.821716 0.243476 0.117703
C63   C     C_R   0.770316 0.322156 0.251932 0.119798
C64   C     C_R   0.139222 0.140907 0.251051 0.876032
C65   C     C_R   0.270817 0.280784 0.203768 0.142696
C66   C     C_R   0.262109 0.288185 0.794747 0.139135
C67   C     C_R   0.769539 0.321712 0.743442 0.117699
C68   C     C_R   0.195789 0.803156 0.749865 -0.197734
C69   C     C_R   0.802980 0.804536 0.750294 -0.220396
C70   C     C_R   0.801435 0.805923 0.249344 -0.216295
C71   C     C_R   0.195580 0.803055 0.250479 -0.194379
C72   C     C_R   0.695789 0.303156 0.249865 -0.197739
C73   C     C_R   0.302979 0.304537 0.250294 -0.220393
C74   C     C_R   0.301433 0.305926 0.749342 -0.216309
C75   C     C_R   0.859362 0.139327 0.249369 0.869513
C76   C     C_R   0.695579 0.303054 0.750481 -0.194349
C77   C     C_R   0.026627 0.941658 0.973387 -0.243455
C78   C     C_R   0.026482 0.941825 0.026686 -0.257343
C79   C     C_R   0.526631 0.441660 0.473387 -0.243443
C80   C     C_R   0.526485 0.441827 0.526686 -0.257410
C81   C     C_R   0.995808 0.000838 0.053369 -0.163347
C82   C     C_R   0.994936 0.999893 0.946419 -0.165850
C83   C     C_R   0.495805 0.500836 0.553369 -0.163289
C84   C     C_R   0.494935 0.499893 0.446418 -0.165851
C85   C     C_R   0.963074 0.059782 0.026677 0.358286
C86   C     C_R   0.359479 0.639406 0.250520 0.849609
C87   C     C_R   0.959681 0.057436 0.972742 0.356501
C88   C     C_R   0.463064 0.559778 0.526677 0.358273
C89   C     C_R   0.459672 0.557431 0.472742 0.356505
C90   C     C_R   0.140071 0.859901 0.749994 0.891760
C91   C     C_R   0.860335 0.859478 0.749451 0.861575
C92   C     C_R   0.859964 0.859756 0.250526 0.836458
C93   C     C_R   0.139869 0.859797 0.250198 0.885811
C94   C     C_R   0.640071 0.359901 0.249994 0.891756
C95   C     C_R   0.360335 0.359478 0.249451 0.861569
C96   C     C_R   0.359966 0.359754 0.750527 0.836299
C97   C     C_R   0.639059 0.640998 0.248672 0.871468
C98   C     C_R   0.639868 0.359797 0.750199 0.885844
C99   C     C_R   0.998787 0.999959 0.890840 0.838336
C100  C     C_R   0.998701 0.000223 0.109090 0.864814
C101  C     C_R   0.498787 0.499959 0.390840 0.838330
C102  C     C_R   0.498699 0.500223 0.609090 0.864925
C103  C     C_R   0.000496 0.998783 0.608660 0.892442
C104  C     C_R   0.000510 0.998667 0.391320 0.794418
C105  C     C_R   0.500496 0.498782 0.108660 0.892433
C106  C     C_R   0.500510 0.498666 0.891320 0.794413
C107  C     C_3   0.957078 0.929824 0.529659 0.328812
C108  C     C_R   0.639222 0.640907 0.751051 0.876040
C109  C     C_3   0.083865 0.998523 0.529782 0.287011
C110  C     C_3   0.083966 0.993677 0.469613 0.340168
C111  C     C_3   0.962217 0.923610 0.469172 0.251390
C112  C     C_3   0.457072 0.429826 0.029658 0.328822
C113  C     C_3   0.583865 0.498513 0.029783 0.287015
C114  C     C_3   0.583966 0.493670 0.969614 0.340178
C115  C     C_3   0.462213 0.423611 0.969172 0.251377
C116  C     C_3   0.965186 0.066360 0.529644 -0.623966
C117  C     C_3   0.963170 0.063557 0.470006 -0.587168
C118  C     C_3   0.465193 0.566362 0.029644 -0.623976
C119  C     C_R   0.359362 0.639327 0.749370 0.869504
C120  C     C_3   0.463175 0.563558 0.970006 -0.587166
C121  C     C_3   0.002684 0.996194 0.551000 -0.093308
C122  C     C_3   0.002735 0.993953 0.448922 -0.075677
C123  C     C_3   0.502684 0.496192 0.051000 -0.093302
C124  C     C_3   0.502736 0.493951 0.948922 -0.075678
C125  C     C_R   0.174422 0.729185 0.747417 0.391963
C126  C     C_R   0.779217 0.775908 0.798243 0.403229
C127  C     C_R   0.783032 0.772633 0.201795 0.408741
C128  C     C_R   0.174802 0.729608 0.258006 0.394741
C129  C     C_R   0.674421 0.229185 0.247421 0.391957
C130  C     C_R   0.802426 0.194345 0.248366 -0.140350
C131  C     C_R   0.279220 0.275905 0.298243 0.403228
C132  C     C_R   0.283026 0.272639 0.701791 0.408759
C133  C     C_R   0.674808 0.229613 0.758043 0.394730
C134  C     C_R   0.728403 0.174697 0.244104 0.070675
C135  C     C_R   0.226048 0.221099 0.299276 0.091673
C136  C     C_R   0.230067 0.217714 0.700651 0.094157
C137  C     C_R   0.729209 0.175361 0.760752 0.063484
C138  C     C_R   0.228404 0.674697 0.744100 0.070668
C139  C     C_R   0.726046 0.721102 0.799276 0.091664
C140  C     C_R   0.730081 0.717700 0.200654 0.094029
H1    H     H_    0.899133 0.947360 0.535789 0.127085
H2    H     H_    0.995047 0.116019 0.542460 0.218171
H3    H     H_    0.223535 0.344871 0.629497 0.153609
H4    H     H_    0.308074 0.324716 0.555644 0.264034
H5    H     H_    0.291022 0.420961 0.565858 0.198981
H6    H     H_    0.376643 0.380600 0.586560 0.266536
H7    H     H_    0.594939 0.132888 0.711865 0.166659
H8    H     H_    0.570503 0.224250 0.692033 0.163829
H9    H     H_    0.460713 0.219284 0.750548 0.251254
H10   H     H_    0.460364 0.148666 0.701771 0.223776
H11   H     H_    0.484958 0.126557 0.767785 0.260322
H12   H     H_    0.972383 0.201129 0.011344 0.180443
H13   H     H_    0.989626 0.113538 0.454177 0.219858
H14   H     H_    0.025657 0.169414 0.066221 0.141266
H15   H     H_    0.929847 0.217648 0.125930 0.281889
H16   H     H_    0.965437 0.288168 0.083993 0.204473
H17   H     H_    0.876677 0.248936 0.071030 0.249485
H18   H     H_    0.822628 0.077843 0.974299 0.155010
H19   H     H_    0.848709 0.044190 0.910646 0.120500
H20   H     H_    0.835591 0.169572 0.874665 0.271863
H21   H     H_    0.751884 0.139144 0.905018 0.218939
H22   H     H_    0.810292 0.203386 0.938037 0.247059
H23   H     H_    0.472359 0.701124 0.511343 0.180445
H24   H     H_    0.905047 0.064332 0.456994 0.232815
H25   H     H_    0.525634 0.669418 0.566222 0.141271
H26   H     H_    0.429814 0.717643 0.625928 0.281888
H27   H     H_    0.465398 0.788165 0.583991 0.204473
H28   H     H_    0.376643 0.748923 0.571026 0.249486
H29   H     H_    0.322614 0.577810 0.474286 0.154997
H30   H     H_    0.348716 0.544165 0.410635 0.120476
H31   H     H_    0.335582 0.669550 0.374658 0.271859
H32   H     H_    0.251873 0.639095 0.404994 0.218917
H33   H     H_    0.310252 0.703350 0.438028 0.247065
H34   H     H_    0.408319 0.572019 0.044814 0.230769
H35   H     H_    0.495060 0.616017 0.042459 0.218165
H36   H     H_    0.489633 0.613537 0.954176 0.219859
H37   H     H_    0.405051 0.564336 0.956995 0.232810
H38   H     H_    0.880335 0.281982 0.254516 0.186647
H39   H     H_    0.192428 0.209860 0.169331 0.187220
H40   H     H_    0.180549 0.220220 0.828309 0.200609
H41   H     H_    0.105370 0.053820 0.540116 0.056050
H42   H     H_    0.879249 0.281268 0.737077 0.185287
H43   H     H_    0.380334 0.781981 0.754522 0.186646
H44   H     H_    0.692434 0.709854 0.669330 0.187222
H45   H     H_    0.680543 0.720225 0.328308 0.200609
H46   H     H_    0.379259 0.781276 0.237137 0.185315
H47   H     H_    0.052758 0.896661 0.953218 0.191604
H48   H     H_    0.051990 0.896605 0.047088 0.192938
H49   H     H_    0.552768 0.396666 0.453218 0.191606
H50   H     H_    0.551998 0.396610 0.547088 0.192933
H51   H     H_    0.065145 0.840614 0.530431 0.247254
H52   H     H_    0.110850 0.044404 0.454765 0.042361
H53   H     H_    0.004272 0.766539 0.538251 0.171761
H54   H     H_    0.009583 0.777852 0.633882 0.266483
H55   H     H_    0.099715 0.765634 0.606068 0.219290
H56   H     H_    0.070606 0.854702 0.627749 0.268261
H57   H     H_    0.190144 0.999206 0.606077 0.211661
H58   H     H_    0.222878 0.005824 0.540528 0.116452
H59   H     H_    0.255776 0.872843 0.542770 0.247130
H60   H     H_    0.301565 0.924067 0.592890 0.224496
H61   H     H_    0.223682 0.867849 0.609028 0.263327
H62   H     H_    0.228143 0.966158 0.459594 0.128311
H63   H     H_    0.904788 0.923836 0.454256 0.093490
H64   H     H_    0.185753 0.982793 0.397776 0.188995
H65   H     H_    0.185162 0.848998 0.380262 0.261308
H66   H     H_    0.276391 0.883110 0.391868 0.219323
H67   H     H_    0.229155 0.832723 0.441981 0.242362
H68   H     H_    0.032338 0.853871 0.378485 0.167418
H69   H     H_    0.934435 0.859532 0.386014 0.146466
H70   H     H_    0.934099 0.734141 0.423995 0.265136
H71   H     H_    0.972232 0.736375 0.359357 0.226186
H72   H     H_    0.032334 0.728699 0.414716 0.260958
H73   H     H_    0.565129 0.340602 0.030433 0.247255
H74   H     H_    0.399128 0.447369 0.035788 0.127083
H75   H     H_    0.504248 0.266534 0.038256 0.171755
H76   H     H_    0.509558 0.277855 0.133887 0.266475
H77   H     H_    0.599689 0.265626 0.106074 0.219293
H78   H     H_    0.570590 0.354698 0.127750 0.268255
H79   H     H_    0.690145 0.499172 0.106080 0.211673
H80   H     H_    0.722877 0.505799 0.040532 0.116455
H81   H     H_    0.755761 0.372815 0.042760 0.247136
H82   H     H_    0.801557 0.424024 0.092885 0.224497
H83   H     H_    0.723669 0.367812 0.109019 0.263322
H84   H     H_    0.728141 0.466148 0.959594 0.128306
H85   H     H_    0.605377 0.553806 0.040118 0.056051
H86   H     H_    0.685752 0.482783 0.897775 0.188986
H87   H     H_    0.685160 0.348990 0.880261 0.261319
H88   H     H_    0.776389 0.383098 0.891869 0.219305
H89   H     H_    0.729149 0.332712 0.941980 0.242367
H90   H     H_    0.532338 0.353873 0.878487 0.167434
H91   H     H_    0.434434 0.359534 0.886012 0.146460
H92   H     H_    0.434100 0.234141 0.923995 0.265123
H93   H     H_    0.472227 0.236380 0.859355 0.226173
H94   H     H_    0.532333 0.228699 0.914711 0.260974
H95   H     H_    0.077971 0.729560 0.820124 0.159466
H96   H     H_    0.610853 0.544397 0.954766 0.042359
H97   H     H_    0.103391 0.637192 0.803817 0.160300
H98   H     H_    0.987592 0.621692 0.755356 0.261898
H99   H     H_    0.970235 0.649283 0.821428 0.213267
H100  H     H_    0.961781 0.715005 0.769464 0.264146
H101  H     H_    0.712991 0.852397 0.864943 0.158248
H102  H     H_    0.782607 0.908799 0.834904 0.130443
H103  H     H_    0.861133 0.894947 0.912718 0.254866
H104  H     H_    0.772034 0.931649 0.929336 0.189865
H105  H     H_    0.793018 0.836913 0.942518 0.273068
H106  H     H_    0.790569 0.902644 0.160451 0.132580
H107  H     H_    0.404785 0.423839 0.954255 0.093495
H108  H     H_    0.723479 0.844688 0.129403 0.153709
H109  H     H_    0.808422 0.824705 0.055678 0.264129
H110  H     H_    0.790825 0.920886 0.065824 0.198966
H111  H     H_    0.876594 0.880993 0.086693 0.266334
H112  H     H_    0.095000 0.632918 0.211749 0.166613
H113  H     H_    0.070544 0.724289 0.191949 0.163829
H114  H     H_    0.960712 0.719224 0.250428 0.251316
H115  H     H_    0.960425 0.648664 0.201607 0.223737
H116  H     H_    0.984980 0.626483 0.267616 0.260318
H117  H     H_    0.577965 0.229568 0.320127 0.159472
H118  H     H_    0.908311 0.072011 0.544814 0.230772
H119  H     H_    0.603393 0.137199 0.303828 0.160287
H120  H     H_    0.487596 0.121685 0.255361 0.261895
H121  H     H_    0.470234 0.149282 0.321432 0.213272
H122  H     H_    0.461778 0.214998 0.269464 0.264138
H123  H     H_    0.212998 0.352390 0.364947 0.158242
H124  H     H_    0.282614 0.408794 0.334911 0.130424
H125  H     H_    0.361141 0.394932 0.412723 0.254871
H126  H     H_    0.272042 0.431631 0.429345 0.189853
H127  H     H_    0.293026 0.336893 0.442520 0.273073
H128  H     H_    0.290836 0.402683 0.660434 0.132627
I1    I     I_    0.697702 0.065166 0.225504 -0.338293
I2    I     I_    0.804500 0.815669 0.628844 -0.277075
I3    I     I_    0.777501 0.835821 0.369000 -0.360178
I4    I     I_    0.305428 0.930360 0.229475 -0.347058
I5    I     I_    0.808194 0.431453 0.259034 -0.354992
I6    I     I_    0.304490 0.315677 0.128844 -0.277077
I7    I     I_    0.277504 0.335817 0.869001 -0.360191
I8    I     I_    0.805405 0.430349 0.729392 -0.347050
I9    I     I_    0.193001 0.179256 0.373122 -0.374249
I10   I     I_    0.203907 0.171253 0.627019 -0.387775
I11   I     I_    0.701348 0.067418 0.785419 -0.404320
I12   I     I_    0.197705 0.565168 0.725493 -0.338304
I13   I     I_    0.692994 0.679262 0.873122 -0.374250
I14   I     I_    0.703954 0.671208 0.127025 -0.387842
I15   I     I_    0.201320 0.567398 0.285348 -0.404198
I16   I     I_    0.308192 0.931452 0.759043 -0.355019
O1    O     O_3   1.000000 0.000000 0.749970 -0.508733
O2    O     O_R   0.646190 0.585480 0.219360 -0.611582
O3    O     O_R   0.646190 0.585480 0.780640 -0.605429
O4    O     O_R   0.353810 0.585480 0.780640 -0.614408
O5    O     O_R   0.146170 0.914530 0.719320 -0.629875
O6    O     O_R   0.853830 0.914530 0.719320 -0.604976
O7    O     O_R   0.853830 0.914530 0.280680 -0.611247
O8    O     O_R   0.146170 0.914530 0.280680 -0.632673
O9    O     O_R   0.646170 0.414530 0.219320 -0.629871
O10   O     O_R   0.353830 0.414530 0.219320 -0.604967
O11   O     O_R   0.353830 0.414530 0.780680 -0.611225
O12   O     O_3   0.000000 0.000000 0.250030 -0.501598
O13   O     O_R   0.646170 0.414530 0.780680 -0.632677
O14   O     O_R   0.085450 0.146180 0.780600 -0.646449
O15   O     O_R   0.914550 0.146180 0.780600 -0.641280
O16   O     O_R   0.914550 0.146180 0.219400 -0.650362
O17   O     O_R   0.085450 0.146180 0.219400 -0.655289
O18   O     O_R   0.585450 0.646180 0.280600 -0.646457
O19   O     O_R   0.414550 0.646180 0.280600 -0.641295
O20   O     O_R   0.414550 0.646180 0.719400 -0.650363
O21   O     O_R   0.585450 0.646180 0.719400 -0.655283
O22   O     O_R   0.914560 0.853830 0.780620 -0.613255
O23   O     O_3   0.500000 0.500000 0.249970 -0.508732
O24   O     O_R   0.085440 0.853830 0.780620 -0.641581
O25   O     O_R   0.085440 0.853830 0.219380 -0.646249
O26   O     O_R   0.914560 0.853830 0.219380 -0.608971
O27   O     O_R   0.414560 0.353830 0.280620 -0.613254
O28   O     O_R   0.585440 0.353830 0.280620 -0.641584
O29   O     O_R   0.585440 0.353830 0.719380 -0.646270
O30   O     O_R   0.414560 0.353830 0.719380 -0.609020
O31   O     O_R   0.000000 0.060730 0.866830 -0.592210
O32   O     O_R   1.000000 0.060730 0.133170 -0.617648
O33   O     O_R   0.500000 0.560730 0.366830 -0.592216
O34   O     O_3   0.500000 0.500000 0.750030 -0.501594
O35   O     O_R   0.500000 0.560730 0.633170 -0.617682
O36   O     O_R   0.939250 0.000010 0.633130 -0.627956
O37   O     O_R   0.060750 0.000010 0.633130 -0.649565
O38   O     O_R   0.060750 0.000010 0.366870 -0.645220
O39   O     O_R   0.939250 0.000010 0.366870 -0.653560
O40   O     O_R   0.439250 0.500010 0.133130 -0.627949
O41   O     O_R   0.560750 0.500010 0.133130 -0.649574
O42   O     O_R   0.560750 0.500010 0.866870 -0.645222
O43   O     O_R   0.439250 0.500010 0.866870 -0.653558
O44   O     O_R   0.000000 0.939270 0.866820 -0.658627
O45   O     O_R   0.853810 0.085480 0.719360 -0.619934
O46   O     O_R   0.000000 0.939270 0.133180 -0.655762
O47   O     O_R   0.500000 0.439270 0.366820 -0.658627
O48   O     O_R   0.500000 0.439270 0.633180 -0.655730
O49   O     O_3   0.958578 0.864304 0.559824 -0.602060
O50   O     O_3   0.128159 0.942548 0.552002 -0.601255
O51   O     O_3   0.120774 0.928983 0.452955 -0.550523
O52   O     O_3   0.998125 0.857558 0.454689 -0.593801
O53   O     O_3   0.458564 0.364307 0.059825 -0.602058
O54   O     O_3   0.628151 0.442531 0.052002 -0.601259
O55   O     O_3   0.620771 0.428976 0.952954 -0.550516
O56   O     O_R   0.146190 0.085480 0.719360 -0.611597
O57   O     O_3   0.498119 0.357556 0.954690 -0.593803
O58   O     O_3   0.101229 0.711321 0.741794 -0.597334
O59   O     O_3   0.810385 0.798803 0.844253 -0.571244
O60   O     O_3   0.818275 0.791938 0.156286 -0.569624
O61   O     O_3   0.102666 0.712807 0.269397 -0.608450
O62   O     O_3   0.601227 0.211321 0.241798 -0.597334
O63   O     O_3   0.310391 0.298797 0.344253 -0.571238
O64   O     O_3   0.318280 0.291923 0.656282 -0.569626
O65   O     O_3   0.602681 0.212823 0.769474 -0.608491
O66   O     O_3   0.926877 0.114753 0.053397 -0.597721
O67   O     O_R   0.146190 0.085480 0.280640 -0.605423
O68   O     O_3   0.924103 0.112854 0.946072 -0.592758
O69   O     O_3   0.426861 0.614744 0.553397 -0.597724
O70   O     O_3   0.424087 0.612844 0.446072 -0.592755
O71   O     O_R   0.853810 0.085480 0.280640 -0.614406
O72   O     O_R   0.353810 0.585480 0.219360 -0.619927
Zn1   Zn    Zn3+2 0.086750 0.999990 0.706190 0.990256
Zn2   Zn    Zn3+2 1.000000 0.086770 0.206250 0.981750
Zn3   Zn    Zn3+2 0.500000 0.586770 0.293750 0.998680
Zn4   Zn    Zn3+2 0.500000 0.586770 0.706250 0.981748
Zn5   Zn    Zn3+2 1.000000 0.913230 0.793740 0.986960
Zn6   Zn    Zn3+2 1.000000 0.913230 0.206260 0.982873
Zn7   Zn    Zn3+2 0.500000 0.413230 0.293740 0.986953
Zn8   Zn    Zn3+2 0.500000 0.413230 0.706260 0.982847
Zn9   Zn    Zn3+2 0.913250 0.999990 0.706190 1.016827
Zn10  Zn    Zn3+2 0.913250 0.999990 0.293810 0.995060
Zn11  Zn    Zn3+2 0.086750 0.999990 0.293810 0.986343
Zn12  Zn    Zn3+2 0.586750 0.499990 0.206190 0.990257
Zn13  Zn    Zn3+2 0.413250 0.499990 0.206190 1.016828
Zn14  Zn    Zn3+2 0.413250 0.499990 0.793810 0.995046
Zn15  Zn    Zn3+2 0.586750 0.499990 0.793810 0.986347
Zn16  Zn    Zn3+2 0.000000 0.086770 0.793750 0.998696

loop_
_geom_bond_atom_site_label_1
_geom_bond_atom_site_label_2
_ccdc_geom_bond_type
C70   C127  A    
C59   I16   S    
C133  C137  A    
O23   Zn12  S    
C50   C63   A    
C83   C102  S    
C55   C59   A    
C58   H46   S    
C30   H117  S    
C16   H82   S    
C19   C20   S    
C45   H30   S    
C42   H21   S    
C37   O65   S    
C134  I1    S    
O5    Zn1   S    
C50   H38   S    
C104  O39   A    
O41   Zn12  S    
C24   C54   A    
C82   C87   A    
O20   Zn4   S    
C105  C123  S    
C82   C99   S    
C75   O16   A    
C32   H124  S    
C27   H111  S    
O9    Zn12  S    
O31   Zn16  S    
O23   Zn3   S    
C68   C90   S    
C57   H45   S    
O40   Zn13  S    
C1    O45   A    
C83   C88   A    
O48   Zn8   S    
C21   C22   S    
C112  O53   S    
C4    H51   S    
C66   I7    S    
C130  C134  A    
C80   C83   A    
C26   H108  S    
C12   O53   S    
O12   Zn11  S    
C45   C47   S    
C34   O64   S    
C34   H3    S    
C116  C121  S    
C139  I13   S    
C39   H14   S    
C40   H17   S    
C8    H64   S    
C26   O60   S    
C9    H67   S    
C111  H63   S    
O16   Zn2   S    
C56   H44   S    
C100  O46   A    
O27   Zn7   S    
C43   C44   S    
O28   Zn7   S    
C37   C38   S    
O46   Zn6   S    
C113  H85   S    
C30   O62   S    
O11   Zn14  S    
C37   H7    S    
O7    Zn10  S    
C116  H2    S    
O1    Zn16  S    
C69   C126  A    
C117  H13   S    
C71   C128  A    
C73   C95   S    
C103  C121  S    
C22   H99   S    
C25   H104  S    
C103  O36   A    
C138  I12   S    
C64   O17   A    
C111  O52   S    
C140  I14   S    
C4    C5    S    
C114  O55   S    
C47   H31   S    
C76   C133  A    
C57   C61   A    
C6    C7    S    
C71   C93   S    
C125  C138  A    
C125  O58   S    
C33   H126  S    
C31   H121  S    
C27   H109  S    
C7    H61   S    
C109  C121  S    
C30   C31   S    
C77   C82   A    
O30   Zn8   S    
C29   H115  S    
C36   H4    S    
C118  C120  S    
C18   H87   S    
C41   H18   S    
C88   C89   A    
C79   H49   S    
C106  C124  S    
C14   H78   S    
O4    Zn14  S    
C76   C98   S    
C26   H106  S    
C46   C139  A    
C17   O55   S    
C21   H97   S    
C85   O66   S    
C97   O2    A    
C48   C57   A    
O23   Zn13  S    
C94   O9    A    
O1    Zn9   S    
O34   Zn14  S    
C44   H28   S    
C79   C84   A    
O15   Zn16  S    
C104  C122  S    
C90   O5    A    
C66   C74   A    
C67   I8    S    
C10   H68   S    
O39   Zn10  S    
C63   I5    S    
C46   C108  S    
C105  O40   A    
C31   H120  S    
C112  H74   S    
C119  O20   A    
C23   H101  S    
C106  O42   A    
C102  O35   A    
C4    O49   S    
C111  C122  S    
O56   Zn1   S    
C53   O14   A    
C51   H39   S    
C126  C139  A    
C48   C140  A    
C95   O10   A    
C74   C96   S    
C28   H113  S    
C131  O63   S    
C2    C51   A    
C39   C40   S    
C3    C128  A    
O12   Zn10  S    
C132  O64   S    
O71   Zn10  S    
C136  I10   S    
C117  C122  S    
C11   H72   S    
C132  C136  A    
C17   C18   S    
C14   H76   S    
C95   O27   A    
C5    H56   S    
C32   O63   S    
C127  C140  A    
C15   H79   S    
C96   O30   A    
C38   H11   S    
C116  H118  S    
C109  H41   S    
C137  I11   S    
C55   H43   S    
C93   O8    A    
C107  C111  S    
C49   C86   S    
C42   H20   S    
O72   Zn13  S    
O35   Zn4   S    
C45   H29   S    
O24   Zn5   S    
C6    H57   S    
C42   H22   S    
C24   C137  A    
O18   Zn3   S    
C89   O70   S    
C2    C135  A    
C99   O31   A    
C96   O11   A    
C72   C94   S    
O67   Zn11  S    
C60   C69   A    
C62   C71   A    
C34   C36   S    
C10   C11   S    
C36   H5    S    
C118  H34   S    
C1    C24   S    
C20   H93   S    
C46   C56   A    
O6    Zn9   S    
C10   O52   S    
C5    H54   S    
C97   O18   A    
C69   C91   S    
C98   O13   A    
C68   C125  A    
C81   C85   A    
C43   H23   S    
C61   C70   A    
C58   C62   A    
O47   Zn7   S    
C41   C42   S    
O37   Zn1   S    
C87   O68   S    
O21   Zn4   S    
C72   C129  A    
C91   O6    A    
C77   C78   A    
C48   C97   S    
C26   C27   S    
C28   C29   S    
C9    H66   S    
C11   H70   S    
C109  O50   S    
C126  O59   S    
C51   C65   A    
C7    H60   S    
O25   Zn6   S    
C120  H36   S    
C43   O69   S    
C64   O67   A    
C19   O57   S    
C40   H15   S    
C129  O62   S    
C38   H9    S    
C22   H100  S    
C75   C130  S    
C43   H25   S    
O1    Zn5   S    
C16   H81   S    
C12   H73   S    
O13   Zn15  S    
O3    Zn15  S    
C100  O32   A    
O34   Zn4   S    
C25   H103  S    
C117  H24   S    
C4    H53   S    
C112  C123  S    
C93   O25   A    
C56   C60   A    
C33   H125  S    
C44   H27   S    
C32   H123  S    
C28   H112  S    
C13   C53   S    
C13   C52   A    
C113  C123  S    
O8    Zn11  S    
C29   H114  S    
C47   H33   S    
C18   H88   S    
C53   O56   A    
O14   Zn16  S    
C108  O21   A    
C107  O49   S    
C107  C121  S    
C52   C66   A    
O12   Zn6   S    
C113  C114  S    
C115  C124  S    
C135  I9    S    
C1    O15   A    
C70   C92   S    
C18   H89   S    
C28   O61   S    
C81   C100  S    
O42   Zn15  S    
C88   O69   S    
C32   C33   S    
O34   Zn15  S    
C109  C110  S    
C110  C122  S    
O33   Zn3   S    
C78   C81   A    
O36   Zn9   S    
C21   H95   S    
C98   O29   A    
C118  C123  S    
C37   H8    S    
C19   H90   S    
O17   Zn2   S    
C129  C134  A    
O29   Zn8   S    
O34   Zn8   S    
C63   C72   A    
C115  O57   S    
O23   Zn7   S    
C86   O19   A    
O2    Zn12  S    
C17   H84   S    
C102  O48   A    
C16   H83   S    
C23   O59   S    
C12   H75   S    
C60   I2    S    
C61   I3    S    
C22   H98   S    
C25   H105  S    
C99   O44   A    
C133  O65   S    
C73   C131  A    
C39   O66   S    
C20   H92   S    
C74   C132  A    
C35   C119  S    
C120  H37   S    
C75   O71   A    
C47   H32   S    
C3    C49   A    
C92   O26   A    
C94   O28   A    
C33   H127  S    
C31   H122  S    
C34   H128  S    
C27   H110  S    
C131  C135  A    
C35   C138  A    
C90   O24   A    
C15   C16   S    
C65   C73   A    
C116  C117  S    
C29   H116  S    
C21   O58   S    
C104  O38   A    
C50   C130  A    
C11   H71   S    
C41   H19   S    
C106  O43   A    
O22   Zn5   S    
C54   H42   S    
C14   H77   S    
O38   Zn11  S    
C5    H55   S    
C114  C124  S    
C3    I15   S    
C84   C101  S    
O32   Zn2   S    
C2    C64   S    
C113  O54   S    
C85   C87   A    
O19   Zn3   S    
O26   Zn6   S    
C35   C55   A    
C30   H119  S    
C107  H1    S    
C6    H58   S    
O10   Zn13  S    
C8    C9    S    
C114  H96   S    
C54   C67   A    
C39   H12   S    
C49   C58   A    
O43   Zn14  S    
C52   H40   S    
C110  O51   S    
C59   C68   A    
C17   H86   S    
C10   H69   S    
C105  O41   A    
O1    Zn1   S    
C44   H26   S    
C23   H102  S    
C36   H6    S    
C12   C14   S    
C118  H35   S    
C20   H94   S    
C45   O70   S    
C77   H47   S    
C13   C136  A    
C6    O50   S    
C41   O68   S    
C78   H48   S    
C84   C89   A    
C101  O47   A    
C103  O37   A    
C65   I6    S    
C80   H50   S    
C128  O61   S    
C8    O51   S    
C115  H107  S    
O45   Zn9   S    
C86   O72   A    
C8    H62   S    
C108  O3    A    
C9    H65   S    
C92   O7    A    
C110  H52   S    
C15   O54   S    
C23   C25   S    
C101  O33   A    
C7    H59   S    
C127  O60   S    
O12   Zn2   S    
C79   C80   A    
C91   O22   A    
O44   Zn5   S    
C40   H16   S    
C67   C76   A    
C15   H80   S    
C19   H91   S    
C38   H10   S    
C112  C115  S    
C120  C124  S    
C62   I4    S    
C119  O4    A    
