data_mof_unit_43461.cif
_audit_creation_date              2012-12-11T14:51:45-0500
_audit_creation_method            fapswitch 2.2
_symmetry_space_group_name_H-M    P1
_symmetry_Int_Tables_number       1
_space_group_crystal_system       triclinic
_cell_length_a                    6.942291
_cell_length_b                    16.63926
_cell_length_c                    16.939552
_cell_angle_alpha                 101.381872
_cell_angle_beta                  90.424458
_cell_angle_gamma                 90.305765
_cell_volume                      1918.18414345

loop_
_atom_site_label
_atom_site_type_symbol
_atom_type_description
_atom_site_fract_x
_atom_site_fract_y
_atom_site_fract_z
_atom_type_partial_charge
O1    O     O_R   0.506340 0.439070 0.579550 -0.537217
O2    O     O_R   0.170010 0.404890 0.412100 -0.540246
O3    O     O_R   0.005010 0.560930 0.420450 -0.537625
C1    C     C_R   0.339145 0.381412 0.383300 0.676360
O4    O     O_R   0.176280 0.429360 0.578400 -0.541612
O5    O     O_R   0.011320 0.585570 0.587940 -0.537833
C2    C     C_R   0.344150 0.413648 0.605175 0.697362
O6    O     O_R   0.500030 0.414430 0.412060 -0.537885
O7    O     O_3   0.340950 0.551220 0.502940 -0.367575
V1    V     V_3+5 0.064020 0.490500 0.499460 1.398068
O8    O     O_R   0.681910 0.595110 0.587900 -0.541647
C3    C     C_R   0.851648 0.618484 0.616585 0.680103
O9    O     O_R   0.675640 0.570640 0.421600 -0.542375
C4    C     C_R   0.842361 0.586235 0.394631 0.699865
V2    V     V_3+5 0.564670 0.509500 0.500540 1.398308
O10   O     O_3   0.837610 0.448780 0.497060 -0.367341
C5    C     C_R   0.927831 0.861041 0.167121 -0.069857
C6    C     C_R   0.837783 0.639075 0.333095 -0.069747
C7    C     C_R   0.646970 0.696668 0.235711 -0.203588
C8    C     C_R   0.667469 0.641495 0.287534 -0.166205
C9    C     C_R   0.990013 0.692416 0.324083 -0.245970
C10   C     C_R   0.969405 0.748865 0.272305 0.161022
C11   C     C_R   0.796093 0.751346 0.228012 0.160915
C12   C     C_R   0.775538 0.807752 0.176187 -0.246024
C13   C     C_R   0.098070 0.858681 0.212746 -0.166522
C14   C     C_R   0.118511 0.803555 0.264621 -0.203580
H1    H     H_    0.644408 0.808206 0.141125 0.122173
H2    H     H_    0.218076 0.899139 0.207529 0.125874
H3    H     H_    0.513420 0.697035 0.202248 0.121680
H4    H     H_    0.252034 0.803211 0.298107 0.121552
H5    H     H_    0.547476 0.601027 0.292740 0.126063
H6    H     H_    0.121170 0.691941 0.359123 0.122111
C15   C     C_3   0.808593 0.818267 0.730989 -0.141287
C16   C     C_3   0.978406 0.768800 0.687115 -0.139685
H7    H     H_    0.056594 0.783734 0.634861 0.101617
H8    H     H_    0.747626 0.875011 0.715966 0.093650
C17   C     C_3   0.865893 0.688850 0.687271 -0.007536
C18   C     C_3   0.695903 0.737488 0.730306 -0.115272
C19   C     C_3   0.787751 0.731543 0.812586 -0.139081
C20   C     C_3   0.957583 0.682102 0.768732 -0.141072
C21   C     C_3   0.070256 0.762868 0.769402 -0.116154
C22   C     C_3   0.900266 0.811477 0.812451 -0.006940
H9    H     H_    0.541648 0.726673 0.713682 0.105828
H10   H     H_    0.709544 0.716634 0.864845 0.101802
H11   H     H_    0.018717 0.625404 0.783769 0.098397
H12   H     H_    0.224508 0.773697 0.786025 0.105986
C23   C     C_3   0.479938 0.234519 0.314069 -0.133327
C24   C     C_3   0.317769 0.179894 0.267985 -0.138576
H13   H     H_    0.264766 0.121516 0.282596 0.097794
H14   H     H_    0.559029 0.221856 0.367449 0.099383
C25   C     C_3   0.410026 0.189103 0.187640 -0.010724
C26   C     C_3   0.572044 0.242947 0.232955 -0.118197
C27   C     C_3   0.448376 0.320086 0.232055 -0.138002
C28   C     C_3   0.286200 0.265468 0.185978 -0.132802
C29   C     C_3   0.194100 0.257035 0.267091 -0.118534
C30   C     C_3   0.356116 0.310886 0.312394 -0.010546
H15   H     H_    0.727213 0.236829 0.218071 0.102953
H16   H     H_    0.501379 0.378469 0.217457 0.098323
H17   H     H_    0.207080 0.278132 0.132610 0.100971
H18   H     H_    0.038936 0.263153 0.281984 0.102884
C31   C     C_R   0.425039 0.136848 0.831228 -0.098751
C32   C     C_R   0.343308 0.361158 0.666946 -0.059876
C33   C     C_R   0.171228 0.312726 0.773748 -0.185544
C34   C     C_R   0.187505 0.366186 0.720183 -0.175899
C35   C     C_R   0.484165 0.301227 0.668655 -0.256043
C36   C     C_R   0.468150 0.244985 0.721665 0.103900
C37   C     C_R   0.308655 0.251614 0.774794 0.150396
C38   C     C_R   0.287780 0.197459 0.828525 -0.254109
C39   C     C_R   0.580799 0.129197 0.777651 -0.169637
C40   C     C_R   0.605138 0.181828 0.722314 0.070643
H19   H     H_    0.167951 0.204124 0.869956 0.122445
H20   H     H_    0.684038 0.081464 0.780405 0.114281
H21   H     H_    0.048612 0.318409 0.813659 0.118576
H22   H     H_    0.076213 0.411545 0.719953 0.120937
H23   H     H_    0.601269 0.297468 0.626385 0.118620
O11   O     O_R   0.266070 0.085680 0.087850 -0.537728
O12   O     O_R   0.590090 0.070660 0.921580 -0.541763
O13   O     O_R   0.754780 0.914400 0.912080 -0.538287
C41   C     C_R   0.422437 0.085956 0.894391 0.706858
O14   O     O_R   0.596110 0.095130 0.087880 -0.540090
O15   O     O_R   0.760850 0.939050 0.079570 -0.537569
C42   C     C_R   0.426977 0.118617 0.116684 0.677548
O16   O     O_R   0.260010 0.061030 0.920360 -0.537910
O17   O     O_3   0.425070 0.948840 0.997010 -0.367833
V3    V     V_3+5 0.702100 0.009490 0.000550 1.396798
O18   O     O_R   0.090200 0.929250 0.078500 -0.542474
C43   C     C_R   0.923416 0.913758 0.105476 0.700257
O19   O     O_R   0.084180 0.904770 0.912200 -0.541895
C44   C     C_R   0.914481 0.881629 0.883314 0.678351
V4    V     V_3+5 0.201420 0.990350 0.999580 1.397070
O20   O     O_3   0.928580 0.051150 0.002990 -0.367197
C45   C     C_3   0.774525 0.172023 0.664151 -0.372807
C46   C     C_3   0.916504 0.102715 0.669860 -0.310721
C47   C     C_3   0.078492 0.099664 0.608876 -0.752784
H24   H     H_    0.019242 0.084992 0.546556 0.220934
H25   H     H_    0.155673 0.159433 0.617915 0.238803
H26   H     H_    0.183023 0.051456 0.616621 0.215420
H27   H     H_    0.981448 0.112820 0.731180 0.202641
H28   H     H_    0.839779 0.042659 0.657476 0.185841
H29   H     H_    0.715527 0.160992 0.601698 0.172234
H30   H     H_    0.857177 0.230598 0.674871 0.185904

loop_
_geom_bond_atom_site_label_1
_geom_bond_atom_site_label_2
_ccdc_geom_bond_type
C24   C29   S    
C29   C30   S    
C46   C47   S    
C16   C17   S    
C21   C22   S    
C4    C6    S    
O2    C1    A    
C7    C8    A    
C12   H1    S    
C1    O6    A    
V3    O20   S    
C27   C28   S    
C13   H2    S    
C17   C18   S    
C15   C22   S    
C9    C10   A    
C17   C20   S    
O5    C3    A    
C18   C19   S    
V2    O10   S    
C6    C9    A    
C15   H8    S    
C16   H7    S    
C3    C17   S    
C32   C34   A    
O8    V2    S    
C24   C25   S    
C21   H12   S    
O1    V2    S    
C23   H14   S    
O7    V1    S    
C46   H28   S    
C36   C37   A    
O12   V3    S    
C5    C43   S    
O9    C4    A    
C1    C30   S    
C47   H24   S    
C16   C21   S    
O17   V4    S    
C19   C22   S    
C28   H17   S    
O12   C41   A    
O13   C44   A    
C20   H11   S    
C9    H6    S    
C33   C37   A    
C5    C12   A    
C37   C38   A    
O17   V3    S    
O14   C42   A    
O18   V4    S    
O11   C42   A    
C19   C20   S    
O4    C2    A    
O18   C43   A    
C33   H21   S    
C47   H26   S    
C13   C14   A    
C25   C26   S    
C39   H20   S    
C7    C11   A    
C2    C32   S    
O14   V3    S    
C23   C24   S    
C11   C12   A    
C15   C16   S    
C47   H25   S    
C25   C42   S    
O15   C43   A    
O3    C4    A    
C45   H30   S    
O13   V3    S    
C24   H13   S    
O19   V4    S    
C14   H4    S    
O6    V2    S    
O9    V2    S    
O2    V1    S    
C26   C27   S    
C45   H29   S    
C27   C30   S    
C31   C39   A    
O16   V4    S    
C28   C29   S    
C20   C21   S    
C32   C35   A    
O1    C2    A    
C40   C45   S    
O5    V1    S    
C27   H16   S    
C19   H10   S    
C15   C18   S    
C35   H23   S    
C25   C28   S    
C5    C13   A    
C22   C44   S    
O7    V2    S    
O4    V1    S    
O3    V1    S    
V1    O10   S    
C41   O16   A    
C31   C38   A    
V4    O20   S    
C36   C40   A    
C31   C41   S    
C38   H19   S    
C45   C46   S    
C6    C8    A    
C39   C40   A    
C26   H15   S    
C33   C34   A    
C18   H9    S    
O19   C44   A    
C35   C36   A    
C10   C14   A    
C23   C26   S    
C34   H22   S    
C10   C11   A    
C29   H18   S    
C46   H27   S    
O15   V3    S    
O8    C3    A    
O11   V4    S    
C23   C30   S    
C8    H5    S    
C7    H3    S    
