data_mof_unit_31081.cif
_audit_creation_date              2012-12-11T16:29:35-0500
_audit_creation_method            fapswitch 2.2
_symmetry_space_group_name_H-M    P1
_symmetry_Int_Tables_number       1
_space_group_crystal_system       triclinic
_cell_length_a                    6.951431
_cell_length_b                    17.268899
_cell_length_c                    18.816872
_cell_angle_alpha                 106.170597
_cell_angle_beta                  89.69056
_cell_angle_gamma                 90.447458
_cell_volume                      2169.39864195

loop_
_atom_site_label
_atom_site_type_symbol
_atom_type_description
_atom_site_fract_x
_atom_site_fract_y
_atom_site_fract_z
_atom_type_partial_charge
O1    O     O_R   0.494360 0.415680 0.413760 -0.539661
O2    O     O_R   0.818810 0.432910 0.557230 -0.519062
O3    O     O_R   0.994290 0.584320 0.586240 -0.528000
C1    C     C_R   0.649875 0.415986 0.580641 0.713254
O4    O     O_R   0.823740 0.406440 0.412520 -0.540032
O5    O     O_R   0.999250 0.557660 0.440500 -0.512593
C2    C     C_R   0.654540 0.383517 0.385018 0.676810
O6    O     O_R   0.489400 0.442340 0.559500 -0.510768
O7    O     O_3   0.662500 0.549650 0.509350 -0.347512
V1    V     V_3+5 0.935340 0.490790 0.498270 1.489575
O8    O     O_R   0.329270 0.567090 0.442770 -0.529720
C3    C     C_R   0.161324 0.583728 0.419104 0.715348
O9    O     O_R   0.324340 0.593560 0.587480 -0.532983
C4    C     C_R   0.153997 0.618604 0.613584 0.713541
V2    V     V_3+5 0.435970 0.509210 0.501730 1.480131
O10   O     O_3   0.158940 0.450350 0.490650 -0.352191
C5    C     C_R   0.175888 0.589153 0.762951 -0.112932
C6    C     C_R   0.200344 0.578037 0.833792 -0.142865
C7    C     C_R   0.163211 0.641295 0.896656 -0.133226
C8    C     C_R   0.104390 0.715926 0.889362 0.360825
C9    C     C_R   0.121942 0.734200 0.820010 -0.030514
C10   C     C_R   0.146951 0.668819 0.754377 -0.017830
C11   C     C_R   0.118186 0.815751 0.815767 -0.162109
C12   C     C_R   0.128347 0.832469 0.745406 0.008703
C13   C     C_R   0.113577 0.766500 0.679956 -0.027260
C14   C     C_R   0.137277 0.685305 0.683726 -0.131755
C15   C     C_R   0.150278 0.912580 0.736626 -0.164380
C16   C     C_R   0.169862 0.923475 0.665533 -0.130098
C17   C     C_R   0.117042 0.861319 0.603782 0.422937
C18   C     C_R   0.076033 0.784784 0.611903 -0.158662
C19   C     C_1   0.111601 0.864460 0.133077 -0.147123
C20   C     C_1   0.119023 0.821884 0.176646 0.047347
C21   C     C_1   0.128396 0.771658 0.228514 0.046328
C22   C     C_1   0.136437 0.729289 0.272260 0.046818
C23   C     C_1   0.145958 0.678853 0.323954 0.046791
C24   C     C_1   0.153589 0.635993 0.367281 -0.172071
C25   C     C_1   0.641290 0.364059 0.632679 -0.177097
C26   C     C_1   0.636901 0.321428 0.676231 0.029778
C27   C     C_1   0.633292 0.271067 0.728012 0.046786
C28   C     C_1   0.630691 0.228573 0.771697 0.054594
C29   C     C_1   0.627362 0.178108 0.823377 0.038757
C30   C     C_1   0.623309 0.135337 0.866800 -0.156368
H1    H     H_    0.770098 0.134648 0.448544 0.139307
C31   C     C_R   0.557870 0.407831 0.244422 -0.212864
C32   C     C_R   0.525890 0.424247 0.177095 -0.101143
C33   C     C_R   0.552203 0.363418 0.111000 -0.127031
C34   C     C_R   0.606037 0.285598 0.112908 0.373857
C35   C     C_R   0.609339 0.265058 0.181437 -0.023277
C36   C     C_R   0.601315 0.329109 0.247980 0.010929
C37   C     C_R   0.624039 0.183573 0.185003 -0.172847
C38   C     C_R   0.652265 0.167590 0.255336 -0.047927
C39   C     C_R   0.670880 0.234536 0.320144 0.078609
C40   C     C_R   0.642247 0.314555 0.316638 -0.120790
C41   C     C_R   0.664632 0.087666 0.264726 -0.154540
C42   C     C_R   0.704398 0.076660 0.334577 0.479387
C43   C     C_R   0.733915 0.143110 0.395305 -0.203415
C44   C     C_R   0.713377 0.220436 0.388783 -0.219509
H2    H     H_    0.546326 0.457596 0.294117 0.124939
H3    H     H_    0.731391 0.269207 0.438819 0.122686
O11   O     O_R   0.775690 0.057750 0.940570 -0.522206
O12   O     O_R   0.441200 0.093570 0.087490 -0.538738
O13   O     O_R   0.265840 0.942320 0.059480 -0.519948
C45   C     C_R   0.610494 0.116277 0.115442 0.805252
O14   O     O_R   0.446270 0.067110 0.942790 -0.511753
O15   O     O_R   0.270950 0.915660 0.913750 -0.541323
C46   C     C_R   0.615009 0.083334 0.918774 0.784194
O16   O     O_R   0.770580 0.084400 0.086300 -0.535036
O17   O     O_3   0.602640 0.950400 0.990690 -0.368779
V3    V     V_3+5 0.329740 0.009200 0.001730 1.486715
O18   O     O_R   0.940900 0.906360 0.912450 -0.530616
C47   C     C_R   0.109897 0.883100 0.885194 0.808781
O19   O     O_R   0.935830 0.932820 0.057160 -0.516578
C48   C     C_R   0.103865 0.916433 0.081022 0.778738
V4    V     V_3+5 0.829130 0.990680 0.998180 1.474392
O20   O     O_3   0.106100 0.049590 0.009310 -0.365628
O21   O     O_3   0.108851 0.874165 0.534215 -0.552511
C49   C     C_3   0.933379 0.912014 0.526952 -0.216028
H4    H     H_    0.928507 0.974742 0.563538 0.139841
H5    H     H_    0.806714 0.877375 0.538187 0.135890
H6    H     H_    0.921204 0.915240 0.469083 0.184805
C50   C     C_1   0.475415 0.505304 0.177089 0.327479
N1    N     N_1   0.435170 0.570181 0.177021 -0.323686
C51   C     C_1   0.531518 0.380548 0.040363 0.367712
N2    N     N_1   0.515239 0.394149 0.983867 -0.304113
O22   O     O_3   0.668662 0.232117 0.047894 -0.577195
C52   C     C_3   0.868393 0.244727 0.041050 -0.207992
H7    H     H_    0.949986 0.230523 0.086551 0.135815
H8    H     H_    0.901253 0.307440 0.039531 0.135414
H9    H     H_    0.920385 0.204003 0.988119 0.175176
C53   C     C_1   0.629061 0.014271 0.206482 0.302568
N3    N     N_1   0.600475 0.954691 0.160977 -0.335953
O23   O     O_3   0.727533 0.999723 0.342147 -0.557200
C54   C     C_3   0.564820 0.979627 0.378649 -0.232025
H10   H     H_    0.429532 0.984648 0.348814 0.144753
H11   H     H_    0.556795 0.017463 0.437033 0.140484
H12   H     H_    0.577660 0.915954 0.379683 0.175088
C55   C     C_1   0.171307 0.515835 0.702260 0.285601
N4    N     N_1   0.166056 0.456104 0.655282 -0.316367
C56   C     C_1   0.252470 0.499598 0.842169 0.342022
N5    N     N_1   0.293844 0.437143 0.848649 -0.305306
C57   C     C_1   0.174818 0.629519 0.969886 0.369104
N6    N     N_1   0.184062 0.620205 0.028345 -0.313561
O24   O     O_3   0.023964 0.769722 0.950646 -0.576495
C58   C     C_3   0.825180 0.752014 0.951739 -0.187422
H13   H     H_    0.798808 0.689819 0.956031 0.129494
H14   H     H_    0.751486 0.760469 0.902061 0.128451
H15   H     H_    0.758985 0.794017 0.001188 0.177521
C59   C     C_1   0.143476 0.986131 0.796948 0.262685
N7    N     N_1   0.135556 0.046003 0.843653 -0.330740
C60   C     C_1   0.230837 0.000382 0.655542 0.349033
N8    N     N_1   0.279663 0.061681 0.647624 -0.357289
C61   C     C_1   0.948132 0.736085 0.557075 0.312487
N9    N     N_1   0.839713 0.700609 0.513467 -0.322885

loop_
_geom_bond_atom_site_label_1
_geom_bond_atom_site_label_2
_ccdc_geom_bond_type
C31   C36   A    
C42   C43   A    
C36   C40   A    
C54   H10   S    
C29   C30   T    
C7    C8    A    
C12   C15   A    
C1    O6    A    
C58   H14   S    
C55   N4    T    
C8    O24   S    
O22   C52   S    
C43   C44   A    
C42   O23   S    
C51   N2    T    
C34   O22   S    
C16   C17   A    
C41   C53   S    
O5    C3    A    
C26   C27   S    
C52   H8    S    
C44   H3    S    
O17   V4    S    
V2    O10   S    
C59   N7    T    
C22   C23   S    
O12   C45   A    
C60   N8    T    
C61   N9    T    
C41   C42   A    
O8    V2    S    
C56   N5    T    
C31   H2    S    
O17   V3    S    
O18   V4    S    
C11   C12   A    
O13   C48   A    
O18   C47   A    
O1    V2    S    
C3    C24   S    
C17   C18   A    
O7    V1    S    
C35   C37   A    
O11   C46   A    
C54   H11   S    
O9    C4    A    
C37   C45   S    
C58   H13   S    
C5    C6    A    
O21   C49   S    
C49   H5    S    
C45   O16   A    
V4    O20   S    
C38   C39   A    
C57   N6    T    
C11   C47   S    
C12   C13   A    
O19   V4    S    
C27   C28   T    
C17   O21   S    
C52   H7    S    
C6    C7    A    
C37   C38   A    
C13   C14   A    
C49   H4    S    
C50   N1    T    
O13   V3    S    
C18   C61   S    
C23   C24   T    
O14   C46   A    
O2    C1    A    
C25   C26   T    
C34   C35   A    
C8    C9    A    
C21   C22   T    
O16   V4    S    
O14   V3    S    
C4    C14   S    
O3    C4    A    
C35   C36   A    
O6    V2    S    
C9    C11   A    
C6    C56   S    
C2    C40   S    
O2    V1    S    
O24   C58   S    
C31   C32   A    
O4    C2    A    
C49   H6    S    
O12   V3    S    
C13   C18   A    
C33   C34   A    
C28   C29   S    
O1    C2    A    
C19   C20   T    
C32   C50   S    
O19   C48   A    
C52   H9    S    
O5    V1    S    
O8    C3    A    
C54   H12   S    
C5    C10   A    
C38   C41   A    
C16   C60   S    
C20   C21   S    
O9    V2    S    
O7    V2    S    
O4    V1    S    
O3    V1    S    
V1    O10   S    
C7    C57   S    
C53   N3    T    
C15   C59   S    
O15   V3    S    
O11   V4    S    
O23   C54   S    
V3    O20   S    
C19   C48   S    
C39   C44   A    
C33   C51   S    
C32   C33   A    
H1    C43   S    
O15   C47   A    
C1    C25   S    
C10   C14   A    
C15   C16   A    
C30   C46   S    
C9    C10   A    
C5    C55   S    
C58   H15   S    
C39   C40   A    
