data_mof_unit_33165.cif
_audit_creation_date              2012-12-10T18:45:05-0500
_audit_creation_method            fapswitch 2.2
_symmetry_space_group_name_H-M    P1
_symmetry_Int_Tables_number       1
_space_group_crystal_system       triclinic
_cell_length_a                    10.729878
_cell_length_b                    9.838781
_cell_length_c                    10.61938
_cell_angle_alpha                 90.086752
_cell_angle_beta                  89.904599
_cell_angle_gamma                 91.062772
_cell_volume                      1120.88083478

loop_
_atom_site_label
_atom_site_type_symbol
_atom_type_description
_atom_site_fract_x
_atom_site_fract_y
_atom_site_fract_z
_atom_type_partial_charge
C1    C     C_R   0.260329 0.499180 0.509036 0.961955
C2    C     C_R   0.740579 0.502401 0.494633 0.887505
C3    C     C_R   0.942384 0.631046 0.517967 0.330820
C4    C     C_R   0.066053 0.618405 0.554397 0.341877
C5    C     C_R   0.539198 0.072852 0.603196 -0.042963
C6    C     C_R   0.460069 0.070920 0.397072 -0.064999
C7    C     C_R   0.538360 0.929076 0.603492 0.044116
C8    C     C_R   0.460312 0.927122 0.396978 -0.027540
C9    C     C_R   0.501158 0.499877 0.260392 0.850384
C10   C     C_R   0.501625 0.500083 0.739565 0.893885
C11   C     C_R   0.729262 0.575055 0.131221 -0.146303
C12   C     C_R   0.729104 0.577495 0.868569 -0.166959
C13   C     C_R   0.837552 0.611174 0.065617 -0.106552
C14   C     C_R   0.837508 0.612064 0.934514 -0.094168
C15   C     C_R   0.618717 0.540331 0.933939 0.068264
C16   C     C_R   0.618756 0.539452 0.065836 0.076015
C17   C     C_R   0.508182 0.499295 0.128214 -0.081538
C18   C     C_R   0.508302 0.499965 0.871677 -0.096665
C19   C     C_R   0.401758 0.455733 0.064381 -0.215639
C20   C     C_R   0.401959 0.455659 0.935569 -0.164859
C21   C     C_R   0.062313 0.383674 0.477850 -0.221800
C22   C     C_R   0.935326 0.386774 0.470196 -0.208408
C23   C     C_R   0.874293 0.509036 0.490502 -0.240790
C24   C     C_R   0.127762 0.499010 0.518845 -0.220944
H1    H     H_    0.318268 0.423357 0.114604 0.150148
H2    H     H_    0.318703 0.422842 0.885395 0.181693
H3    H     H_    0.733345 0.572927 0.232805 0.166786
H4    H     H_    0.733098 0.578079 0.766794 0.147080
H5    H     H_    0.921938 0.637338 0.116633 0.168578
H6    H     H_    0.922042 0.638090 0.883866 0.200570
H7    H     H_    0.108954 0.290805 0.452305 0.210592
H8    H     H_    0.885335 0.294066 0.444659 0.209968
H9    H     H_    0.571121 0.127784 0.685657 0.143987
H10   H     H_    0.427760 0.124335 0.314787 0.141781
H11   H     H_    0.569099 0.875651 0.686398 0.148710
H12   H     H_    0.428258 0.872130 0.314608 0.141501
N1    N     N_R   0.500000 0.857200 0.500000 -0.076292
N2    N     N_R   0.500000 0.142810 0.500000 -0.090690
O1    O     O_R   0.316770 0.614620 0.499990 -0.556276
O2    O     O_R   0.683230 0.614620 0.500010 -0.546312
O3    O     O_R   0.316800 0.385290 0.500000 -0.627599
O4    O     O_R   0.683200 0.385290 0.500000 -0.625865
O5    O     O_R   0.500010 0.614690 0.316770 -0.624113
O6    O     O_R   0.499990 0.614690 0.683230 -0.611833
O7    O     O_R   0.500040 0.385360 0.316770 -0.629166
O8    O     O_R   0.499960 0.385360 0.683230 -0.627827
Zn1   Zn    Zn3+2 0.500000 0.653120 0.500000 1.038868
Zn2   Zn    Zn3+2 0.500000 0.346880 0.500000 0.967441
S1    S     S_3+6 0.883820 0.797793 0.490456 0.062520
O9    O     O_2   0.809204 0.841055 0.602933 -0.298669
O10   O     O_2   0.988499 0.898777 0.469543 -0.235485
O11   O     O_3   0.793343 0.798833 0.361199 -0.573537
H13   H     H_    0.754251 0.889258 0.361337 0.371813
S2    S     S_3+6 0.136306 0.739042 0.660199 0.060284
O12   O     O_2   0.210411 0.843886 0.587617 -0.253297
O13   O     O_2   0.038698 0.809301 0.736691 -0.262200
O14   O     O_3   0.231793 0.657891 0.759035 -0.606549
H14   H     H_    0.274809 0.730960 0.807432 0.378695

loop_
_geom_bond_atom_site_label_1
_geom_bond_atom_site_label_2
_ccdc_geom_bond_type
C10   O8    A    
C15   C18   A    
C6    N2    A    
C9    O7    A    
C13   C14   A    
N1    Zn1   S    
O6    Zn1   S    
C11   C13   A    
C11   C16   A    
C22   H8    S    
C3    C23   A    
C19   C20   A    
C12   C15   A    
C11   H3    S    
S1    O11   S    
C6    H10   S    
C3    S1    S    
O4    Zn2   S    
C21   C22   A    
C9    C17   S    
C21   H7    S    
S2    O12   D    
O14   H14   S    
C20   H2    S    
C14   H6    S    
C19   H1    S    
C10   C18   S    
C13   H5    S    
C17   C19   A    
O3    Zn2   S    
C2    O4    A    
C18   C20   A    
C7    N1    A    
C4    C24   A    
S2    O13   D    
C9    O5    A    
C8    N1    A    
C1    O1    A    
C10   O6    A    
C15   C16   A    
O8    Zn2   S    
C2    O2    A    
C7    H11   S    
N2    Zn2   S    
O11   H13   S    
C12   H4    S    
C1    C24   S    
O1    Zn1   S    
S1    O9    D    
C8    H12   S    
C21   C24   A    
C1    O3    A    
C2    C23   S    
C5    C7    A    
C22   C23   A    
C6    C8    A    
O7    Zn2   S    
C4    S2    S    
C5    N2    A    
O2    Zn1   S    
O5    Zn1   S    
C3    C4    A    
C12   C14   A    
C16   C17   A    
S1    O10   D    
S2    O14   S    
C5    H9    S    
