data_mof_unit_43899.cif
_audit_creation_date              2012-12-11T14:28:15-0500
_audit_creation_method            fapswitch 2.2
_symmetry_space_group_name_H-M    P1
_symmetry_Int_Tables_number       1
_space_group_crystal_system       triclinic
_cell_length_a                    11.028155
_cell_length_b                    19.45814
_cell_length_c                    18.628224
_cell_angle_alpha                 90.612003
_cell_angle_beta                  90.546997
_cell_angle_gamma                 89.946644
_cell_volume                      3996.97028942

loop_
_atom_site_label
_atom_site_type_symbol
_atom_type_description
_atom_site_fract_x
_atom_site_fract_y
_atom_site_fract_z
_atom_type_partial_charge
C1    C     C_R   0.318513 0.963770 0.644715 0.529259
C2    C     C_R   0.321160 0.970047 0.852828 0.540027
C3    C     C_R   0.319029 0.038087 0.356138 0.554390
C4    C     C_R   0.319085 0.031105 0.146060 0.552413
C5    C     C_R   0.818513 0.463770 0.644715 0.529237
C6    C     C_R   0.821176 0.470059 0.852817 0.539991
C7    C     C_R   0.819029 0.538087 0.356138 0.554396
C8    C     C_R   0.819074 0.531120 0.146044 0.552373
C9    C     C_3   0.129809 0.690956 0.478302 -0.066074
C10   C     C_3   0.142762 0.690871 0.021002 -0.115215
C11   C     C_3   0.146071 0.262946 0.540256 -0.086581
C12   C     C_3   0.089830 0.322721 0.984003 -0.110572
C13   C     C_3   0.629809 0.190956 0.478302 -0.066073
C14   C     C_3   0.642932 0.190962 0.021051 -0.115245
C15   C     C_3   0.646071 0.762946 0.540256 -0.086580
C16   C     C_3   0.589646 0.822780 0.984050 -0.110743
C17   C     C_3   0.024471 0.726195 0.438868 0.009700
C18   C     C_3   0.041793 0.726827 0.063204 0.001660
C19   C     C_3   0.014733 0.274901 0.561239 -0.011335
C20   C     C_3   0.057078 0.262924 0.933418 0.013851
C21   C     C_3   0.524471 0.226195 0.438868 0.009700
C22   C     C_3   0.541847 0.226859 0.063215 0.001668
C23   C     C_3   0.514733 0.774901 0.561239 -0.011344
C24   C     C_3   0.556947 0.762983 0.933454 0.013759
C25   C     C_R   0.321908 0.019772 0.429778 -0.000243
C26   C     C_R   0.323135 0.999802 0.073563 -0.024838
C27   C     C_R   0.320936 0.987863 0.572636 -0.025556
C28   C     C_R   0.330505 0.005825 0.922942 -0.011682
C29   C     C_R   0.821908 0.519772 0.429778 -0.000251
C30   C     C_R   0.823094 0.499856 0.073523 -0.024927
C31   C     C_R   0.820936 0.487863 0.572636 -0.025550
C32   C     C_R   0.830580 0.505895 0.922902 -0.011826
C33   C     C_R   0.543588 0.991079 0.428444 -0.081502
C34   C     C_R   0.545545 0.985892 0.076531 -0.085525
C35   C     C_R   0.545088 0.006090 0.576341 -0.083522
C36   C     C_R   0.553753 0.009425 0.929718 -0.102350
C37   C     C_R   0.043588 0.491079 0.428444 -0.081503
C38   C     C_R   0.045454 0.485791 0.076554 -0.085515
C39   C     C_R   0.045088 0.506090 0.576341 -0.083520
C40   C     C_R   0.053848 0.509356 0.929747 -0.102364
C41   C     C_R   0.652692 0.988764 0.466344 -0.140083
C42   C     C_R   0.656270 0.995822 0.043584 -0.115348
C43   C     C_R   0.653267 0.999130 0.540124 -0.092777
C44   C     C_R   0.659954 0.009453 0.970608 -0.123254
C45   C     C_R   0.152692 0.488764 0.466344 -0.140082
C46   C     C_R   0.156234 0.495626 0.043644 -0.115344
C47   C     C_R   0.153267 0.499130 0.540124 -0.092778
C48   C     C_R   0.160021 0.509267 0.970670 -0.123289
C49   C     C_R   0.432793 0.002027 0.539246 -0.030742
C50   C     C_R   0.439963 0.002826 0.962840 -0.004808
C51   C     C_R   0.433042 0.004379 0.464503 -0.011471
C52   C     C_R   0.435893 0.995811 0.038228 -0.010966
C53   C     C_R   0.932794 0.502026 0.539246 -0.030738
C54   C     C_R   0.940009 0.502830 0.962831 -0.004798
C55   C     C_R   0.933042 0.504379 0.464503 -0.011473
C56   C     C_R   0.935864 0.495805 0.038218 -0.010941
C57   C     C_R   0.210152 0.988125 0.532285 -0.003283
C58   C     C_R   0.220286 0.015646 0.959132 0.014704
C59   C     C_R   0.210650 0.021911 0.468583 0.004626
C60   C     C_R   0.214204 0.999494 0.031816 0.020627
C61   C     C_R   0.710152 0.488125 0.532285 -0.003282
C62   C     C_R   0.720369 0.515799 0.959061 0.014674
C63   C     C_R   0.710650 0.521911 0.468583 0.004621
C64   C     C_R   0.714195 0.499624 0.031738 0.020616
C65   C     C_R   0.098194 0.957029 0.551681 -0.052422
C66   C     C_R   0.111512 0.031025 0.921646 -0.036282
C67   C     C_R   0.096932 0.049697 0.444311 -0.066890
C68   C     C_R   0.098262 0.982724 0.059061 -0.020996
C69   C     C_R   0.598194 0.457029 0.551681 -0.052426
C70   C     C_R   0.611660 0.531222 0.921530 -0.036421
C71   C     C_R   0.596932 0.549697 0.444311 -0.066887
C72   C     C_R   0.598208 0.482860 0.058914 -0.021051
C73   C     C_R   0.988725 0.979071 0.522701 -0.091445
C74   C     C_R   0.003189 0.004415 0.945198 -0.020684
C75   C     C_R   0.988022 0.027961 0.470721 -0.112029
C76   C     C_R   0.997752 0.976909 0.013479 -0.036916
C77   C     C_R   0.488725 0.479071 0.522702 -0.091451
C78   C     C_R   0.503298 0.504607 0.945007 -0.020782
C79   C     C_R   0.488022 0.527961 0.470721 -0.112025
C80   C     C_R   0.497765 0.477061 0.013269 -0.036848
C81   C     C_R   0.130814 0.757215 0.645167 0.562913
C82   C     C_R   0.133720 0.758567 0.856271 0.575303
C83   C     C_R   0.138431 0.241175 0.358007 0.578253
C84   C     C_R   0.130725 0.242698 0.144937 0.574021
C85   C     C_R   0.630814 0.257215 0.645167 0.562916
C86   C     C_R   0.633779 0.258585 0.856285 0.575370
C87   C     C_R   0.638431 0.741175 0.358007 0.578259
C88   C     C_R   0.630713 0.742705 0.144946 0.574078
C89   C     C_R   0.493742 0.788011 0.637963 0.547693
C90   C     C_R   0.534779 0.773303 0.857702 0.583850
C91   C     C_R   0.497644 0.212837 0.362482 0.567129
C92   C     C_R   0.503596 0.213936 0.136963 0.560066
C93   C     C_R   0.993742 0.288011 0.637963 0.547684
C94   C     C_R   0.034943 0.273238 0.857654 0.583865
C95   C     C_R   0.997644 0.712837 0.362482 0.567129
C96   C     C_R   0.003579 0.713928 0.136964 0.560099
C97   C     C_3   0.059446 0.796185 0.471459 -0.000576
C98   C     C_3   0.080091 0.796879 0.035879 -0.007437
C99   C     C_3   0.974980 0.214119 0.514143 -0.010344
C100  C     C_3   0.148524 0.215425 0.967262 -0.022630
C101  C     C_3   0.559446 0.296185 0.471459 -0.000580
C102  C     C_3   0.580046 0.296936 0.035894 -0.007386
C103  C     C_3   0.474980 0.714119 0.514143 -0.010345
C104  C     C_3   0.648467 0.715514 0.967265 -0.022628
C105  C     C_3   0.165001 0.761553 0.510841 -0.111849
C106  C     C_3   0.177808 0.761886 0.991150 -0.157242
C107  C     C_3   0.107041 0.202371 0.492874 -0.198296
C108  C     C_3   0.184428 0.275386 0.018221 -0.128113
C109  C     C_3   0.665001 0.261553 0.510841 -0.111849
C110  C     C_3   0.677886 0.261996 0.991208 -0.157354
C111  C     C_3   0.607041 0.702371 0.492874 -0.198297
C112  C     C_3   0.684322 0.775475 0.018235 -0.128068
C113  C     C_3   0.079879 0.747186 0.573457 0.052786
C114  C     C_3   0.087186 0.750970 0.929249 0.072120
C115  C     C_3   0.089353 0.252366 0.430125 0.050666
C116  C     C_3   0.086449 0.251443 0.071307 0.059871
C117  C     C_3   0.579879 0.247186 0.573457 0.052785
C118  C     C_3   0.587319 0.251020 0.929280 0.072075
C119  C     C_3   0.589353 0.752366 0.430125 0.050667
C120  C     C_3   0.586403 0.751474 0.071330 0.059919
C121  C     C_3   0.974758 0.782842 0.534949 0.185743
C122  C     C_3   0.988739 0.787807 0.972613 0.221163
C123  C     C_3   0.956877 0.263365 0.450344 0.196346
C124  C     C_3   0.051136 0.192136 0.020719 0.220247
C125  C     C_3   0.474758 0.282842 0.534949 0.185743
C126  C     C_3   0.488752 0.287802 0.972608 0.221180
C127  C     C_3   0.456877 0.763365 0.450344 0.196347
C128  C     C_3   0.551138 0.692169 0.020735 0.220158
C129  C     C_3   0.938225 0.712388 0.501753 -0.152231
C130  C     C_3   0.951354 0.716392 0.001638 -0.128285
C131  C     C_3   0.995828 0.325105 0.498602 -0.131477
C132  C     C_3   0.958861 0.239127 0.984395 -0.120167
C133  C     C_3   0.438225 0.212388 0.501753 -0.152230
C134  C     C_3   0.451474 0.216365 0.001621 -0.128364
C135  C     C_3   0.495828 0.825105 0.498602 -0.131481
C136  C     C_3   0.458796 0.739129 0.984436 -0.120168
C137  C     C_3   0.044569 0.677420 0.541699 -0.137412
C138  C     C_3   0.052061 0.680793 0.958372 -0.130324
C139  C     C_3   0.129611 0.313359 0.477570 -0.087127
C140  C     C_3   0.992297 0.298859 0.037110 -0.159566
C141  C     C_3   0.544569 0.177421 0.541699 -0.137411
C142  C     C_3   0.552293 0.180826 0.958395 -0.130309
C143  C     C_3   0.629611 0.813359 0.477570 -0.087128
C144  C     C_3   0.492173 0.798858 0.037165 -0.159506
Cr1   Cr    Cr6+3 0.488160 0.884660 0.750000 1.043684
Cr2   Cr    Cr6+3 0.488160 0.115340 0.250000 1.030294
Cr3   Cr    Cr6+3 0.988160 0.384660 0.750000 1.043652
Cr4   Cr    Cr6+3 0.988160 0.615340 0.250000 1.030343
Cr5   Cr    Cr6+3 0.173480 0.883120 0.750000 1.081400
Cr6   Cr    Cr6+3 0.173480 0.116880 0.250000 1.077409
Cr7   Cr    Cr6+3 0.673480 0.383120 0.750000 1.081425
Cr8   Cr    Cr6+3 0.673480 0.616880 0.250000 1.077454
Cr9   Cr    Cr6+3 0.333410 0.727260 0.750000 1.039040
Cr10  Cr    Cr6+3 0.333410 0.272740 0.250000 1.047783
Cr11  Cr    Cr6+3 0.833410 0.227260 0.750000 1.039049
Cr12  Cr    Cr6+3 0.833410 0.772740 0.250000 1.047708
H1    H     H_    0.254142 0.785785 0.520614 0.121537
H2    H     H_    0.258388 0.794131 0.982873 0.106700
H3    H     H_    0.162281 0.156072 0.498932 0.105105
H4    H     H_    0.272560 0.294813 0.038206 0.176113
H5    H     H_    0.754142 0.285785 0.520614 0.121539
H6    H     H_    0.758475 0.294256 0.982996 0.106748
H7    H     H_    0.662281 0.656072 0.498932 0.105105
H8    H     H_    0.772450 0.794926 0.038201 0.176176
H9    H     H_    0.904689 0.958108 0.539280 0.177069
H10   H     H_    0.925515 0.005077 0.909806 0.133682
H11   H     H_    0.903962 0.047686 0.448847 0.124853
H12   H     H_    0.913733 0.956833 0.033427 0.140753
H13   H     H_    0.404689 0.458108 0.539280 0.177069
H14   H     H_    0.425678 0.505304 0.909571 0.133461
H15   H     H_    0.403963 0.547687 0.448847 0.124857
H16   H     H_    0.413707 0.456995 0.033163 0.140830
H17   H     H_    0.848683 0.689090 0.493529 0.098501
H18   H     H_    0.867735 0.690272 0.017993 0.104863
H19   H     H_    0.943012 0.372859 0.502614 0.135613
H20   H     H_    0.878387 0.213173 0.961335 0.161301
H21   H     H_    0.348683 0.189090 0.493529 0.098501
H22   H     H_    0.367886 0.190187 0.017939 0.104938
H23   H     H_    0.443012 0.872859 0.502614 0.135612
H24   H     H_    0.378385 0.713110 0.961385 0.161349
H25   H     H_    0.037390 0.633131 0.577315 0.144098
H26   H     H_    0.037923 0.637222 0.921200 0.150617
H27   H     H_    0.197480 0.352384 0.462394 0.170846
H28   H     H_    0.927668 0.332219 0.066687 0.141589
H29   H     H_    0.537389 0.133131 0.577315 0.144099
H30   H     H_    0.538288 0.137266 0.921186 0.150616
H31   H     H_    0.697480 0.852383 0.462394 0.170846
H32   H     H_    0.427512 0.832182 0.066760 0.141781
H33   H     H_    0.191268 0.652628 0.453250 0.184105
H34   H     H_    0.206396 0.651783 0.042440 0.194304
H35   H     H_    0.215878 0.253529 0.581691 0.216225
H36   H     H_    0.107690 0.375332 0.965604 0.190347
H37   H     H_    0.691268 0.152628 0.453250 0.184105
H38   H     H_    0.706610 0.151907 0.042513 0.194323
H39   H     H_    0.715878 0.753529 0.581691 0.216230
H40   H     H_    0.607427 0.875407 0.965672 0.190225
H41   H     H_    0.736124 0.978630 0.438232 0.112876
H42   H     H_    0.738434 0.993770 0.075384 0.137944
H43   H     H_    0.736163 0.000444 0.570777 0.159641
H44   H     H_    0.744583 0.020002 0.945302 0.135690
H45   H     H_    0.236124 0.478630 0.438232 0.112880
H46   H     H_    0.238363 0.493464 0.075472 0.137834
H47   H     H_    0.236163 0.500444 0.570777 0.159640
H48   H     H_    0.244727 0.519682 0.945390 0.135787
H49   H     H_    0.547606 0.979365 0.371783 0.156120
H50   H     H_    0.546723 0.971320 0.132406 0.142435
H51   H     H_    0.551981 0.017687 0.633028 0.147552
H52   H     H_    0.561215 0.020977 0.873258 0.140547
H53   H     H_    0.047606 0.479365 0.371783 0.156120
H54   H     H_    0.046543 0.471204 0.132425 0.142408
H55   H     H_    0.051981 0.517687 0.633028 0.147548
H56   H     H_    0.061387 0.520899 0.873288 0.140534
H57   H     H_    0.087625 0.090474 0.406632 0.178245
H58   H     H_    0.081968 0.971636 0.114508 0.180125
H59   H     H_    0.093121 0.913004 0.585565 0.206653
H60   H     H_    0.112538 0.053620 0.868744 0.147540
H61   H     H_    0.587625 0.590474 0.406632 0.178244
H62   H     H_    0.581795 0.471813 0.114355 0.180261
H63   H     H_    0.593121 0.413004 0.585565 0.206654
H64   H     H_    0.612789 0.553802 0.868620 0.147522
O1    O     O_R   0.575450 0.828820 0.667950 -0.463479
O2    O     O_R   0.575450 0.828820 0.832050 -0.476727
O3    O     O_R   0.575450 0.171180 0.332050 -0.470888
O4    O     O_R   0.575450 0.171180 0.167950 -0.480734
O5    O     O_R   0.075450 0.328820 0.667950 -0.463508
O6    O     O_R   0.075450 0.328820 0.832050 -0.476822
O7    O     O_R   0.075450 0.671180 0.332050 -0.470878
O8    O     O_R   0.075450 0.671180 0.167950 -0.480672
O9    O     O_R   0.416860 0.942890 0.674680 -0.535111
O10   O     O_R   0.416860 0.942890 0.825320 -0.517402
O11   O     O_R   0.416860 0.057110 0.325320 -0.541450
O12   O     O_R   0.416860 0.057110 0.174680 -0.525951
O13   O     O_R   0.916860 0.442890 0.674680 -0.535117
O14   O     O_R   0.916860 0.442890 0.825320 -0.517355
O15   O     O_R   0.916860 0.557110 0.325320 -0.541448
O16   O     O_R   0.916860 0.557110 0.174680 -0.525928
O17   O     O_R   0.213790 0.953680 0.668330 -0.529567
O18   O     O_R   0.213790 0.953680 0.831670 -0.509735
O19   O     O_R   0.213790 0.046320 0.331670 -0.518890
O20   O     O_R   0.213790 0.046320 0.168330 -0.487179
O21   O     O_R   0.713790 0.453680 0.668330 -0.529588
O22   O     O_R   0.713790 0.453680 0.831670 -0.509670
O23   O     O_R   0.713790 0.546320 0.331670 -0.518860
O24   O     O_R   0.713790 0.546320 0.168330 -0.487165
O25   O     O_R   0.121360 0.817890 0.672660 -0.484567
O26   O     O_R   0.121360 0.817890 0.827340 -0.448202
O27   O     O_R   0.121360 0.182110 0.327340 -0.512443
O28   O     O_R   0.121360 0.182110 0.172660 -0.433638
O29   O     O_R   0.621360 0.317890 0.672660 -0.484571
O30   O     O_R   0.621360 0.317890 0.827340 -0.448178
O31   O     O_R   0.621360 0.682110 0.327340 -0.512437
O32   O     O_R   0.621360 0.682110 0.172660 -0.433623
O33   O     O_R   0.206850 0.711370 0.665820 -0.515913
O34   O     O_R   0.206850 0.711370 0.834180 -0.543267
O35   O     O_R   0.206850 0.288630 0.334180 -0.533200
O36   O     O_R   0.206850 0.288630 0.165820 -0.549481
O37   O     O_R   0.706850 0.211370 0.665820 -0.515907
O38   O     O_R   0.706850 0.211370 0.834180 -0.543306
O39   O     O_R   0.706850 0.788630 0.334180 -0.533201
O40   O     O_R   0.706850 0.788630 0.165820 -0.549524
O41   O     O_R   0.457710 0.733190 0.672630 -0.487369
O42   O     O_R   0.457710 0.733190 0.827370 -0.516081
O43   O     O_R   0.457710 0.266810 0.327370 -0.475686
O44   O     O_R   0.457710 0.266810 0.172630 -0.483894
O45   O     O_R   0.957710 0.233190 0.672630 -0.487395
O46   O     O_R   0.957710 0.233190 0.827370 -0.516096
O47   O     O_R   0.957710 0.766810 0.327370 -0.475704
O48   O     O_R   0.957710 0.766810 0.172630 -0.483951
O49   O     O_3   0.331690 0.831680 0.750000 -0.319439
O50   O     O_3   0.331690 0.168320 0.250000 -0.334250
O51   O     O_3   0.831690 0.331680 0.750000 -0.319387
O52   O     O_3   0.831690 0.668320 0.250000 -0.334271
C145  C     C_1   0.073321 0.855400 0.424275 0.279037
N1    N     N_1   0.084623 0.900385 0.384833 -0.233577
C146  C     C_1   0.130704 0.839188 0.094526 0.206965
N2    N     N_1   0.175536 0.866652 0.143403 -0.279853
C147  C     C_1   0.895530 0.161236 0.542664 0.229626
N3    N     N_1   0.833847 0.119941 0.567339 -0.319612
C148  C     C_1   0.225493 0.178541 0.915710 0.212558
N4    N     N_1   0.286481 0.151636 0.873723 -0.314902
C149  C     C_1   0.573322 0.355400 0.424275 0.279036
N5    N     N_1   0.584623 0.400385 0.384833 -0.233526
C150  C     C_1   0.630369 0.339306 0.094589 0.207007
N6    N     N_1   0.674935 0.366816 0.143534 -0.279616
C151  C     C_1   0.395530 0.661236 0.542664 0.229624
N7    N     N_1   0.333847 0.619941 0.567339 -0.319615
C152  C     C_1   0.725466 0.678683 0.915685 0.212729
N8    N     N_1   0.786472 0.651817 0.873679 -0.314841
Cl1   Cl    Cl    0.884275 0.838871 0.587974 -0.700434
Cl2   Cl    Cl    0.893179 0.847380 0.927099 -0.656199
Cl3   Cl    Cl    0.845314 0.263956 0.380403 -0.595913
Cl4   Cl    Cl    0.979909 0.121121 0.059771 -0.667322
Cl5   Cl    Cl    0.384275 0.338871 0.587974 -0.700446
Cl6   Cl    Cl    0.393195 0.347379 0.927093 -0.656262
Cl7   Cl    Cl    0.345315 0.763956 0.380403 -0.595877
Cl8   Cl    Cl    0.479871 0.621174 0.059803 -0.667256

loop_
_geom_bond_atom_site_label_1
_geom_bond_atom_site_label_2
_ccdc_geom_bond_type
C6    C32   S    
Cr1   O10   S    
C7    C29   S    
C119  C143  S    
Cr4   O52   S    
C120  C144  S    
C110  C118  S    
C36   C50   A    
C130  H18   S    
C4    O12   A    
C92   O4    A    
C127  Cl7   S    
C16   C144  S    
Cr8   O24   S    
C57   C59   A    
Cr1   O1    S    
C8    O24   A    
C58   C60   A    
C62   C70   A    
C40   C48   A    
C61   C63   A    
C62   C64   A    
Cr10  O43   S    
C23   C103  S    
C49   C51   A    
C34   C42   A    
C84   O36   A    
C50   C52   A    
C23   C89   S    
C88   O32   A    
C97   C105  S    
C14   H38   S    
C73   C75   A    
C129  H17   S    
C42   C44   A    
C20   C132  S    
C9    H33   S    
C21   C133  S    
C116  C140  S    
Cr3   O6    S    
Cr10  O35   S    
C45   C47   A    
C112  H8    S    
C46   C48   A    
C115  C123  S    
C42   H42   S    
C27   C57   A    
C87   O39   A    
C112  C120  S    
Cr11  O38   S    
C19   C99   S    
C29   C55   A    
C30   C56   A    
C100  C124  S    
C15   C111  S    
Cr11  O51   S    
C104  C128  S    
C12   C20   S    
C13   C21   S    
C85   C117  S    
Cr11  O45   S    
C41   H41   S    
C63   C71   A    
C113  C137  S    
C36   C44   A    
C33   C51   A    
C80   H16   S    
C37   C45   A    
C130  C138  S    
C91   O43   A    
C39   C47   A    
C128  Cl8   S    
C20   C94   S    
C133  C141  S    
C102  C150  S    
C124  Cl4   S    
C24   C90   S    
C94   O46   A    
C28   C58   A    
C72   H62   S    
C98   C106  S    
C61   C69   A    
C33   C41   A    
C111  H7    S    
C10   C18   S    
C76   H12   S    
C138  H26   S    
C95   O7    A    
C2    C28   S    
C32   C62   A    
C93   O5    A    
C129  C137  S    
C126  C134  S    
Cr6   O19   S    
C83   O27   A    
C10   C138  S    
C81   O33   A    
Cr10  O50   S    
C57   C65   A    
C96   O48   A    
C14   C142  S    
C85   O29   A    
Cr5   O26   S    
C69   C77   A    
C122  Cl2   S    
Cr6   O50   S    
C71   C79   A    
C110  H6    S    
Cr6   O28   S    
C33   H49   S    
C74   C76   A    
C96   O8    A    
C105  C113  S    
C65   H59   S    
C89   O1    A    
C78   C80   A    
C137  H25   S    
C9    C105  S    
C66   C74   A    
C78   H14   S    
C124  C132  S    
C111  C119  S    
C36   H52   S    
C103  C151  S    
C97   C121  S    
C59   C67   A    
C35   C49   A    
C101  C125  S    
Cr9   O41   S    
C24   C136  S    
C135  C143  S    
C6    O14   A    
C84   C116  S    
C147  N3    T    
Cr7   O30   S    
Cr2   O11   S    
C100  C108  S    
C82   O26   A    
C83   C115  S    
C103  C127  S    
C73   H9    S    
C3    O11   A    
C104  C112  S    
C94   O6    A    
C1    O17   A    
C87   C119  S    
Cr7   O21   S    
Cr2   O4    S    
C95   O47   A    
Cr12  O48   S    
C37   H53   S    
C38   H54   S    
C15   C143  S    
C44   H44   S    
C40   C54   A    
C100  C148  S    
C10   C106  S    
C67   C75   A    
Cr8   O32   S    
C123  Cl3   S    
C14   C110  S    
C77   H13   S    
Cr1   O9    S    
C102  C126  S    
C68   C76   A    
C38   C56   A    
C48   H48   S    
C101  C149  S    
C84   O28   A    
Cr4   O15   S    
C85   O37   A    
C14   C22   S    
Cr9   O33   S    
C72   C80   A    
C99   C147  S    
C11   H35   S    
C114  C138  S    
C66   H60   S    
C90   O42   A    
C38   C46   A    
Cr10  O44   S    
C2    O10   A    
C37   C55   A    
Cr3   O14   S    
C113  C121  S    
C150  N6    T    
C22   C92   S    
C6    O22   A    
C25   C59   A    
C126  Cl6   S    
C17   C97   S    
C27   C49   A    
C119  C127  S    
C29   C63   A    
C30   C64   A    
C41   C43   A    
C31   C61   A    
C146  N2    T    
Cr3   O5    S    
C109  C117  S    
Cr10  O36   S    
C11   C19   S    
C140  H28   S    
C127  C135  S    
C128  C136  S    
Cr11  O37   S    
C93   O45   A    
C101  C109  S    
C103  C111  S    
C132  H20   S    
C79   H15   S    
C11   C139  S    
C86   O38   A    
Cr3   O51   S    
C9    C137  S    
C105  H1    S    
Cr4   O8    S    
C148  N4    T    
C12   C140  S    
C17   C95   S    
C13   C141  S    
C88   C120  S    
C68   H58   S    
C19   C93   S    
Cr12  O39   S    
C15   H39   S    
C77   C79   A    
C13   H37   S    
C12   H36   S    
C32   C54   A    
C7    O15   A    
C3    C25   S    
Cr8   O23   S    
Cr1   O2    S    
C83   O35   A    
C117  C141  S    
C151  N7    T    
C16   H40   S    
C134  C142  S    
C107  H3    S    
C152  N8    T    
C20   C100  S    
Cr2   O50   S    
Cr5   O18   S    
C4    O20   A    
C47   H47   S    
C86   C118  S    
C134  H22   S    
C8    O16   A    
C35   H51   S    
C106  C114  S    
Cr6   O20   S    
C102  C110  S    
C91   O3    A    
C74   H10   S    
C16   C112  S    
C12   C108  S    
C21   C91   S    
Cr5   O25   S    
C116  C124  S    
C123  C131  S    
C69   H63   S    
C121  C129  S    
C4    C26   S    
C120  C128  S    
Cr12  O52   S    
C132  C140  S    
C99   C107  S    
C40   H56   S    
C34   C52   A    
C71   H61   S    
C23   C135  S    
C8    C30   S    
C108  C116  S    
Cr5   O49   S    
C136  C144  S    
C24   C104  S    
C133  H21   S    
C39   C53   A    
C131  H19   S    
Cr11  O46   S    
C98   C146  S    
C88   O40   A    
C46   H46   S    
C60   C68   A    
C81   C113  S    
Cr5   O17   S    
C82   O34   A    
C3    O19   A    
C86   O30   A    
Cr9   O34   S    
C70   C78   A    
C18   C96   S    
C35   C43   A    
Cr7   O29   S    
Cr2   O12   S    
C34   H50   S    
C10   H34   S    
C22   C134  S    
C90   O2    A    
C65   C73   A    
Cr1   O49   S    
C28   C50   A    
C58   C66   A    
C13   C109  S    
C21   C101  S    
C15   C23   S    
C16   C24   S    
C5    O13   A    
Cr12  O40   S    
Cr4   O7    S    
C53   C55   A    
C19   C131  S    
Cr6   O27   S    
C142  H30   S    
C54   C56   A    
C17   C129  S    
C81   O25   A    
C131  C139  S    
C82   C114  S    
C2    O18   A    
C149  N5    T    
C106  H2    S    
C70   H64   S    
Cr4   O16   S    
C25   C51   A    
C26   C52   A    
C145  N1    T    
C39   H55   S    
C92   O44   A    
C31   C53   A    
Cr9   O42   S    
C107  C115  S    
C98   C122  S    
Cr3   O13   S    
C9    C17   S    
C11   C107  S    
C67   H57   S    
C141  H29   S    
C43   H43   S    
C139  H27   S    
C99   C123  S    
C144  H32   S    
C125  C133  S    
C143  H31   S    
Cr9   O49   S    
C115  C139  S    
C118  C142  S    
C125  Cl5   S    
C108  H4    S    
C118  C126  S    
C136  H24   S    
C22   C102  S    
C121  Cl1   S    
C87   O31   A    
C135  H23   S    
C109  H5    S    
Cr7   O22   S    
Cr2   O3    S    
Cr7   O51   S    
Cr12  O47   S    
C26   C60   A    
Cr8   O52   S    
C64   C72   A    
C18   C130  S    
C104  C152  S    
C114  C122  S    
C1    O9    A    
C89   O41   A    
C45   H45   S    
C7    O23   A    
C1    C27   S    
C75   H11   S    
C18   C98   S    
C5    O21   A    
C117  C125  S    
C97   C145  S    
C122  C130  S    
Cr8   O31   S    
C5    C31   S    
