data_mof_unit_33476.cif
_audit_creation_date              2012-12-10T17:18:53-0500
_audit_creation_method            fapswitch 2.2
_symmetry_space_group_name_H-M    P1
_symmetry_Int_Tables_number       1
_space_group_crystal_system       triclinic
_cell_length_a                    9.644521
_cell_length_b                    10.858859
_cell_length_c                    13.436767
_cell_angle_alpha                 93.84348
_cell_angle_beta                  71.996884
_cell_angle_gamma                 87.477754
_cell_volume                      1332.19487921

loop_
_atom_site_label
_atom_site_type_symbol
_atom_type_description
_atom_site_fract_x
_atom_site_fract_y
_atom_site_fract_z
_atom_type_partial_charge
C1    C     C_R   0.498406 0.737848 0.495195 0.799257
C2    C     C_R   0.440203 0.479749 0.977323 0.087710
C3    C     C_R   0.478443 0.451443 0.867256 0.028100
C4    C     C_R   0.551010 0.476576 0.026690 0.104742
C5    C     C_R   0.689129 0.415974 0.970741 0.130497
C6    C     C_R   0.719446 0.371642 0.865884 -0.158320
C7    C     C_R   0.616841 0.390724 0.814326 -0.165748
C8    C     C_R   0.529531 0.530508 0.129983 0.166353
C9    C     C_R   0.764575 0.438527 0.126084 -0.188771
C10   C     C_R   0.373548 0.477061 0.815070 -0.204087
C11   C     C_R   0.225014 0.911446 0.506985 0.238443
C12   C     C_R   0.421351 0.491405 0.699861 0.811815
C13   C     C_R   0.092651 0.976634 0.569903 0.261290
C14   C     C_R   0.098684 0.086150 0.628952 -0.167829
C15   C     C_R   0.231642 0.138235 0.615611 -0.212163
C16   C     C_R   0.362567 0.073937 0.552389 0.036221
C17   C     C_R   0.359679 0.949354 0.517340 0.060149
C18   C     C_R   0.493081 0.873329 0.490046 -0.106759
C19   C     C_R   0.625388 0.930022 0.472713 -0.200867
C20   C     C_R   0.626616 0.057459 0.482876 -0.160790
C21   C     C_R   0.496134 0.130790 0.520344 -0.094145
C22   C     C_R   0.916710 0.288165 0.404162 0.412423
C23   C     C_R   0.498441 0.263819 0.508819 0.827256
C24   C     C_R   0.004937 0.180118 0.396658 -0.313570
C25   C     C_R   0.149123 0.188832 0.391234 -0.233596
C26   C     C_R   0.202340 0.305164 0.387668 0.478478
C27   C     C_R   0.105170 0.407144 0.441032 0.008499
C28   C     C_R   0.954592 0.402493 0.445486 0.076444
C29   C     C_R   0.896509 0.587078 0.557532 -0.107689
C30   C     C_R   0.042355 0.584390 0.560805 0.461479
C31   C     C_R   0.579017 0.503370 0.299795 0.880583
C32   C     C_R   0.795563 0.399916 0.020433 -0.136001
C33   C     C_R   0.627280 0.494937 0.183688 -0.044249
C34   C     C_R   0.224109 0.495449 0.876837 0.402938
C35   C     C_R   0.185105 0.503705 0.985843 -0.186423
C36   C     C_R   0.291036 0.498563 0.035618 -0.211953
Cu1   Cu    Cu3+1 0.359340 0.500010 0.500010 1.041568
Cu2   Cu    Cu3+1 0.640660 0.499990 0.499990 0.986746
H1    H     H_    0.848229 0.422933 0.162370 0.212091
H2    H     H_    0.999098 0.136989 0.677936 0.154113
H3    H     H_    0.231648 0.228319 0.655394 0.181603
H4    H     H_    0.729649 0.098682 0.461359 0.173217
H5    H     H_    0.816979 0.657859 0.605486 0.175094
H6    H     H_    0.974505 0.091716 0.370582 0.192385
H7    H     H_    0.223779 0.107905 0.360490 0.194627
H8    H     H_    0.823557 0.322774 0.823121 0.163143
H9    H     H_    0.901135 0.353101 0.978662 0.180611
H10   H     H_    0.253707 0.502208 0.120254 0.206258
H11   H     H_    0.071199 0.515645 0.032965 0.172503
H12   H     H_    0.644477 0.349413 0.734669 0.164383
H13   H     H_    0.729050 0.875854 0.448630 0.165038
N1    N     N_R   0.852480 0.498790 0.499000 -0.210273
N2    N     N_R   0.148360 0.498710 0.498970 -0.230441
O1    O     O_R   0.381190 0.680360 0.500010 -0.540296
O2    O     O_R   0.618760 0.680340 0.500000 -0.593212
O3    O     O_R   0.323240 0.499990 0.650990 -0.485863
O4    O     O_R   0.560820 0.499960 0.650980 -0.593078
O5    O     O_R   0.381240 0.319660 0.500000 -0.587606
O6    O     O_R   0.618810 0.319640 0.499990 -0.563660
O7    O     O_R   0.439180 0.500040 0.349020 -0.539015
O8    O     O_R   0.676760 0.500010 0.349010 -0.545056
C37   C     C_3   0.225337 0.832340 0.410109 -0.834029
H14   H     H_    0.163917 0.882915 0.366128 0.215437
H15   H     H_    0.337885 0.812457 0.356387 0.222636
H16   H     H_    0.174714 0.744343 0.429874 0.254709
C38   C     C_3   0.943830 0.936766 0.573051 -0.840773
H17   H     H_    0.948390 0.852907 0.520260 0.232200
H18   H     H_    0.882170 0.917123 0.654313 0.263119
H19   H     H_    0.882548 0.012509 0.550194 0.209573
Cl1   Cl    Cl    0.825723 0.274697 0.310113 -0.627630
Cl2   Cl    Cl    0.327360 0.316311 0.262782 -0.626947
Cl3   Cl    Cl    0.082536 0.690714 0.650129 -0.552855
C39   C     C_3   0.427971 0.644856 0.174261 -0.883544
H20   H     H_    0.487528 0.714772 0.205765 0.217234
H21   H     H_    0.394149 0.689528 0.112771 0.246932
H22   H     H_    0.329637 0.623021 0.237716 0.260820
Cl4   Cl    Cl    0.077967 0.499839 0.824620 -0.611477

loop_
_geom_bond_atom_site_label_1
_geom_bond_atom_site_label_2
_ccdc_geom_bond_type
C23   O5    A    
C38   H18   S    
C16   C21   A    
C11   C13   A    
C39   H20   S    
C31   O8    A    
C35   C36   A    
C4    C8    A    
C11   C37   S    
C23   O6    A    
C26   C27   A    
C37   H14   S    
Cu1   Cu2   S    
C18   C19   A    
C3    C7    A    
C34   Cl4   S    
C5    C6    A    
C38   H19   S    
Cu2   N1    S    
C15   C16   A    
C9    H1    S    
C34   C35   A    
C37   H15   S    
C9    C32   A    
Cu1   O3    S    
Cu2   O2    S    
C19   C20   A    
C16   C17   A    
C35   H11   S    
C31   C33   S    
Cu1   O5    S    
Cu2   O8    S    
Cu1   N2    S    
C38   H17   S    
C22   C28   A    
C13   C14   A    
C29   H5    S    
C9    C33   A    
C26   Cl2   S    
C39   H21   S    
C13   C38   S    
C30   N2    A    
C24   C25   A    
C15   H3    S    
C25   C26   A    
C31   O7    A    
C2    C4    A    
C1    O1    A    
C29   C30   A    
Cu2   O4    S    
C20   H4    S    
C17   C18   A    
C1    C18   S    
C10   C34   A    
C12   O3    A    
C10   C12   S    
C12   O4    A    
C21   C23   S    
C24   H6    S    
C39   H22   S    
C22   C24   A    
Cu1   O1    S    
C25   H7    S    
C2    C36   A    
C11   C17   A    
C6    H8    S    
C37   H16   S    
C7    H12   S    
C4    C5    A    
C30   Cl3   S    
C27   N2    A    
C6    C7    A    
C5    C32   A    
C2    C3    A    
C1    O2    A    
C3    C10   A    
C28   N1    A    
C8    C39   S    
C32   H9    S    
C36   H10   S    
C8    C33   A    
Cu1   O7    S    
C14   H2    S    
Cu2   O6    S    
C19   H13   S    
C20   C21   A    
C27   C28   A    
C14   C15   A    
C22   Cl1   S    
C29   N1    A    
