data_mof_unit_31629.cif
_audit_creation_date              2012-12-11T16:51:12-0500
_audit_creation_method            fapswitch 2.2
_symmetry_space_group_name_H-M    P1
_symmetry_Int_Tables_number       1
_space_group_crystal_system       triclinic
_cell_length_a                    24.47945
_cell_length_b                    17.176777
_cell_length_c                    15.6555
_cell_angle_alpha                 89.691747
_cell_angle_beta                  129.645311
_cell_angle_gamma                 90.57939
_cell_volume                      5068.5460943

loop_
_atom_site_label
_atom_site_type_symbol
_atom_type_description
_atom_site_fract_x
_atom_site_fract_y
_atom_site_fract_z
_atom_type_partial_charge
C1    C     C_R   0.851814 0.855830 0.246726 -0.132730
C2    C     C_R   0.139206 0.189361 0.500653 0.005361
C3    C     C_R   0.354348 0.680079 0.500829 0.021464
C4    C     C_R   0.639186 0.689373 0.500757 0.009321
C5    C     C_R   0.851336 0.121111 0.132208 0.146491
C6    C     C_R   0.148708 0.120395 0.868251 0.144917
C7    C     C_R   0.351201 0.619398 0.131118 0.142566
C8    C     C_R   0.648250 0.621403 0.867615 0.143682
C9    C     C_R   0.770433 0.847865 0.595370 0.129744
C10   C     C_R   0.198922 0.782705 0.420983 0.132061
C11   C     C_R   0.270096 0.348448 0.595089 0.131316
C12   C     C_R   0.148239 0.856741 0.754479 -0.135901
C13   C     C_R   0.729595 0.344751 0.407064 0.130002
C14   C     C_R   0.754941 0.864238 0.494529 0.058463
C15   C     C_R   0.228835 0.847126 0.490525 0.042501
C16   C     C_R   0.254767 0.364645 0.494328 0.057024
C17   C     C_R   0.743526 0.359360 0.506995 0.058771
C18   C     C_R   0.687745 0.843292 0.395492 -0.194415
C19   C     C_R   0.301836 0.862598 0.557793 -0.199185
C20   C     C_R   0.187749 0.343321 0.395240 -0.194692
C21   C     C_R   0.808069 0.334218 0.606444 -0.193914
C22   C     C_R   0.142775 0.295861 0.397802 -0.193727
C23   C     C_R   0.351774 0.355867 0.246515 -0.133436
C24   C     C_R   0.853193 0.287997 0.604675 -0.195901
C25   C     C_R   0.642692 0.796035 0.398102 -0.195106
C26   C     C_R   0.345103 0.808372 0.560805 -0.207835
C27   C     C_R   0.165183 0.266318 0.499097 0.060953
C28   C     C_R   0.833179 0.262382 0.503352 0.060207
C29   C     C_R   0.665188 0.766333 0.499365 0.060405
C30   C     C_R   0.314023 0.740174 0.497541 0.044351
C31   C     C_R   0.225007 0.299726 0.597662 0.110188
C32   C     C_R   0.774585 0.296783 0.405075 0.111574
C33   C     C_R   0.725248 0.799395 0.597970 0.111350
C34   C     C_R   0.647864 0.356459 0.754024 -0.131662
C35   C     C_R   0.241114 0.729409 0.425786 0.128898
C36   C     C_3   0.723933 0.857095 0.668259 -0.475614
C37   C     C_3   0.198905 0.662072 0.418536 -0.490648
C38   C     C_3   0.223193 0.357485 0.667379 -0.473099
C39   C     C_3   0.778024 0.355372 0.337147 -0.475721
C40   C     C_R   0.113647 0.901438 0.407117 -0.171277
C41   C     C_R   0.883602 0.897935 0.589094 -0.171715
C42   C     C_R   0.615876 0.397226 0.410831 -0.171721
C43   C     C_R   0.383527 0.398127 0.589061 -0.172031
C44   C     C_3   0.773585 0.907903 0.666815 -0.488257
C45   C     C_R   0.912846 0.143925 0.592562 -0.144432
C46   C     C_3   0.151148 0.721585 0.411412 -0.480497
C47   C     C_3   0.272689 0.408595 0.665894 -0.491150
C48   C     C_3   0.728498 0.405732 0.337944 -0.488629
C49   C     C_2   0.139218 0.740869 0.846625 -0.220308
C50   C     C_2   0.861013 0.739559 0.156513 -0.223285
C51   C     C_2   0.638757 0.240809 0.846403 -0.222374
C52   C     C_2   0.361040 0.239772 0.156052 -0.221273
C53   C     C_2   0.192025 0.701305 0.862805 -0.108300
C54   C     C_2   0.807820 0.699376 0.139805 -0.106093
C55   C     C_2   0.691610 0.201242 0.862791 -0.107047
C56   C     C_R   0.087166 0.144976 0.408071 -0.143360
C57   C     C_2   0.308096 0.199270 0.139676 -0.106535
C58   C     C_2   0.804027 0.145892 0.015857 -0.222828
C59   C     C_2   0.195622 0.144279 0.984926 -0.223313
C60   C     C_2   0.303953 0.644116 0.014680 -0.222893
C61   C     C_2   0.695043 0.645499 0.984205 -0.222989
C62   C     C_2   0.733698 0.148838 0.957435 -0.110547
C63   C     C_2   0.266075 0.146686 0.044954 -0.110667
C64   C     C_2   0.233703 0.648149 0.956675 -0.107839
C65   C     C_2   0.765569 0.647075 0.044796 -0.109931
C66   C     C_R   0.189166 0.900733 0.590459 0.031262
C67   C     C_R   0.408040 0.639613 0.593629 -0.157472
C68   C     C_R   0.809591 0.901638 0.405355 0.035568
C69   C     C_R   0.690060 0.401691 0.594722 0.032493
C70   C     C_R   0.309531 0.401912 0.405348 0.036529
C71   C     C_R   0.057178 0.857733 0.756319 -0.145430
C72   C     C_R   0.942741 0.857537 0.244762 -0.146614
C73   C     C_R   0.556998 0.357786 0.756202 -0.145720
C74   C     C_R   0.442718 0.357725 0.244516 -0.145147
C75   C     C_R   0.885122 0.813860 0.215974 0.151528
C76   C     C_R   0.114873 0.814673 0.785955 0.152832
C77   C     C_R   0.385074 0.314028 0.215597 0.151563
C78   C     C_R   0.587149 0.645016 0.408120 -0.143480
C79   C     C_R   0.614478 0.314539 0.785582 0.151442
C80   C     C_R   0.182536 0.889128 0.497646 0.054774
C81   C     C_R   0.813421 0.885514 0.495508 0.044339
C82   C     C_R   0.685606 0.384048 0.504607 0.046374
C83   C     C_R   0.313326 0.385858 0.495467 0.043078
C84   C     C_R   0.835115 0.141866 0.408384 0.058402
C85   C     C_R   0.164704 0.142745 0.592104 0.061642
C86   C     C_R   0.333800 0.639679 0.408626 0.060205
C87   C     C_R   0.664695 0.642729 0.592158 0.057015
C88   C     C_R   0.922548 0.104536 0.196315 -0.160050
C89   C     C_R   0.860423 0.187680 0.500406 0.010121
C90   C     C_R   0.077328 0.104098 0.803511 -0.158821
C91   C     C_R   0.422596 0.603891 0.196045 -0.161864
C92   C     C_R   0.576818 0.605122 0.802699 -0.153021
C93   C     C_R   0.168311 0.101948 0.805543 -0.123667
C94   C     C_R   0.831893 0.102267 0.195236 -0.124798
C95   C     C_R   0.668146 0.602341 0.805419 -0.125950
C96   C     C_R   0.331703 0.600416 0.193976 -0.106348
H1    H     H_    0.805500 0.838824 0.236139 0.091473
H2    H     H_    0.171412 0.627639 0.341037 0.187066
H3    H     H_    0.169827 0.383335 0.623337 0.201130
H4    H     H_    0.831843 0.381506 0.382704 0.201066
H5    H     H_    0.748909 0.834834 0.752625 0.183252
H6    H     H_    0.229109 0.626935 0.495972 0.197777
H7    H     H_    0.248136 0.335400 0.751818 0.182958
H8    H     H_    0.753508 0.333978 0.252624 0.183547
H9    H     H_    0.749841 0.964307 0.623465 0.200719
H10   H     H_    0.097060 0.722833 0.329157 0.185674
H11   H     H_    0.248661 0.464810 0.622059 0.198126
H12   H     H_    0.194901 0.840815 0.765918 0.089271
H13   H     H_    0.752992 0.461766 0.382871 0.200583
H14   H     H_    0.827448 0.912755 0.749058 0.181445
H15   H     H_    0.152659 0.720406 0.483959 0.199999
H16   H     H_    0.326448 0.413877 0.748237 0.181512
H17   H     H_    0.675147 0.411120 0.255102 0.181766
H18   H     H_    0.709026 0.124670 0.989724 0.123892
H19   H     H_    0.290963 0.122587 0.013480 0.124367
H20   H     H_    0.208974 0.624446 0.989099 0.123496
H21   H     H_    0.790535 0.622392 0.013764 0.124218
H22   H     H_    0.212485 0.717725 0.820825 0.125285
H23   H     H_    0.305453 0.338794 0.235900 0.091891
H24   H     H_    0.787047 0.715539 0.181096 0.126372
H25   H     H_    0.711952 0.217391 0.820562 0.126467
H26   H     H_    0.287382 0.215254 0.181115 0.126567
H27   H     H_    0.827926 0.171094 0.982593 0.128474
H28   H     H_    0.171483 0.169479 0.017273 0.128774
H29   H     H_    0.327950 0.668966 0.981394 0.129059
H30   H     H_    0.670857 0.671258 0.016166 0.128706
H31   H     H_    0.119460 0.723943 0.889628 0.128365
H32   H     H_    0.880948 0.723042 0.113942 0.127407
H33   H     H_    0.619152 0.224172 0.889721 0.127971
H34   H     H_    0.694079 0.339952 0.764766 0.091254
H35   H     H_    0.380928 0.223438 0.113354 0.128060
H36   H     H_    0.091628 0.902951 0.321331 0.101440
H37   H     H_    0.903439 0.901371 0.673598 0.102780
H38   H     H_    0.596128 0.399766 0.326318 0.102162
H39   H     H_    0.403343 0.401609 0.673550 0.102294
H40   H     H_    0.019997 0.841699 0.768968 0.097969
H41   H     H_    0.979844 0.841629 0.232411 0.094807
H42   H     H_    0.519815 0.341934 0.768914 0.097838
H43   H     H_    0.479875 0.342053 0.232161 0.097695
H44   H     H_    0.952031 0.101054 0.166617 0.091739
H45   H     H_    0.094655 0.275559 0.319417 0.120093
H46   H     H_    0.047518 0.100074 0.832692 0.091248
H47   H     H_    0.452390 0.600543 0.166872 0.092156
H48   H     H_    0.546669 0.601822 0.831324 0.090777
H49   H     H_    0.221845 0.092804 0.837359 0.096447
H50   H     H_    0.778404 0.093059 0.164116 0.094739
H51   H     H_    0.721752 0.593234 0.837556 0.095240
H52   H     H_    0.278197 0.589500 0.162040 0.091090
H53   H     H_    0.944204 0.159386 0.678756 0.100884
H54   H     H_    0.055936 0.160984 0.322082 0.101776
H55   H     H_    0.433881 0.652637 0.679315 0.107568
H56   H     H_    0.899517 0.265922 0.683196 0.119927
H57   H     H_    0.555908 0.661082 0.322145 0.101634
H58   H     H_    0.671052 0.856000 0.314803 0.136181
H59   H     H_    0.325115 0.913526 0.610753 0.140467
H60   H     H_    0.171235 0.355791 0.314596 0.135609
H61   H     H_    0.822275 0.343105 0.686269 0.134345
H62   H     H_    0.277289 0.865804 0.739103 0.089184
H63   H     H_    0.245069 0.951407 0.741995 0.103497
H64   H     H_    0.725318 0.885262 0.243712 0.070759
H65   H     H_    0.761405 0.974842 0.273247 0.113806
H66   H     H_    0.773746 0.390107 0.757943 0.069942
H67   H     H_    0.594396 0.775995 0.319732 0.120728
H68   H     H_    0.739356 0.479850 0.721500 0.115136
H69   H     H_    0.225455 0.386318 0.243377 0.071709
H70   H     H_    0.261486 0.476012 0.274192 0.109093
H71   H     H_    0.777541 0.204160 0.267174 0.103335
H72   H     H_    0.729429 0.159434 0.297592 0.097626
H73   H     H_    0.221931 0.205021 0.733679 0.103187
H74   H     H_    0.270377 0.162411 0.703528 0.096304
H75   H     H_    0.281178 0.719585 0.285728 0.107782
H76   H     H_    0.229633 0.645839 0.273081 0.088346
H77   H     H_    0.721981 0.704909 0.733825 0.104368
H78   H     H_    0.401961 0.817687 0.614737 0.135782
H79   H     H_    0.770400 0.662256 0.703611 0.097002
H80   H     H_    0.670741 0.883290 0.624599 0.201295
N1    N     N_R   0.888400 0.921830 0.294620 -0.048281
N2    N     N_R   0.874350 0.922400 0.443380 -0.054008
N3    N     N_R   0.625650 0.422400 0.556620 -0.053589
N4    N     N_R   0.374350 0.422400 0.443380 -0.053576
N5    N     N_R   0.054230 0.922730 0.705400 -0.039222
N6    N     N_R   0.945770 0.922730 0.294600 -0.038642
N7    N     N_R   0.554230 0.422730 0.705400 -0.039300
N8    N     N_R   0.445770 0.422730 0.294600 -0.039290
N9    N     N_R   0.873790 0.077030 0.443380 -0.050314
N10   N     N_R   0.126210 0.077030 0.556620 -0.048407
N11   N     N_R   0.373790 0.577030 0.443380 -0.051795
N12   N     N_R   0.111600 0.921830 0.705380 -0.047800
N13   N     N_R   0.626210 0.577030 0.556620 -0.050938
N14   N     N_R   0.945200 0.076700 0.294600 -0.038648
N15   N     N_R   0.054800 0.076700 0.705400 -0.038931
N16   N     N_R   0.445200 0.576700 0.294600 -0.039064
N17   N     N_R   0.554800 0.576700 0.705400 -0.038331
N18   N     N_R   0.111030 0.077600 0.705380 -0.043488
N19   N     N_R   0.888970 0.077600 0.294620 -0.044162
N20   N     N_R   0.611030 0.577600 0.705380 -0.044157
N21   N     N_R   0.388970 0.577600 0.294620 -0.044571
N22   N     N_R   0.919490 0.077280 0.556590 -0.045402
N23   N     N_R   0.388400 0.421830 0.294620 -0.048653
N24   N     N_R   0.080510 0.077280 0.443410 -0.045599
N25   N     N_R   0.419490 0.577280 0.556590 -0.044353
N26   N     N_R   0.580510 0.577280 0.443410 -0.045402
N27   N     N_3   0.255033 0.918462 0.697360 -0.223998
N28   N     N_3   0.747192 0.930334 0.301676 -0.224137
N29   N     N_3   0.752911 0.432608 0.696715 -0.222384
N30   N     N_3   0.247217 0.430999 0.301892 -0.226505
N31   N     N_3   0.771695 0.153248 0.297242 -0.231969
N32   N     N_3   0.227966 0.154748 0.703495 -0.229638
N33   N     N_3   0.278714 0.659674 0.295156 -0.227806
N34   N     N_R   0.611600 0.421830 0.705380 -0.048105
N35   N     N_3   0.727972 0.654666 0.703548 -0.232483
N36   N     N_R   0.079940 0.922160 0.443410 -0.042661
N37   N     N_R   0.920060 0.922160 0.556590 -0.041977
N38   N     N_R   0.579940 0.422160 0.443410 -0.041393
N39   N     N_R   0.420060 0.422160 0.556590 -0.041478
N40   N     N_R   0.125650 0.922400 0.556620 -0.054504
Ni1   Ni    Ni4+2 0.882160 0.999430 0.370180 0.203852
Ni2   Ni    Ni4+2 0.117840 0.999430 0.629820 0.206418
Ni3   Ni    Ni4+2 0.382160 0.499430 0.370180 0.202044
Ni4   Ni    Ni4+2 0.617840 0.499430 0.629820 0.203753
Ni5   Ni    Ni4+2 0.012460 0.999430 0.370180 0.206156
Ni6   Ni    Ni4+2 0.987540 0.999430 0.629820 0.205883
Ni7   Ni    Ni4+2 0.512460 0.499430 0.370180 0.206045
Ni8   Ni    Ni4+2 0.487540 0.499430 0.629820 0.205525

loop_
_geom_bond_atom_site_label_1
_geom_bond_atom_site_label_2
_ccdc_geom_bond_type
C94   H50   S    
N8    Ni7   S    
C55   H25   S    
C58   C62   D    
C95   N20   A    
C64   H20   S    
C54   H24   S    
N3    Ni4   S    
C68   N28   S    
C19   H59   S    
C71   N5    A    
C13   C32   A    
C11   C47   S    
C93   N18   A    
C42   C82   A    
C86   N33   S    
C43   N39   A    
N39   Ni8   S    
H73   N32   S    
C41   H37   S    
C5    C94   A    
C51   H33   S    
N34   Ni4   S    
C39   H8    S    
N18   Ni2   S    
C4    C87   A    
N11   Ni3   S    
C44   H9    S    
N7    N34   A    
C15   C19   A    
C7    C96   A    
N10   Ni2   S    
C58   H27   S    
C50   C54   D    
N9    Ni1   S    
C30   C35   A    
C42   N38   A    
N24   Ni5   S    
C60   H29   S    
N22   Ni6   S    
N40   Ni2   S    
C62   H18   S    
H68   N29   S    
C23   H23   S    
C37   H6    S    
H75   N33   S    
C53   C64   S    
C74   N8    A    
C73   H42   S    
C26   H78   S    
N1    N6    A    
C12   N12   A    
C55   C62   S    
C23   N23   A    
C85   N10   A    
C33   C36   S    
C43   C83   A    
C22   H45   S    
C2    C85   A    
C17   C82   S    
N37   Ni6   S    
C32   C39   S    
C19   C26   A    
C14   C18   A    
C88   H44   S    
C69   C82   A    
C24   H56   S    
C57   H26   S    
C5    C88   A    
C1    N1    A    
N17   Ni8   S    
N36   N40   A    
C29   C33   A    
N7    Ni8   S    
N6    Ni5   S    
C74   C77   A    
C10   C46   S    
C40   C80   A    
C93   H49   S    
C28   C89   S    
C8    C92   A    
H79   N35   S    
N9    N22   A    
C34   N34   A    
H69   N30   S    
C45   H53   S    
C4    C29   S    
C18   H58   S    
N13   Ni4   S    
C8    C61   S    
C87   N13   A    
C63   H19   S    
C69   N29   S    
N8    N23   A    
C48   H13   S    
C40   H36   S    
C11   C31   A    
C86   N11   A    
C46   H15   S    
C3    C86   A    
C9    C33   A    
H62   N27   S    
N10   N24   A    
C84   N9    A    
H77   N35   S    
C8    C95   A    
C87   N35   S    
C72   C75   A    
C49   H31   S    
N26   Ni7   S    
H74   N32   S    
C37   H2    S    
N20   Ni4   S    
N5    N12   A    
C57   C63   S    
C91   H47   S    
N36   Ni5   S    
C25   C29   A    
C96   N21   A    
C96   H52   S    
H72   N31   S    
C27   C31   A    
C94   N19   A    
C1    C75   A    
C78   N26   A    
C28   C32   A    
C95   H51   S    
H76   N33   S    
C52   C57   D    
N14   Ni5   S    
C1    H1    S    
C71   H40   S    
C54   C65   S    
C53   H22   S    
C45   N22   A    
C6    C90   A    
N2    Ni1   S    
C67   H55   S    
C16   C83   S    
C17   C21   A    
C36   H5    S    
H71   N31   S    
C3    C30   S    
C88   N14   A    
C9    C14   A    
C4    C78   A    
C38   H7    S    
C67   N25   A    
C7    C91   A    
C34   C79   A    
C41   N37   A    
C11   C16   A    
H63   N27   S    
C15   C80   S    
C16   C20   A    
C6    C93   A    
C41   C81   A    
C73   C79   A    
C49   C76   S    
N23   Ni3   S    
C90   H46   S    
N16   N21   A    
C23   C77   A    
C43   H39   S    
C70   C83   A    
N15   Ni6   S    
C38   C47   S    
C2    C27   S    
N14   N19   A    
C66   N27   S    
C5    C58   S    
C72   H41   S    
C20   C22   A    
C10   C15   A    
C92   N17   A    
C47   H11   S    
C22   C27   A    
C12   C76   A    
H66   N29   S    
C36   C44   S    
C50   H32   S    
C84   C89   A    
C68   C81   A    
C56   H54   S    
C52   C77   S    
C7    C60   S    
N19   Ni1   S    
C45   C89   A    
C12   H12   S    
C91   N16   A    
C59   H28   S    
N11   N25   A    
C9    C44   S    
C20   H60   S    
N2    N37   A    
C35   C37   S    
N5    Ni6   S    
C52   H35   S    
C21   H61   S    
C6    C59   S    
N4    N39   A    
C3    C67   A    
C24   C28   A    
N16   Ni7   S    
N1    Ni1   S    
C38   H3    S    
H64   N28   S    
C13   C48   S    
C78   H57   S    
C36   H80   S    
N12   Ni2   S    
N13   N26   A    
C70   N30   S    
C66   C80   A    
C74   H43   S    
C40   N36   A    
C59   C63   D    
N25   Ni8   S    
C31   C38   S    
C13   C17   A    
C60   C64   D    
N15   N18   A    
C72   N6    A    
C73   N7    A    
C18   C25   A    
C50   C75   S    
C69   N3    A    
N17   N20   A    
C84   N31   S    
C70   N4    A    
C39   H4    S    
C71   C76   A    
C25   H67   S    
C49   C53   D    
C46   H10   S    
N3    N38   A    
C68   N2    A    
C42   H38   S    
H65   N28   S    
C51   C55   D    
C66   N40   A    
C92   H48   S    
C51   C79   S    
N38   Ni7   S    
C10   C35   A    
C61   C65   D    
C61   H30   S    
C34   H34   S    
C21   C24   A    
C65   H21   S    
C48   H17   S    
N4    Ni3   S    
C2    C56   A    
H70   N30   S    
C14   C81   S    
C37   C46   S    
N21   Ni3   S    
C90   N15   A    
C47   H16   S    
C85   N32   S    
C39   C48   S    
C56   N24   A    
C26   C30   A    
C44   H14   S    
