data_mof_unit_60028.cif
_audit_creation_date              2012-12-10T19:27:27-0500
_audit_creation_method            fapswitch 2.2
_symmetry_space_group_name_H-M    P1
_symmetry_Int_Tables_number       1
_space_group_crystal_system       triclinic
_cell_length_a                    18.709022
_cell_length_b                    18.631366
_cell_length_c                    18.986096
_cell_angle_alpha                 109.812591
_cell_angle_beta                  109.737688
_cell_angle_gamma                 109.198192
_cell_volume                      5073.30396572

loop_
_atom_site_label
_atom_site_type_symbol
_atom_type_description
_atom_site_fract_x
_atom_site_fract_y
_atom_site_fract_z
_atom_type_partial_charge
C1    C     C_R   0.380384 0.379627 0.499936 0.874042
C2    C     C_R   0.760624 0.580583 0.755462 0.078092
C3    C     C_R   0.813216 0.499334 0.813796 -0.207031
C4    C     C_R   0.743287 0.417903 0.739428 0.074181
C5    C     C_R   0.675137 0.417854 0.678516 0.074169
C6    C     C_R   0.686315 0.499226 0.685196 -0.206994
C7    C     C_R   0.739223 0.336227 0.724268 -0.146982
C8    C     C_R   0.664702 0.256678 0.655922 -0.142369
C9    C     C_R   0.593093 0.256637 0.601509 -0.142697
C10   C     C_R   0.597805 0.336141 0.612337 -0.147000
C11   C     C_R   0.245174 0.240115 0.425428 0.132203
C12   C     C_R   0.619909 0.499592 0.619640 0.870906
C13   C     C_R   0.317207 0.313525 0.501611 -0.102403
C14   C     C_R   0.325387 0.322582 0.581073 -0.218235
C15   C     C_R   0.260768 0.257776 0.581188 -0.215895
C16   C     C_R   0.186994 0.185762 0.501850 -0.097886
C17   C     C_R   0.181788 0.179806 0.425542 0.133641
C18   C     C_3   0.126819 0.126545 0.329186 -0.496474
C19   C     C_3   0.199221 0.196497 0.329067 -0.488461
C20   C     C_R   0.318433 0.499368 0.244318 0.137743
C21   C     C_R   0.313929 0.501067 0.316024 -0.101880
C22   C     C_R   0.242765 0.504261 0.324141 -0.220052
C23   C     C_R   0.620771 0.620703 0.501131 0.871511
C24   C     C_R   0.177807 0.503623 0.259101 -0.216184
C25   C     C_R   0.185772 0.502603 0.187639 -0.098124
C26   C     C_R   0.257952 0.501878 0.183701 0.128101
C27   C     C_3   0.300533 0.497882 0.130002 -0.489248
C28   C     C_3   0.370679 0.496164 0.200235 -0.495343
C29   C     C_R   0.673243 0.685054 0.423791 0.107510
C30   C     C_R   0.684936 0.688824 0.501603 -0.083828
C31   C     C_R   0.755201 0.763647 0.580728 -0.216326
C32   C     C_R   0.819856 0.827616 0.580646 -0.217632
C33   C     C_R   0.812066 0.817507 0.501374 -0.088107
C34   C     C_R   0.380001 0.500385 0.380390 0.885636
C35   C     C_R   0.735691 0.749576 0.423767 0.144633
C36   C     C_3   0.725698 0.684936 0.343316 -0.507502
C37   C     C_3   0.657014 0.613605 0.343605 -0.468357
C38   C     C_R   0.999307 0.379657 0.879873 0.874018
C39   C     C_R   0.879753 0.499719 0.879999 0.870229
C40   C     C_R   0.999933 0.620696 0.119535 0.871110
C41   C     C_R   0.120149 0.500479 0.120249 0.884363
C42   C     C_R   0.999603 0.119965 0.619623 0.880661
C43   C     C_R   0.120245 0.119921 0.500339 0.881184
C44   C     C_R   0.000568 0.880066 0.380287 0.873246
C45   C     C_R   0.776832 0.662206 0.759275 -0.144282
C46   C     C_R   0.879540 0.879978 0.499721 0.873646
C47   C     C_R   0.999925 0.242569 0.817365 0.129186
C48   C     C_R   0.996269 0.313550 0.812154 -0.099286
C49   C     C_R   0.991748 0.320104 0.739245 -0.220399
C50   C     C_R   0.991406 0.255214 0.674228 -0.214426
C51   C     C_R   0.998359 0.185688 0.683880 -0.101283
C52   C     C_R   0.002773 0.182233 0.756735 0.135228
C53   C     C_3   0.011552 0.132561 0.803209 -0.489937
C54   C     C_3   0.009347 0.202614 0.873450 -0.494681
C55   C     C_R   0.021061 0.690264 0.264640 0.108162
C56   C     C_R   0.844577 0.741817 0.833869 -0.146105
C57   C     C_R   0.003811 0.688901 0.186846 -0.078917
C58   C     C_R   0.000161 0.759732 0.178402 -0.217719
C59   C     C_R   0.999952 0.823945 0.242719 -0.217678
C60   C     C_R   0.006272 0.818163 0.316123 -0.094797
C61   C     C_R   0.023317 0.754948 0.329172 0.148804
C62   C     C_3   0.978923 0.692241 0.352955 -0.498056
C63   C     C_3   0.976297 0.620739 0.281429 -0.478290
C64   C     C_R   0.897330 0.741955 0.905833 -0.146977
C65   C     C_R   0.885611 0.662465 0.901486 -0.145414
C66   C     C_R   0.820210 0.580677 0.824241 0.078522
H1    H     H_    0.534156 0.194838 0.549921 0.138252
H2    H     H_    0.267375 0.264709 0.642413 0.160469
H3    H     H_    0.121653 0.060758 0.302700 0.196807
H4    H     H_    0.235519 0.171039 0.301873 0.210625
H5    H     H_    0.177971 0.236993 0.305388 0.200915
H6    H     H_    0.236657 0.505537 0.379241 0.159536
H7    H     H_    0.122438 0.504689 0.264865 0.153936
H8    H     H_    0.259795 0.435343 0.066454 0.197428
H9    H     H_    0.325560 0.559159 0.127049 0.213876
H10   H     H_    0.371036 0.432984 0.177034 0.210629
H11   H     H_    0.738138 0.665783 0.704930 0.141183
H12   H     H_    0.436005 0.556857 0.238413 0.196470
H13   H     H_    0.762445 0.770076 0.641986 0.146288
H14   H     H_    0.698140 0.694792 0.287838 0.210257
H15   H     H_    0.785671 0.679757 0.354937 0.192240
H16   H     H_    0.589886 0.582062 0.288085 0.195626
H17   H     H_    0.677299 0.567131 0.355587 0.217946
H18   H     H_    0.988145 0.374503 0.732575 0.160037
H19   H     H_    0.987693 0.260288 0.618057 0.162282
H20   H     H_    0.953070 0.065771 0.767274 0.195145
H21   H     H_    0.855251 0.803525 0.836207 0.131072
H22   H     H_    0.075910 0.135124 0.825512 0.211395
H23   H     H_    0.949910 0.176273 0.878656 0.211900
H24   H     H_    0.072667 0.246007 0.935992 0.197699
H25   H     H_    0.992669 0.762665 0.120490 0.142846
H26   H     H_    0.992420 0.876147 0.234153 0.156361
H27   H     H_    0.022755 0.707585 0.419021 0.209919
H28   H     H_    0.912915 0.682727 0.339652 0.191414
H29   H     H_    0.018623 0.594805 0.306197 0.196710
H30   H     H_    0.908678 0.569737 0.226562 0.218530
H31   H     H_    0.948362 0.803776 0.964785 0.131543
H32   H     H_    0.928014 0.666288 0.959471 0.141112
H33   H     H_    0.793276 0.332431 0.764137 0.151353
H34   H     H_    0.662091 0.194912 0.645990 0.138483
H35   H     H_    0.539953 0.332272 0.568622 0.151140
H36   H     H_    0.381265 0.378842 0.642211 0.161973
O1    O     O_R   0.408400 0.356680 0.448290 -0.629685
O2    O     O_R   0.051700 0.460090 0.908430 -0.620326
O3    O     O_R   0.856640 0.448300 0.908430 -0.623150
O4    O     O_R   0.960090 0.551710 0.908400 -0.625099
O5    O     O_R   0.948250 0.539920 0.091630 -0.622888
O6    O     O_R   0.051690 0.643330 0.091610 -0.627958
O7    O     O_R   0.039870 0.448310 0.091660 -0.625069
O8    O     O_R   0.143310 0.551720 0.091640 -0.618561
O9    O     O_R   0.051740 0.091620 0.643380 -0.625176
O10   O     O_R   0.948300 0.091670 0.539990 -0.623048
O11   O     O_R   0.143340 0.091640 0.551750 -0.622618
O12   O     O_R   0.408370 0.460100 0.551700 -0.621205
O13   O     O_R   0.039900 0.091690 0.448360 -0.624893
O14   O     O_R   0.051700 0.908430 0.460110 -0.618434
O15   O     O_R   0.948260 0.908480 0.356720 -0.624506
O16   O     O_R   0.960100 0.908410 0.551740 -0.624090
O17   O     O_R   0.856660 0.908460 0.448350 -0.618070
O18   O     O_R   0.591630 0.448290 0.539910 -0.623813
O19   O     O_R   0.591590 0.551710 0.643320 -0.624797
O20   O     O_R   0.591630 0.539900 0.448300 -0.622344
O21   O     O_R   0.591600 0.643320 0.551710 -0.628231
O22   O     O_R   0.408410 0.448290 0.356680 -0.623355
O23   O     O_R   0.408370 0.551710 0.460090 -0.620350
O24   O     O_R   0.948260 0.356680 0.908450 -0.629069
Zn1   Zn    Zn3+2 0.500020 0.430950 0.430950 0.940562
Zn2   Zn    Zn3+2 0.499980 0.569050 0.569050 0.950660
Zn3   Zn    Zn3+2 0.930910 0.430960 0.000050 0.943320
Zn4   Zn    Zn3+2 0.069050 0.569060 0.000020 0.949789
Zn5   Zn    Zn3+2 0.069070 0.000020 0.569080 0.948768
Zn6   Zn    Zn3+2 0.930930 0.000080 0.431020 0.949122
H37   H     H_    0.063652 0.126266 0.304950 0.212085
H38   H     H_    0.876468 0.883224 0.641722 0.151565

loop_
_geom_bond_atom_site_label_1
_geom_bond_atom_site_label_2
_ccdc_geom_bond_type
C39   O4    A    
C19   H5    S    
C35   C36   S    
O5    Zn3   S    
C57   C58   A    
O18   Zn1   S    
C7    C8    A    
C53   C54   S    
C11   C19   S    
C26   C27   S    
C62   C63   S    
C7    H33   S    
C49   H18   S    
C36   C37   S    
C65   H32   S    
C54   H24   S    
C47   C54   S    
C6    C12   S    
C5    C6    A    
C24   H7    S    
C14   H36   S    
C15   C16   A    
C63   H29   S    
C46   O16   A    
C18   H37   S    
O4    Zn4   S    
C18   C19   S    
O20   Zn1   S    
O15   Zn6   S    
C42   O10   A    
C38   O2    A    
O16   Zn5   S    
C50   H19   S    
C43   O13   A    
C12   O18   A    
C11   C17   A    
C12   O19   A    
C47   C48   A    
C45   C56   A    
C8    C9    A    
C55   C63   S    
O23   Zn2   S    
C56   C64   A    
C53   H20   S    
C27   H8    S    
O1    Zn1   S    
C58   H25   S    
C1    O1    A    
C38   C48   S    
C42   C51   S    
C40   O6    A    
C18   H3    S    
C3    C39   S    
C59   C60   A    
C41   O7    A    
C21   C22   A    
C33   C46   S    
C2    C6    A    
C4    C7    A    
C27   H9    S    
C22   H6    S    
C38   O24   A    
C17   C18   S    
C23   O20   A    
O13   Zn6   S    
C2    C45   A    
C51   C52   A    
C23   C30   S    
C24   C25   A    
C54   H23   S    
C36   H14   S    
C25   C41   S    
C16   C17   A    
C56   H21   S    
O3    Zn3   S    
C21   C34   S    
C20   C28   S    
O24   Zn3   S    
C58   C59   A    
C63   H30   S    
C60   C61   A    
C42   O9    A    
C9    H1    S    
C29   C30   A    
O12   Zn2   S    
C31   C32   A    
C36   H15   S    
C50   C51   A    
O10   Zn6   S    
C16   C43   S    
O19   Zn2   S    
C40   O5    A    
O9    Zn5   S    
C64   H31   S    
C65   C66   A    
C41   O8    A    
C55   C57   A    
O7    Zn3   S    
C22   C24   A    
C37   H16   S    
C3    C66   A    
C1    C13   S    
C1    O12   A    
C29   C37   S    
C3    C4    A    
C28   H10   S    
C28   H12   S    
C52   C53   S    
C9    C10   A    
C39   O3    A    
C48   C49   A    
C34   O22   A    
C40   C57   S    
O11   Zn5   S    
O6    Zn4   S    
C10   H35   S    
C4    C5    A    
C2    C66   A    
O17   Zn6   S    
C23   O21   A    
C31   H13   S    
C47   C52   A    
C29   C35   A    
C32   C33   A    
C62   H28   S    
C25   C26   A    
C5    C10   A    
C64   C65   A    
C32   H38   S    
C11   C13   A    
O21   Zn2   S    
C30   C31   A    
O14   Zn5   S    
C20   C26   A    
C44   O15   A    
C44   C60   S    
C34   O23   A    
C15   H2    S    
C55   C61   A    
C33   C35   A    
C46   O17   A    
O8    Zn4   S    
C53   H22   S    
C59   H26   S    
C8    H34   S    
C61   C62   S    
C20   C21   A    
C44   O14   A    
C49   C50   A    
C62   H27   S    
O22   Zn1   S    
C27   C28   S    
C14   C15   A    
C37   H17   S    
C19   H4    S    
O2    Zn4   S    
C45   H11   S    
C13   C14   A    
C43   O11   A    
