data_mof_unit_57017.cif
_audit_creation_date              2012-12-11T15:35:21-0500
_audit_creation_method            fapswitch 2.2
_symmetry_space_group_name_H-M    P1
_symmetry_Int_Tables_number       1
_space_group_crystal_system       triclinic
_cell_length_a                    17.509657
_cell_length_b                    24.392994
_cell_length_c                    15.088341
_cell_angle_alpha                 90.3876
_cell_angle_beta                  125.366226
_cell_angle_gamma                 89.520615
_cell_volume                      5255.03183211

loop_
_atom_site_label
_atom_site_type_symbol
_atom_type_description
_atom_site_fract_x
_atom_site_fract_y
_atom_site_fract_z
_atom_type_partial_charge
C1    C     C_R   0.317020 0.134304 0.909753 0.237248
C2    C     C_R   0.353382 0.847644 0.908382 0.237219
C3    C     C_R   0.815519 0.632719 0.908859 0.255673
C4    C     C_R   0.849654 0.348488 0.907793 0.260699
C5    C     C_R   0.687769 0.124583 0.094546 -0.130685
C6    C     C_R   0.650759 0.850048 0.094121 -0.101023
C7    C     C_R   0.167959 0.642376 0.090832 -0.154779
C8    C     C_R   0.148481 0.349344 0.093683 -0.127796
C9    C     C_R   0.559942 0.846918 0.913647 -0.062573
C10   C     C_R   0.599339 0.126600 0.912705 -0.081480
C11   C     C_R   0.057861 0.346377 0.913572 -0.029784
C12   C     C_R   0.082563 0.639411 0.908930 -0.111356
C13   C     C_R   0.461966 0.999325 0.650398 -0.037201
C14   C     C_R   0.028952 0.503340 0.704199 -0.127692
C15   C     C_R   0.803337 0.998731 0.362952 0.072027
C16   C     C_R   0.323996 0.499317 0.281341 0.073472
C17   C     C_R   0.685853 0.139656 0.005887 0.048178
C18   C     C_R   0.622087 0.816875 0.006068 0.012419
C19   C     C_R   0.158117 0.662360 0.000225 0.035530
C20   C     C_R   0.119372 0.316110 0.005804 0.018940
C21   C     C_3   0.026988 0.942467 0.621108 0.410290
C22   C     C_3   0.020254 0.047697 0.636134 0.413994
C23   C     C_3   0.529858 0.467106 0.569982 0.432556
C24   C     C_3   0.554119 0.562035 0.515320 0.362981
C25   C     C_3   0.923259 0.943221 0.524620 -0.479747
C26   C     C_3   0.915550 0.045048 0.541562 -0.475759
C27   C     C_3   0.427852 0.473706 0.473579 -0.463060
C28   C     C_3   0.457432 0.560658 0.408719 -0.481000
C29   C     C_3   0.065835 0.004804 0.520574 -0.551921
C30   C     C_3   0.589546 0.474998 0.453809 -0.554599
C31   C     C_3   0.073644 0.998410 0.627939 0.058321
C32   C     C_3   0.592695 0.502072 0.549768 0.082181
C33   C     C_3   0.899119 0.998179 0.461983 0.229094
C34   C     C_3   0.422187 0.500567 0.376337 0.238757
C35   C     C_R   0.444869 0.847500 0.089465 -0.213599
C36   C     C_R   0.399538 0.121735 0.090257 -0.155635
C37   C     C_R   0.939830 0.348399 0.088934 -0.207504
C38   C     C_R   0.900911 0.622947 0.090869 -0.149643
C39   C     C_3   0.963535 0.005764 0.423806 -0.365609
C40   C     C_3   0.486827 0.469577 0.353943 -0.389229
C41   C     C_R   0.327195 0.723331 0.961711 -0.182299
C42   C     C_R   0.158779 0.183923 0.915613 -0.091609
C43   C     C_R   0.832831 0.220635 0.951868 -0.171348
C44   C     C_R   0.658669 0.683645 0.915736 -0.135815
C45   C     C_R   0.784137 0.176474 0.953120 -0.133432
C46   C     C_R   0.609534 0.728371 0.916319 -0.156572
C47   C     C_R   0.267435 0.685795 0.958616 -0.113948
C48   C     C_R   0.108584 0.227967 0.916359 -0.151464
C49   C     C_R   0.745234 0.181044 0.011603 0.117157
C50   C     C_R   0.649492 0.759928 0.011279 0.116200
C51   C     C_R   0.217545 0.700678 0.001301 0.120275
C52   C     C_R   0.147857 0.259392 0.011279 0.116790
C53   C     C_R   0.755620 0.228292 0.070123 -0.170748
C54   C     C_R   0.727874 0.740097 0.109400 -0.142769
C55   C     C_R   0.226118 0.751507 0.047709 -0.157830
C56   C     C_R   0.227414 0.240192 0.109221 -0.136341
C57   C     C_R   0.283475 0.789229 0.048233 -0.132286
C58   C     C_R   0.278145 0.197327 0.107794 -0.137317
C59   C     C_R   0.801237 0.272306 0.066328 -0.150004
C60   C     C_R   0.777544 0.696555 0.108172 -0.131725
C61   C     C_R   0.332946 0.774996 0.004531 0.152162
C62   C     C_R   0.248584 0.172745 0.008632 0.132077
C63   C     C_R   0.837729 0.269048 0.005245 0.154020
C64   C     C_R   0.748274 0.672173 0.008874 0.119655
C65   C     C_R   0.581631 0.000960 0.618005 0.465763
C66   C     C_R   0.415062 0.998358 0.465376 0.553239
C67   C     C_R   0.127218 0.464671 0.645528 0.534713
C68   C     C_R   0.066668 0.556214 0.597760 0.555730
C69   C     C_R   0.606049 0.001216 0.546375 -0.251708
C70   C     C_R   0.440347 0.998899 0.394754 -0.288544
C71   C     C_R   0.131422 0.463773 0.556097 -0.273130
C72   C     C_R   0.048553 0.550256 0.497377 -0.295405
C73   C     C_R   0.535234 0.000113 0.436238 0.002261
C74   C     C_R   0.081781 0.503721 0.474432 0.033465
C75   C     C_R   0.547022 0.045357 0.302876 0.160823
C76   C     C_R   0.544783 0.954511 0.300664 0.221211
C77   C     C_R   0.053231 0.545836 0.305274 0.147230
C78   C     C_R   0.050040 0.454710 0.303938 0.210857
C79   C     C_R   0.486023 0.999344 0.576385 -0.116639
C80   C     C_R   0.080707 0.508683 0.655818 -0.125232
C81   C     C_R   0.231529 0.953809 0.747769 -0.102694
C82   C     C_R   0.229506 0.045438 0.740374 -0.113984
C83   C     C_R   0.738205 0.455086 0.702243 -0.088414
C84   C     C_R   0.741507 0.546573 0.702381 0.005706
C85   C     C_R   0.315922 0.141496 0.001098 -0.020945
C86   C     C_R   0.385368 0.816779 0.999733 -0.012691
C87   C     C_R   0.816043 0.641368 0.001262 -0.023034
C88   C     C_R   0.877991 0.318233 0.998921 -0.021030
C89   C     C_R   0.557945 0.999796 0.361053 -0.050886
C90   C     C_R   0.064651 0.500551 0.367142 -0.010516
C91   C     C_R   0.174440 0.999442 0.714741 0.140061
C92   C     C_R   0.688526 0.501513 0.647411 0.060803
C93   C     C_R   0.464137 0.045007 0.704097 0.422725
C94   C     C_R   0.467197 0.954146 0.706161 0.463994
C95   C     C_R   0.993755 0.547318 0.728626 0.420765
C96   C     C_R   0.006408 0.455884 0.736280 0.488851
C97   C     C_R   0.755569 0.953304 0.301092 -0.149320
C98   C     C_R   0.756966 0.045038 0.302561 -0.142535
C99   C     C_R   0.268127 0.453260 0.250519 -0.134048
C100  C     C_R   0.267040 0.545162 0.246338 -0.134750
H1    H     H_    0.876904 0.937664 0.552001 0.212366
H2    H     H_    0.871760 0.037927 0.571948 0.216239
H3    H     H_    0.388894 0.499719 0.496042 0.229343
H4    H     H_    0.409920 0.585366 0.419698 0.210938
H5    H     H_    0.911711 0.907819 0.471518 0.142928
H6    H     H_    0.894693 0.085558 0.500692 0.138738
H7    H     H_    0.395269 0.432436 0.452839 0.137439
H8    H     H_    0.459129 0.580288 0.343419 0.151091
H9    H     H_    0.102564 0.970357 0.510704 0.217715
H10   H     H_    0.099543 0.043387 0.520818 0.210188
H11   H     H_    0.622697 0.433620 0.476361 0.193048
H12   H     H_    0.629287 0.500367 0.432517 0.211054
H13   H     H_    0.951301 0.972544 0.365948 0.192217
H14   H     H_    0.947873 0.045500 0.380300 0.181392
H15   H     H_    0.467203 0.425513 0.337801 0.171950
H16   H     H_    0.479080 0.486666 0.280926 0.189147
H17   H     H_    0.366382 0.712987 0.928684 0.141918
H18   H     H_    0.130971 0.161968 0.840461 0.149185
H19   H     H_    0.864995 0.217096 0.908890 0.133297
H20   H     H_    0.631005 0.661876 0.840292 0.182478
H21   H     H_    0.775950 0.139426 0.908430 0.169103
H22   H     H_    0.545312 0.740598 0.840713 0.139021
H23   H     H_    0.260303 0.645454 0.924098 0.166536
H24   H     H_    0.043883 0.239839 0.840914 0.125730
H25   H     H_    0.724210 0.232192 0.114202 0.129537
H26   H     H_    0.758318 0.761664 0.185484 0.116973
H27   H     H_    0.187009 0.762108 0.080788 0.141122
H28   H     H_    0.257828 0.261882 0.185180 0.113764
H29   H     H_    0.288039 0.829839 0.080632 0.146526
H30   H     H_    0.345118 0.188285 0.182759 0.113989
H31   H     H_    0.805182 0.309702 0.108067 0.133420
H32   H     H_    0.843777 0.686996 0.183570 0.115571
H33   H     H_    0.485547 0.832459 0.171338 0.144598
H34   H     H_    0.419062 0.119500 0.171880 0.140770
H35   H     H_    0.981019 0.331960 0.169510 0.145443
H36   H     H_    0.922334 0.622113 0.173033 0.120377
H37   H     H_    0.679045 0.002217 0.575698 0.177896
H38   H     H_    0.386731 0.998094 0.307823 0.181425
H39   H     H_    0.171328 0.431655 0.551949 0.179841
H40   H     H_    0.012270 0.583442 0.441010 0.162302
H41   H     H_    0.210826 0.911895 0.734578 0.133303
H42   H     H_    0.204919 0.086042 0.711291 0.106594
H43   H     H_    0.719561 0.414179 0.671008 0.109192
H44   H     H_    0.731269 0.587710 0.672538 0.123590
H45   H     H_    0.767864 0.910721 0.324782 0.095621
H46   H     H_    0.773579 0.087124 0.328901 0.097860
H47   H     H_    0.290427 0.410910 0.268119 0.097222
H48   H     H_    0.288192 0.587050 0.258035 0.100298
H49   H     H_    0.742495 0.132565 0.178956 0.102925
H50   H     H_    0.688298 0.837968 0.178259 0.084326
H51   H     H_    0.212813 0.658425 0.172467 0.112541
H52   H     H_    0.184472 0.336847 0.177417 0.087499
H53   H     H_    0.514725 0.830631 0.832778 0.155388
H54   H     H_    0.574738 0.136647 0.831006 0.175863
H55   H     H_    0.010960 0.330054 0.832793 0.144987
H56   H     H_    0.052090 0.650389 0.825653 0.202949
H57   H     H_    0.060456 0.908993 0.604246 0.048599
H58   H     H_    0.047747 0.086692 0.627408 0.039625
H59   H     H_    0.549290 0.423108 0.574275 0.050065
H60   H     H_    0.600019 0.585925 0.501196 0.072330
N1    N     N_R   0.392140 0.102630 0.941800 -0.048871
N2    N     N_R   0.392140 0.897370 0.941800 -0.066471
N3    N     N_R   0.892140 0.602630 0.941800 -0.053326
N4    N     N_R   0.892140 0.397370 0.941800 -0.066247
N5    N     N_R   0.450890 0.896450 0.057150 -0.046872
N6    N     N_R   0.450890 0.103550 0.057150 -0.048868
N7    N     N_R   0.950890 0.396450 0.057150 -0.048497
N8    N     N_R   0.950890 0.603550 0.057150 -0.054169
N9    N     N_R   0.525160 0.027960 0.206160 -0.064896
N10   N     N_R   0.525160 0.972040 0.206160 -0.081441
N11   N     N_R   0.025160 0.527960 0.206160 -0.061206
N12   N     N_R   0.025160 0.472040 0.206160 -0.080550
N13   N     N_R   0.317870 0.971120 0.792790 -0.055970
N14   N     N_R   0.317870 0.028880 0.792790 -0.047061
N15   N     N_R   0.817870 0.471120 0.792790 -0.045546
N16   N     N_R   0.817870 0.528880 0.792790 -0.052449
N17   N     N_R   0.473480 0.027920 0.793480 -0.111829
N18   N     N_R   0.473480 0.972080 0.793480 -0.113600
N19   N     N_R   0.973480 0.527920 0.793480 -0.118363
N20   N     N_R   0.973480 0.472080 0.793480 -0.121576
N21   N     N_R   0.681610 0.971120 0.207570 -0.036973
N22   N     N_R   0.681610 0.028880 0.207570 -0.036970
N23   N     N_R   0.181610 0.471120 0.207570 -0.046218
N24   N     N_R   0.181610 0.528880 0.207570 -0.034713
N25   N     N_R   0.605410 0.102620 0.056870 -0.048728
N26   N     N_R   0.605410 0.897380 0.056870 -0.041271
N27   N     N_R   0.105410 0.602620 0.056870 -0.039332
N28   N     N_R   0.105410 0.397380 0.056870 -0.042666
N29   N     N_R   0.549680 0.896430 0.944180 -0.040144
N30   N     N_R   0.549680 0.103570 0.944180 -0.045710
N31   N     N_R   0.049680 0.396430 0.944180 -0.049449
N32   N     N_R   0.049680 0.603570 0.944180 -0.049619
Ni1   Ni    Ni4+2 0.433410 0.064680 0.868830 0.253610
Ni2   Ni    Ni4+2 0.433410 0.935320 0.868830 0.249577
Ni3   Ni    Ni4+2 0.933410 0.564680 0.868830 0.241670
Ni4   Ni    Ni4+2 0.933410 0.435320 0.868830 0.232548
Ni5   Ni    Ni4+2 0.565650 0.934380 0.131170 0.203563
Ni6   Ni    Ni4+2 0.565650 0.065620 0.131170 0.213411
Ni7   Ni    Ni4+2 0.065650 0.434380 0.131170 0.198279
Ni8   Ni    Ni4+2 0.065650 0.565620 0.131170 0.211284
C101  C     C_3   0.277805 0.176630 0.819876 -0.492502
C102  C     C_3   0.331872 0.179243 0.769165 -0.711229
H61   H     H_    0.406376 0.189600 0.831801 0.250924
H62   H     H_    0.327863 0.139382 0.731287 0.274397
H63   H     H_    0.300787 0.211318 0.705307 0.261311
H64   H     H_    0.202727 0.169462 0.755501 0.190458
H65   H     H_    0.282207 0.217792 0.854611 0.229603
C103  C     C_3   0.317830 0.823658 0.798486 -0.447892
C104  C     C_3   0.217223 0.802501 0.738095 -0.770853
H66   H     H_    0.216830 0.758742 0.757030 0.280058
H67   H     H_    0.175755 0.826130 0.759839 0.268683
H68   H     H_    0.182086 0.805700 0.649063 0.252768
H69   H     H_    0.321959 0.854959 0.748343 0.221712
H70   H     H_    0.364578 0.789415 0.808773 0.198472
C105  C     C_3   0.773418 0.672904 0.815526 -0.461223
C106  C     C_3   0.839460 0.686019 0.783269 -0.767597
H71   H     H_    0.904591 0.705107 0.852741 0.254484
H72   H     H_    0.858136 0.648397 0.758210 0.272229
H73   H     H_    0.804783 0.715191 0.714140 0.267079
H74   H     H_    0.706083 0.657679 0.744848 0.245496
H75   H     H_    0.758460 0.712441 0.839717 0.218861
C107  C     C_3   0.809996 0.324725 0.797162 -0.431396
C108  C     C_3   0.705062 0.313913 0.735455 -0.835553
H76   H     H_    0.692318 0.278910 0.771760 0.269012
H77   H     H_    0.667837 0.350418 0.737602 0.266815
H78   H     H_    0.675470 0.303722 0.649489 0.248550
H79   H     H_    0.824955 0.352183 0.750974 0.198708
H80   H     H_    0.846848 0.286101 0.804404 0.184799
Cl1   Cl    Cl    0.040938 0.923205 0.744292 -0.574509
Cl2   Cl    Cl    0.036415 0.052989 0.764573 -0.591476
Cl3   Cl    Cl    0.543478 0.480376 0.695808 -0.574646
Cl4   Cl    Cl    0.547655 0.599131 0.614748 -0.662152
Cl5   Cl    Cl    0.671796 0.002828 0.758545 -0.632294
Cl6   Cl    Cl    0.295368 0.996534 0.413443 -0.572595
Cl7   Cl    Cl    0.190894 0.415384 0.748540 -0.586093
Cl8   Cl    Cl    0.103788 0.621080 0.661039 -0.644830
C109  C     C_3   0.583248 0.101045 0.357849 -0.336241
C110  C     C_3   0.608216 0.143405 0.304042 -0.904340
H81   H     H_    0.627894 0.124532 0.253693 0.263657
H82   H     H_    0.549914 0.172781 0.254334 0.252285
H83   H     H_    0.668756 0.168044 0.367929 0.249458
H84   H     H_    0.531700 0.119431 0.370068 0.193427
H85   H     H_    0.648047 0.093483 0.440507 0.197327
C111  C     C_3   0.587113 0.899694 0.350485 -0.402670
C112  C     C_3   0.521763 0.866095 0.364884 -0.797666
H86   H     H_    0.519234 0.883625 0.431252 0.279500
H87   H     H_    0.449565 0.865627 0.289027 0.247452
H88   H     H_    0.548248 0.823315 0.386808 0.249859
H89   H     H_    0.605494 0.877420 0.300994 0.173980
H90   H     H_    0.654268 0.905791 0.431583 0.202509
C113  C     C_3   0.095267 0.602412 0.353831 -0.367389
C114  C     C_3   0.151363 0.629203 0.318476 -0.858388
H91   H     H_    0.214377 0.604356 0.346336 0.259406
H92   H     H_    0.108109 0.636613 0.230239 0.260980
H93   H     H_    0.175985 0.669855 0.358712 0.258236
H94   H     H_    0.040138 0.631611 0.338587 0.182031
H95   H     H_    0.145434 0.598833 0.443440 0.231525
C115  C     C_3   0.090219 0.398442 0.345423 -0.394134
C116  C     C_3   0.028357 0.364256 0.364960 -0.819512
H96   H     H_    0.029635 0.380051 0.434727 0.282518
H97   H     H_    0.954446 0.364918 0.292487 0.245992
H98   H     H_    0.053903 0.321191 0.382377 0.251612
H99   H     H_    0.099522 0.377759 0.286885 0.176830
H100  H     H_    0.163086 0.400558 0.418550 0.185664
Cl9   Cl    Cl    0.424581 0.109905 0.643862 -0.683560
Cl10  Cl    Cl    0.440210 0.887339 0.653655 -0.667907
Cl11  Cl    Cl    0.920920 0.599411 0.636741 -0.663100
Cl12  Cl    Cl    0.982795 0.391572 0.672744 -0.662076

loop_
_geom_bond_atom_site_label_1
_geom_bond_atom_site_label_2
_ccdc_geom_bond_type
C68   C80   A    
C83   H43   S    
N11   N12   A    
C13   C79   S    
C58   C62   A    
C103  H69   S    
C65   C79   A    
C83   N15   A    
C63   C88   S    
C101  C102  S    
C14   C95   A    
C37   C88   A    
C115  H99   S    
N22   Ni6   S    
C106  H73   S    
C5    N25   A    
C82   H42   S    
C116  H98   S    
N21   Ni5   S    
C9    C18   A    
C2    N2    A    
N6    Ni6   S    
C53   C59   A    
C108  H78   S    
C25   H5    S    
N25   N30   A    
C37   N7    A    
N19   Ni3   S    
N13   N14   A    
C44   C64   A    
C15   C33   S    
C38   N8    A    
C83   C92   A    
N18   Ni2   S    
C110  H83   S    
C67   Cl7   S    
C8    C20   A    
C102  H62   S    
C109  H84   S    
C66   Cl6   S    
N28   N31   A    
C34   C40   S    
C57   H29   S    
C76   C111  S    
C28   H8    S    
C48   C52   A    
C35   C86   A    
C65   C69   A    
C101  H65   S    
C40   H15   S    
C93   Cl9   S    
C6    N26   A    
C44   H20   S    
C10   C17   A    
C3    C105  S    
C104  H68   S    
C5    H49   S    
C111  C112  S    
N12   Ni7   S    
C51   C55   A    
C94   N18   A    
C57   C61   A    
N31   Ni4   S    
C65   Cl5   S    
C21   C25   S    
C68   Cl8   S    
N30   Ni1   S    
C16   C34   S    
C47   H23   S    
N29   Ni2   S    
C33   C39   S    
C61   C86   S    
C108  H76   S    
C103  C104  S    
C39   H13   S    
C102  H63   S    
C23   H59   S    
C75   N9    A    
C101  H64   S    
C4    N4    A    
N26   Ni5   S    
C69   C73   A    
C77   C113  S    
C38   H36   S    
N25   Ni6   S    
C115  C116  S    
C42   C62   A    
C64   C87   S    
C11   N31   A    
N1    N6    A    
N20   Ni4   S    
C3    N3    A    
C76   C89   A    
C36   N6    A    
C82   C91   A    
C81   H41   S    
N3    Ni3   S    
N27   Ni8   S    
C1    N1    A    
N2    Ni2   S    
C112  H86   S    
C69   H37   S    
C28   C34   S    
C35   H33   S    
C97   H45   S    
C15   C97   A    
C9    N29   A    
C105  H75   S    
C14   C96   A    
C41   C47   A    
C44   C46   A    
C46   C50   A    
C23   C27   S    
C27   C34   S    
C1    C85   A    
C7    N27   A    
C94   Cl10  S    
C62   C85   S    
C110  H82   S    
C11   C20   A    
C32   C92   S    
C43   H19   S    
C102  H61   S    
C109  H85   S    
C43   C63   A    
C97   N21   A    
N32   Ni3   S    
C82   N14   A    
C29   H10   S    
C113  C114  S    
C12   N32   A    
C106  H71   S    
C72   C74   A    
C37   H35   S    
C111  H89   S    
C17   C49   S    
C93   N17   A    
C16   C100  A    
C54   C60   A    
C22   H58   S    
N28   Ni7   S    
N24   Ni8   S    
N21   N22   A    
C3    C87   A    
C78   C90   A    
C41   C61   A    
C13   C93   A    
C81   N13   A    
C98   N22   A    
C105  C106  S    
C24   C32   S    
N23   N24   A    
N11   Ni8   S    
C66   C79   A    
N5    Ni5   S    
C26   H6    S    
N2    N5    A    
C21   C31   S    
C28   H4    S    
C26   C33   S    
C95   Cl11  S    
N15   N16   A    
C22   Cl2   S    
C27   H7    S    
C68   C72   A    
C39   H14   S    
C21   Cl1   S    
C22   C31   S    
C29   C39   S    
C70   C73   A    
N4    Ni4   S    
C104  H66   S    
C78   C115  S    
C30   C40   S    
C4    C107  S    
N9    N10   A    
C42   C48   A    
C96   N20   A    
C6    H50   S    
C76   N10   A    
C43   C45   A    
N27   N32   A    
C53   H25   S    
C10   N30   A    
C114  H93   S    
C7    H51   S    
C95   N19   A    
C55   H27   S    
N17   Ni1   S    
C7    C19   A    
C14   C80   S    
C112  H87   S    
C6    C18   A    
C58   H30   S    
C59   C63   A    
C75   C109  S    
C30   H11   S    
C2    C103  S    
N7    Ni7   S    
C12   H56   S    
C15   C98   A    
C116  H96   S    
N15   Ni4   S    
C18   C50   S    
C114  H92   S    
C59   H31   S    
C29   H9    S    
C99   H47   S    
C110  H81   S    
C77   N11   A    
C103  H70   S    
C60   H32   S    
N8    Ni8   S    
C8    H52   S    
C29   C31   S    
C99   N23   A    
C96   Cl12  S    
N4    N7    A    
C42   H18   S    
C67   C80   A    
C24   C28   S    
C21   H57   S    
C115  H100  S    
C24   Cl4   S    
N17   N18   A    
C36   H34   S    
C48   H24   S    
C71   C74   A    
C47   C51   A    
C108  H77   S    
C16   C99   A    
C71   H39   S    
C4    C88   A    
C11   H55   S    
C36   C85   A    
C98   H46   S    
C1    C101  S    
C13   C94   A    
C31   C91   S    
C38   C87   A    
C60   C64   A    
C45   H21   S    
C23   C32   S    
C74   C90   S    
N26   N29   A    
C55   C57   A    
N3    N8    A    
C73   C89   S    
C50   C54   A    
C116  H97   S    
C105  H74   S    
C26   H2    S    
C30   C32   S    
C10   H54   S    
C54   H26   S    
C70   H38   S    
C25   H1    S    
C113  H94   S    
C40   H16   S    
C52   C56   A    
C107  H79   S    
C100  H48   S    
C49   C53   A    
C109  C110  S    
C12   C19   A    
C27   H3    S    
C104  H67   S    
C56   C58   A    
C45   C49   A    
C2    C86   A    
C67   C71   A    
C56   H28   S    
N16   Ni3   S    
C23   Cl3   S    
C107  C108  S    
C100  N24   A    
N23   Ni7   S    
C46   H22   S    
N1    Ni1   S    
C75   C89   A    
C111  H90   S    
C9    H53   S    
N19   N20   A    
C81   C91   A    
C19   C51   S    
C24   H60   S    
C72   H40   S    
C5    C17   A    
C66   C70   A    
N14   Ni1   S    
C20   C52   S    
C107  H80   S    
C22   C26   S    
C112  H88   S    
C30   H12   S    
N13   Ni2   S    
C77   C90   A    
C84   H44   S    
C35   N5    A    
C84   C92   A    
C41   H17   S    
C78   N12   A    
C84   N16   A    
C8    N28   A    
N10   Ni5   S    
C113  H95   S    
C106  H72   S    
C25   C33   S    
C114  H91   S    
N9    Ni6   S    
