data_mof_unit_42395.cif
_audit_creation_date              2012-12-11T18:37:16-0500
_audit_creation_method            fapswitch 2.2
_symmetry_space_group_name_H-M    P1
_symmetry_Int_Tables_number       1
_space_group_crystal_system       triclinic
_cell_length_a                    8.268514
_cell_length_b                    14.301357
_cell_length_c                    26.967995
_cell_angle_alpha                 93.032778
_cell_angle_beta                  92.804661
_cell_angle_gamma                 87.796421
_cell_volume                      3178.6540369

loop_
_atom_site_label
_atom_site_type_symbol
_atom_type_description
_atom_site_fract_x
_atom_site_fract_y
_atom_site_fract_z
_atom_type_partial_charge
Ba1   Ba    Ba6+2 0.849670 0.455410 0.524690 1.725963
Ba2   Ba    Ba6+2 0.340150 0.544510 0.475310 1.711493
C1    C     C_3   0.549595 0.189182 0.718101 -0.292092
C2    C     C_R   0.834723 0.549384 0.167759 0.650238
C3    C     C_2   0.802073 0.593971 0.275617 -0.002625
C4    C     C_3   0.122779 0.238516 0.665907 0.465424
C5    C     C_3   0.771311 0.609537 0.330208 -0.143283
C6    C     C_1   0.966857 0.479663 0.344688 0.046124
C7    C     C_2   0.976512 0.458254 0.296300 -0.070858
C8    C     C_2   0.900900 0.522445 0.257968 0.188067
C9    C     C_R   0.024979 0.506410 0.103903 -0.159432
C10   C     C_R   0.117058 0.453982 0.138623 -0.048731
C11   C     C_R   0.244054 0.393076 0.121227 0.476257
C12   C     C_3   0.612608 0.205317 0.667281 0.488507
C13   C     C_R   0.886806 0.557889 0.119146 -0.026006
C14   C     C_2   0.858323 0.540478 0.362705 -0.242359
C15   C     C_2   0.341702 0.470750 0.644173 -0.281701
C16   C     C_3   0.132034 0.193829 0.716046 0.138497
C17   C     C_R   0.215291 0.434220 0.983942 -0.011626
C18   C     C_R   0.058382 0.581449 0.973666 0.109555
C19   C     C_R   0.158022 0.507477 0.953727 0.025280
C20   C     C_R   0.294314 0.355528 0.961031 -0.140862
C21   C     C_R   0.315570 0.348648 0.909717 0.256336
C22   C     C_R   0.268346 0.425033 0.879944 -0.058595
C23   C     C_3   0.469833 0.738141 0.623176 0.475648
C24   C     C_R   0.199816 0.506632 0.903169 -0.090503
C25   C     C_R   0.173002 0.587635 0.876003 -0.020836
C26   C     C_R   0.231101 0.588463 0.827498 0.665421
C27   C     C_R   0.283334 0.422998 0.827729 0.601367
C28   C     C_3   0.170413 0.259823 0.425931 0.201036
C29   C     C_2   0.447954 0.457770 0.733377 0.162385
C30   C     C_3   0.450765 0.416911 0.680247 -0.127901
C31   C     C_1   0.214759 0.522044 0.659860 0.000625
C32   C     C_2   0.184298 0.533929 0.708700 0.110636
C33   C     C_2   0.307901 0.500787 0.748712 0.203574
C34   C     C_3   0.374718 0.829157 0.634849 -0.335245
C35   C     C_R   0.188709 0.441651 0.035842 0.008694
C36   C     C_R   0.070247 0.507131 0.053694 0.002791
C37   C     C_R   0.996621 0.573510 0.021625 -0.032837
C38   C     C_R   0.276368 0.386485 0.070511 -0.144084
C39   C     C_R   0.803350 0.616477 0.085422 -0.129628
C40   C     C_3   0.159400 0.154286 0.418586 -0.340064
C41   C     C_R   0.026152 0.660616 0.945087 -0.145698
C42   C     C_R   0.089510 0.665348 0.898046 -0.013392
C43   C     C_R   0.861854 0.627629 0.038348 0.001471
C44   C     C_R   0.689105 0.064648 0.470889 0.006077
C45   C     C_3   0.068556 0.761094 0.329858 0.516513
C46   C     C_R   0.514299 0.198668 0.502234 0.011033
C47   C     C_R   0.381178 0.230367 0.529232 -0.213512
C48   C     C_R   0.280738 0.167112 0.548810 -0.056729
C49   C     C_R   0.322032 0.071736 0.546179 -0.114985
C50   C     C_R   0.460651 0.038853 0.521561 -0.003411
C51   C     C_R   0.556392 0.101543 0.497980 0.046231
C52   C     C_3   0.021408 0.739654 0.571944 0.298500
C53   C     C_R   0.636510 0.906972 0.494423 0.002991
C54   C     C_R   0.731750 0.968477 0.469874 0.055512
C55   C     C_R   0.680283 0.810562 0.493858 0.001714
C56   C     C_3   0.108050 0.788190 0.277858 0.088980
C57   C     C_R   0.812266 0.776195 0.467324 -0.283448
C58   C     C_R   0.912970 0.837142 0.445955 0.042378
C59   C     C_R   0.871968 0.933151 0.446470 -0.140276
C60   C     C_R   0.500972 0.943393 0.519223 -0.101736
C61   C     C_3   0.972326 0.842945 0.582129 -0.402342
C62   C     C_3   0.654382 0.341235 0.379647 0.288183
C63   C     C_3   0.643162 0.320849 0.323677 -0.472598
C64   C     C_3   0.061642 0.756062 0.193186 0.348218
C65   C     C_3   0.914078 0.807980 0.170550 -0.478075
C66   C     C_3   0.769168 0.991095 0.299739 0.259259
C67   C     C_3   0.557101 0.804838 0.353070 0.452510
C68   C     C_3   0.898244 0.055257 0.322196 -0.372372
C69   C     C_3   0.263406 0.256333 0.162186 0.275383
C70   C     C_3   0.322792 0.176316 0.127282 -0.487451
C71   C     C_3   0.985345 0.149566 0.781623 0.315968
C72   C     C_3   0.955135 0.044953 0.775065 -0.336891
C73   C     C_3   0.578238 0.885399 0.318770 0.360338
C74   C     C_R   0.082487 0.466568 0.189778 0.553999
H1    H     H_    0.212428 0.129984 0.383019 0.172675
H2    H     H_    0.571961 0.402279 0.388398 0.096293
H3    H     H_    0.651113 0.171974 0.744731 0.174304
H4    H     H_    0.734620 0.265526 0.312921 0.117873
H5    H     H_    0.665253 0.385239 0.304232 0.086867
H6    H     H_    0.520219 0.296998 0.311899 0.180780
H7    H     H_    0.511620 0.224233 0.640542 -0.040773
H8    H     H_    0.466367 0.130084 0.715320 0.048120
H9    H     H_    0.392404 0.684282 0.604120 -0.004362
H10   H     H_    0.312692 0.853866 0.600715 0.056183
H11   H     H_    0.281879 0.818092 0.662122 0.132633
H12   H     H_    0.225581 0.118352 0.449071 0.058730
H13   H     H_    0.456998 0.883931 0.650586 0.150264
H14   H     H_    0.484922 0.253094 0.732698 0.115643
H15   H     H_    0.211138 0.236698 0.741520 0.089824
H16   H     H_    0.101894 0.685590 0.333592 0.037506
H17   H     H_    0.936814 0.774161 0.334315 -0.098459
H18   H     H_    0.068810 0.862573 0.273407 0.089785
H19   H     H_    0.240916 0.780901 0.274063 0.136374
H20   H     H_    0.680089 0.781505 0.366866 -0.123468
H21   H     H_    0.491105 0.831021 0.386199 0.078646
H22   H     H_    0.053542 0.306623 0.668860 0.090347
H23   H     H_    0.030671 0.135508 0.417963 0.100589
H24   H     H_    0.599112 0.853953 0.280746 0.030407
H25   H     H_    0.019759 0.388281 0.284733 0.092717
H26   H     H_    0.333292 0.295944 0.982137 0.101020
H27   H     H_    0.376201 0.340458 0.059333 0.095198
H28   H     H_    0.754056 0.648867 0.252443 0.145971
H29   H     H_    0.696294 0.657160 0.096160 0.108002
H30   H     H_    0.958889 0.721452 0.959619 0.076456
H31   H     H_    0.248245 0.251669 0.656004 0.307718
H32   H     H_    0.066460 0.728541 0.878003 0.125624
H33   H     H_    0.795052 0.675366 0.014490 0.055342
H34   H     H_    0.917862 0.702493 0.553876 0.014293
H35   H     H_    0.832090 0.544457 0.401797 0.072580
H36   H     H_    0.350182 0.450353 0.605023 0.082310
H37   H     H_    0.347387 0.304283 0.531272 0.032034
H38   H     H_    0.243577 0.023222 0.561937 0.091664
H39   H     H_    0.951379 0.979922 0.430035 0.081941
H40   H     H_    0.844912 0.702181 0.467052 0.053110
H41   H     H_    0.761958 0.109541 0.450929 0.099591
H42   H     H_    0.423467 0.897942 0.536442 0.113388
H43   H     H_    0.186821 0.121867 0.711147 0.057623
H44   H     H_    0.298600 0.277777 0.431192 0.036151
H45   H     H_    0.122923 0.735149 0.546614 0.059130
H46   H     H_    0.103044 0.283212 0.459285 0.084508
H47   H     H_    0.086386 0.691446 0.169819 0.053200
H48   H     H_    0.170352 0.799542 0.191496 0.002255
H49   H     H_    0.896223 0.877307 0.190332 0.121618
H50   H     H_    0.932314 0.818797 0.130769 0.078782
H51   H     H_    0.804050 0.766832 0.173359 0.149109
H52   H     H_    0.671851 0.035651 0.282021 0.075304
H53   H     H_    0.823535 0.943668 0.270694 0.034247
H54   H     H_    0.996035 0.013251 0.341153 0.165352
H55   H     H_    0.950708 0.094046 0.292584 0.096652
H56   H     H_    0.846067 0.850530 0.593755 0.181027
H57   H     H_    0.843442 0.106386 0.349506 0.137749
H58   H     H_    0.128249 0.262546 0.159401 0.000898
H59   H     H_    0.296994 0.237813 0.200921 0.123069
H60   H     H_    0.457236 0.170419 0.129636 0.161842
H61   H     H_    0.273960 0.109386 0.137996 0.096965
H62   H     H_    0.280559 0.188609 0.088397 0.134372
H63   H     H_    0.888843 0.182997 0.804489 0.103867
H64   H     H_    0.101879 0.160854 0.803374 0.054785
H65   H     H_    0.052742 0.008201 0.753971 0.134549
H66   H     H_    0.952941 0.014650 0.812084 0.097952
H67   H     H_    0.983497 0.882615 0.548331 0.062632
H68   H     H_    0.836935 0.033377 0.754795 0.159198
H69   H     H_    0.048686 0.875867 0.612512 0.147933
H70   H     H_    0.780132 0.358166 0.391384 0.026229
I1    I     I_    0.710634 0.074628 0.637711 -0.430795
I2    I     I_    0.549631 0.685171 0.692643 -0.357260
I3    I     I_    0.364619 0.975582 0.316142 -0.573121
I4    I     I_    0.649640 0.433079 0.785089 -0.318354
I5    I     I_    0.436469 0.222439 0.883413 -0.467677
I6    I     I_    0.974407 0.613097 0.731408 -0.246951
N1    N     N_R   0.938615 0.511705 0.204616 -0.433357
N2    N     N_R   0.273047 0.505020 0.801950 -0.396319
O1    O     O_2   0.918080 0.549800 0.616640 -0.407835
O2    O     O_2   0.245412 0.833655 0.458553 -0.483280
O3    O     O_3   0.158061 0.816313 0.365078 -0.601694
O4    O     O_3   0.150070 0.549720 0.556460 -0.508257
O5    O     O_3   0.546340 0.387390 0.478340 -0.482734
O6    O     O_2   0.398940 0.728800 0.517420 -0.487317
O7    O     O_3   0.607848 0.756689 0.597401 -0.635867
O8    O     O_2   0.442698 0.547875 0.319193 -0.418975
O9    O     O_3   0.469380 0.732418 0.327498 -0.641286
O10   O     O_2   0.183237 0.439465 0.220837 -0.532277
O11   O     O_2   0.304940 0.348169 0.804993 -0.594800
O12   O     O_3   0.610359 0.261644 0.403153 -0.632052
O13   O     O_2   0.695911 0.574408 0.176694 -0.600158
O14   O     O_2   0.244918 0.663047 0.808347 -0.545864
O15   O     O_3   0.658250 0.379560 0.591530 -0.464133
O16   O     O_2   0.787237 0.449680 0.675218 -0.408277
O17   O     O_3   0.069983 0.699932 0.616823 -0.606363
O18   O     O_3   0.734948 0.271702 0.672316 -0.528631
O19   O     O_2   0.790750 0.271170 0.482550 -0.487196
O20   O     O_3   0.062300 0.331660 0.568480 -0.494888
O21   O     O_2   0.947297 0.165571 0.538084 -0.455023
O22   O     O_3   0.029356 0.729445 0.241470 -0.667953
O23   O     O_3   0.046233 0.177202 0.630733 -0.541540
O24   O     O_3   0.710245 0.938769 0.337583 -0.650003
O25   O     O_3   0.340646 0.340231 0.153399 -0.607716
O26   O     O_3   0.976315 0.191141 0.734993 -0.568649
O27   O     O_2   0.271610 0.450170 0.383330 -0.464025
O28   O     O_3   0.039630 0.450200 0.443530 -0.500015
O29   O     O_3   0.531440 0.620360 0.408460 -0.475119
O30   O     O_3   0.104600 0.300211 0.383109 -0.631600
O31   O     O_3   0.643350 0.612530 0.521650 -0.440905
O32   O     O_3   0.127390 0.668260 0.431510 -0.487184
P1    P     P_3+3 0.090020 0.577590 0.608380 1.039434
P2    P     P_3+3 0.614340 0.285150 0.467650 0.968693
P3    P     P_3+3 0.084505 0.210062 0.571129 0.926504
P4    P     P_3+3 0.099670 0.422330 0.391610 0.964083
P5    P     P_3+3 0.109245 0.789463 0.424951 0.967753
P6    P     P_3+3 0.655610 0.381824 0.655838 1.051557
P7    P     P_3+3 0.583683 0.729526 0.533119 0.933822
P8    P     P_3+3 0.552266 0.623646 0.344711 0.943882

loop_
_geom_bond_atom_site_label_1
_geom_bond_atom_site_label_2
_ccdc_geom_bond_type
C34   H13   S    
C47   H37   S    
C53   C54   A    
O19   P2    D    
C71   C72   S    
C33   N2    S    
C19   C24   A    
C67   H20   S    
C1    H3    S    
O4    P1    S    
C69   H58   S    
O3    P5    S    
O18   P6    S    
C27   N2    Am   
Ba1   O19   S    
C24   C25   A    
C39   H29   S    
C1    H14   S    
O12   P2    S    
C16   H15   S    
C4    H22   S    
Ba1   O4    S    
C17   C19   A    
C22   C24   A    
C32   C33   S    
C35   C38   A    
C65   H49   S    
C69   H59   S    
C36   C37   A    
C43   H33   S    
C70   H60   S    
C52   C61   S    
C27   O11   D    
C53   C60   A    
O16   P6    D    
C74   N1    Am   
C68   H54   S    
O29   P8    S    
C52   H34   S    
Ba1   Ba2   S    
C45   H16   S    
C69   O25   S    
O32   P5    S    
Ba1   O1    S    
C73   O24   S    
C22   C27   A    
C68   H55   S    
C11   C38   A    
C62   O12   S    
C17   C35   A    
C71   O26   S    
C9    C13   A    
C25   C42   A    
C28   H46   S    
C23   O7    S    
C57   H40   S    
Ba2   P4    S    
C59   H39   S    
C68   H57   S    
C21   C22   A    
C67   C73   S    
C28   O30   S    
C7    C8    S    
C66   H52   S    
C7    H25   S    
C37   C43   A    
Ba1   P1    S    
C64   C65   S    
C72   H66   S    
C3    H28   S    
C16   O26   S    
C57   C58   A    
C6    C14   D    
C63   H4    S    
C26   N2    Am   
C64   O22   S    
O20   P3    S    
C15   C31   D    
C12   H7    S    
C8    N1    S    
C31   C32   D    
C72   H68   S    
C42   H32   S    
C34   H11   S    
C46   C51   A    
C4    C16   S    
C56   O22   S    
Ba1   O20   S    
C49   H38   S    
O23   P3    S    
C49   C50   A    
Ba2   O28   S    
C14   H35   S    
Ba1   O5    S    
C17   C20   A    
C13   C39   A    
C12   O18   S    
C65   H50   S    
C6    P4    S    
C3    C5    S    
C29   I4    S    
C32   I6    S    
C6    C7    D    
C71   H63   S    
O9    P8    S    
C34   H10   S    
C11   O25   S    
C12   I1    S    
C44   H41   S    
C55   P7    S    
C58   C59   A    
Ba2   O27   S    
O5    P2    S    
C9    C36   A    
C56   H19   S    
Ba2   O32   S    
C35   C36   A    
C65   H51   S    
O27   P4    D    
C63   H5    S    
C29   C30   S    
Ba2   O4    S    
O8    P8    D    
C23   H9    S    
C48   C49   A    
C45   H17   S    
O7    P7    S    
C4    H31   S    
C31   P1    S    
C61   H56   S    
C10   C11   A    
C5    P8    S    
C1    C12   S    
Ba2   O6    S    
C70   H61   S    
C52   H45   S    
C53   C55   A    
C4    O23   S    
C29   C33   D    
C48   P3    S    
C55   C57   A    
C40   H12   S    
Ba2   O5    S    
C15   H36   S    
C25   C26   A    
C18   C41   A    
C50   C51   A    
C45   O3    S    
Ba1   P2    S    
C18   C37   A    
C21   I5    S    
C46   C47   A    
O30   P4    S    
C39   C43   A    
C62   H70   S    
C20   C21   A    
C62   H2    S    
C52   O17   S    
C72   H65   S    
C5    C14   S    
C67   O9    S    
O31   P7    S    
O21   P3    D    
Ba1   O28   S    
C46   P2    S    
C71   H64   S    
Ba1   O31   S    
C30   P6    S    
C73   I3    S    
C20   H26   S    
C2    O13   D    
O17   P1    S    
C62   C63   S    
C2    C13   A    
C10   C74   A    
C56   H18   S    
Ba2   O31   S    
C3    C8    D    
O1    P1    D    
C40   H23   S    
C38   H27   S    
C63   H6    S    
C28   H44   S    
C41   C42   A    
C58   P5    S    
C44   C51   A    
Ba1   O15   S    
C73   H24   S    
C61   H69   S    
C2    N1    Am   
C23   I2    S    
C64   H48   S    
Ba2   O29   S    
C66   H53   S    
C70   H62   S    
C60   H42   S    
C74   O10   D    
C26   O14   D    
C23   C34   S    
C64   H47   S    
O2    P5    D    
C69   C70   S    
C18   C19   A    
C66   O24   S    
C40   H1    S    
C66   C68   S    
C47   C48   A    
C44   C54   A    
C1    H8    S    
C15   C30   S    
C61   H67   S    
C54   C59   A    
C28   C40   S    
C50   C60   A    
O28   P4    S    
O15   P6    S    
C16   H43   S    
C41   H30   S    
C9    C10   A    
O6    P7    D    
C45   C56   S    
C67   H21   S    
