data_mof_unit_9839.cif
_audit_creation_date              2012-12-10T17:18:21-0500
_audit_creation_method            fapswitch 2.2
_symmetry_space_group_name_H-M    P1
_symmetry_Int_Tables_number       1
_space_group_crystal_system       triclinic
_cell_length_a                    10.205321
_cell_length_b                    10.876025
_cell_length_c                    14.974798
_cell_angle_alpha                 91.322306
_cell_angle_beta                  80.790934
_cell_angle_gamma                 95.807181
_cell_volume                      1632.21971294

loop_
_atom_site_label
_atom_site_type_symbol
_atom_type_description
_atom_site_fract_x
_atom_site_fract_y
_atom_site_fract_z
_atom_type_partial_charge
C1    C     C_R   0.556294 0.731740 0.491202 0.925481
C2    C     C_2   0.070442 0.475059 0.503933 0.585791
C3    C     C_R   0.498915 0.498754 0.673004 0.877251
C4    C     C_R   0.501109 0.502344 0.326887 0.903799
C5    C     C_R   0.389249 0.456140 0.197851 -0.291783
C6    C     C_R   0.603861 0.558051 0.802997 -0.291282
C7    C     C_R   0.502416 0.507491 0.230987 -0.201723
C8    C     C_R   0.495716 0.497655 0.768980 -0.191201
C9    C     C_R   0.613235 0.564790 0.173564 0.445615
C10   C     C_R   0.382522 0.443559 0.826207 0.467983
C11   C     C_R   0.606152 0.575728 0.081130 -0.113558
C12   C     C_R   0.443921 0.267973 0.508293 0.921313
C13   C     C_R   0.379131 0.450566 0.920296 -0.100664
C14   C     C_R   0.493833 0.515591 0.047278 -0.039263
C15   C     C_R   0.491044 0.511602 0.954278 -0.050365
C16   C     C_R   0.385090 0.457571 0.106318 0.079134
C17   C     C_R   0.601443 0.567462 0.895197 0.073178
C18   C     C_R   0.707478 0.644145 0.021366 0.510113
C19   C     C_R   0.267461 0.398912 0.981193 0.538268
C20   C     C_3   0.822605 0.529563 0.193492 -0.126032
C21   C     C_3   0.291411 0.269049 0.763446 -0.192026
C22   C     C_3   0.770134 0.838112 0.066664 -0.249412
C23   C     C_R   0.706979 0.634871 0.928713 -0.310313
C24   C     C_3   0.043262 0.396413 0.979913 -0.262102
C25   C     C_3   0.612939 0.093404 0.638839 -0.322737
C26   C     C_3   0.404653 0.889555 0.353460 -0.257184
C27   C     C_3   0.160067 0.687616 0.649192 -0.030056
C28   C     C_3   0.832129 0.292362 0.365671 -0.176718
C29   C     C_R   0.273418 0.400665 0.073655 -0.321001
C30   C     C_2   0.589327 0.863142 0.489446 -0.465637
C31   C     C_2   0.412133 0.136046 0.508915 -0.470892
C32   C     C_2   0.494510 0.936980 0.480937 0.435168
C33   C     C_2   0.508005 0.062487 0.515851 0.430713
C34   C     C_2   0.924277 0.496642 0.516356 0.475079
H1    H     H_    0.305303 0.411791 0.243591 0.197691
H2    H     H_    0.194748 0.221835 0.750338 0.190412
H3    H     H_    0.325433 0.215761 0.816674 0.141624
H4    H     H_    0.362505 0.267303 0.699468 0.116804
H5    H     H_    0.678793 0.838689 0.118495 0.159593
H6    H     H_    0.753931 0.879621 0.002523 0.137849
H7    H     H_    0.851126 0.897196 0.092581 0.189620
H8    H     H_    0.061347 0.498431 0.970284 0.166501
H9    H     H_    0.003826 0.373893 0.051737 0.128166
H10   H     H_    0.965052 0.361735 0.939385 0.193737
H11   H     H_    0.711213 0.119570 0.660220 0.198643
H12   H     H_    0.688302 0.601608 0.757309 0.196737
H13   H     H_    0.580941 0.995994 0.659794 0.141090
H14   H     H_    0.542153 0.155872 0.674497 0.154125
H15   H     H_    0.440944 0.982878 0.325179 0.129876
H16   H     H_    0.310602 0.858640 0.327700 0.199465
H17   H     H_    0.477685 0.822198 0.328717 0.159398
H18   H     H_    0.037259 0.303347 0.471087 0.317692
H19   H     H_    0.810150 0.613726 0.575165 0.366946
H20   H     H_    0.267871 0.718771 0.640750 0.165054
H21   H     H_    0.135828 0.606718 0.695334 0.151383
H22   H     H_    0.106093 0.764264 0.682289 0.125035
H23   H     H_    0.788764 0.682266 0.883051 0.166838
H24   H     H_    0.733854 0.303790 0.346674 0.188733
H25   H     H_    0.820621 0.229484 0.424575 0.189352
H26   H     H_    0.891030 0.247198 0.307656 0.133499
H27   H     H_    0.191343 0.355091 0.120026 0.160525
H28   H     H_    0.315861 0.099817 0.492079 0.184887
H29   H     H_    0.685178 0.898739 0.507277 0.173957
H30   H     H_    0.869180 0.529158 0.121402 0.145543
H31   H     H_    0.781976 0.433731 0.213719 0.123673
H32   H     H_    0.902395 0.559150 0.233952 0.212324
N1    N     N_2   0.842700 0.448880 0.462930 0.026149
N2    N     N_2   0.157300 0.551120 0.537070 0.060953
O1    O     O_R   0.431060 0.692470 0.507460 -0.555465
O2    O     O_3   0.272266 0.391930 0.790334 -0.565161
O3    O     O_3   0.809786 0.717872 0.051950 -0.589692
O4    O     O_3   0.158547 0.336143 0.949808 -0.577749
O5    O     O_3   0.627088 0.107513 0.544353 -0.612637
O6    O     O_3   0.377804 0.893133 0.448809 -0.581847
O7    O     O_3   0.113840 0.367782 0.464134 -0.762690
O8    O     O_3   0.876365 0.562387 0.592198 -0.781417
O9    O     O_3   0.117948 0.662189 0.565188 -0.532017
O10   O     O_3   0.901294 0.406853 0.382422 -0.586755
O11   O     O_R   0.568940 0.307530 0.492540 -0.577170
O12   O     O_R   0.651120 0.659650 0.483670 -0.641001
O13   O     O_R   0.348880 0.340350 0.516330 -0.574746
O14   O     O_R   0.389960 0.516440 0.644050 -0.614974
O15   O     O_R   0.610040 0.483560 0.355950 -0.597335
O16   O     O_R   0.610030 0.483620 0.620260 -0.618517
O17   O     O_R   0.389970 0.516380 0.379740 -0.591497
O18   O     O_3   0.724475 0.613805 0.209388 -0.576545
Zn1   Zn    Zn3+2 0.353060 0.521920 0.515880 1.043097
Zn2   Zn    Zn3+2 0.646940 0.478080 0.484120 0.995303

loop_
_geom_bond_atom_site_label_1
_geom_bond_atom_site_label_2
_ccdc_geom_bond_type
C11   C18   A    
C24   H8    S    
H18   O7    S    
C27   H20   S    
C21   H2    S    
N1    Zn2   S    
C17   C23   A    
C20   H32   S    
C2    N2    D    
C26   H16   S    
C32   O6    S    
C11   C14   A    
C27   H21   S    
C22   H7    S    
O14   Zn1   S    
C12   O11   A    
C18   O3    S    
C23   H23   S    
C5    C16   A    
C21   H4    S    
C20   O18   S    
C31   C33   D    
C28   O10   S    
C25   H13   S    
O1    Zn1   S    
C2    C34   S    
O17   Zn1   S    
O15   Zn2   S    
C30   H29   S    
C31   H28   S    
C19   O4    S    
N1    O10   S    
C4    C7    S    
O11   Zn2   S    
C28   H26   S    
C29   H27   S    
C13   C19   A    
C18   C23   A    
C20   H31   S    
C3    C8    S    
C26   H15   S    
C5    C7    A    
C27   H22   S    
C6    C8    A    
C4    O17   A    
C16   C29   A    
C1    O1    A    
C20   H30   S    
C9    O18   S    
C22   H6    S    
C3    O14   A    
C9    C11   A    
C25   H14   S    
O13   Zn1   S    
C10   O2    S    
C33   O5    S    
C13   C15   A    
C12   C31   S    
C24   H10   S    
C14   C16   A    
H19   O8    S    
C19   C29   A    
C25   H11   S    
C22   O3    S    
C24   O4    S    
C28   H25   S    
N2    O9    S    
C15   C17   A    
C6    C17   A    
C6    H12   S    
O16   Zn2   S    
C27   O9    S    
C10   C13   A    
C34   N1    D    
C28   H24   S    
C21   O2    S    
C32   C33   S    
O12   Zn2   S    
C26   H17   S    
C30   C32   D    
C4    O15   A    
C22   H5    S    
C5    H1    S    
C1    C30   S    
C26   O6    S    
C12   O13   A    
C25   O5    S    
C24   H9    S    
C7    C9    A    
C21   H3    S    
C8    C10   A    
C3    O16   A    
N2    Zn1   S    
C14   C15   A    
C1    O12   A    
C2    O7    S    
C34   O8    S    
