data_mof_unit_53972.cif
_audit_creation_date              2012-12-11T14:32:59-0500
_audit_creation_method            fapswitch 2.2
_symmetry_space_group_name_H-M    P1
_symmetry_Int_Tables_number       1
_space_group_crystal_system       triclinic
_cell_length_a                    6.946428
_cell_length_b                    13.863396
_cell_length_c                    17.854518
_cell_angle_alpha                 112.655637
_cell_angle_beta                  95.807142
_cell_angle_gamma                 90.030745
_cell_volume                      1577.12853964

loop_
_atom_site_label
_atom_site_type_symbol
_atom_type_description
_atom_site_fract_x
_atom_site_fract_y
_atom_site_fract_z
_atom_type_partial_charge
O1    O     O_R   0.484560 0.544530 0.414330 -0.540910
O2    O     O_R   0.197040 0.638810 0.585080 -0.528912
O3    O     O_R   0.026800 0.455470 0.585670 -0.538528
C1    C     C_R   0.373333 0.679932 0.609283 0.712771
O4    O     O_R   0.155000 0.556150 0.414940 -0.547116
O5    O     O_R   0.984450 0.372220 0.414320 -0.540977
C2    C     C_R   0.317375 0.565066 0.386505 0.740741
O6    O     O_R   0.526900 0.627780 0.585680 -0.510067
O7    O     O_3   0.339170 0.439750 0.499990 -0.382596
V1    V     V_3+5 0.064350 0.511180 0.500000 1.412041
O8    O     O_R   0.654880 0.361190 0.414920 -0.547997
C3    C     C_R   0.816983 0.324517 0.386464 0.741653
O9    O     O_R   0.696930 0.443850 0.585060 -0.527547
C4    C     C_R   0.874598 0.431495 0.611601 0.782902
V2    V     V_3+5 0.564340 0.488820 0.500000 1.417489
O10   O     O_3   0.839390 0.560250 0.500010 -0.363341
C5    C     C_R   0.035558 0.862077 0.822118 -0.127888
C6    C     C_R   0.913467 0.395220 0.679734 -0.059914
C7    C     C_R   0.902764 0.826360 0.682501 -0.159843
C8    C     C_R   0.943329 0.793760 0.746483 0.344520
C9    C     C_R   0.062427 0.968241 0.835263 -0.275798
C10   C     C_R   0.002512 0.005609 0.772645 0.105123
C11   C     C_R   0.930818 0.930931 0.694694 0.064647
C12   C     C_R   0.008186 0.113795 0.784452 0.079234
C13   C     C_R   0.947631 0.144023 0.717411 0.063816
C14   C     C_R   0.888716 0.065097 0.640388 -0.174550
C15   C     C_R   0.879177 0.960944 0.629672 -0.200659
C16   C     C_R   0.069210 0.192791 0.861238 -0.181280
C17   C     C_R   0.079498 0.296982 0.871751 -0.219129
C18   C     C_R   0.025607 0.326983 0.806867 0.124698
C19   C     C_R   0.951768 0.252139 0.729248 0.103295
C20   C     C_R   0.052938 0.431586 0.818629 -0.155114
C21   C     C_R   0.008959 0.463402 0.754479 -0.095207
C22   C     C_R   0.887762 0.289235 0.666871 -0.237259
H1    H     H_    0.827358 0.903153 0.569810 0.116353
H2    H     H_    0.822043 0.238088 0.607415 0.094088
H3    H     H_    0.059377 0.540610 0.763465 0.168786
H4    H     H_    0.133269 0.354800 0.931323 0.119218
H5    H     H_    0.837338 0.770677 0.624036 0.157607
H6    H     H_    0.125386 0.019401 0.895202 0.111086
H7    H     H_    0.847525 0.081092 0.586710 0.121140
H8    H     H_    0.112598 0.176741 0.914725 0.124113
H9    H     H_    0.119135 0.488044 0.876548 0.136227
H10   H     H_    0.114027 0.223844 0.308743 0.154109
H11   H     H_    0.834412 0.034587 0.193724 0.154586
C23   C     C_2   0.135598 0.037491 0.183998 -0.349996
C24   C     C_2   0.972710 0.077823 0.217045 -0.132015
C25   C     C_2   0.812827 0.220961 0.318444 -0.348272
C26   C     C_2   0.975723 0.180618 0.285410 -0.131586
H12   H     H_    0.273595 0.080894 0.207779 0.124582
C27   C     C_R   0.405487 0.787214 0.676021 -0.069679
C28   C     C_R   0.541982 0.472119 0.825420 -0.061647
C29   C     C_R   0.516277 0.890365 0.818163 -0.138781
C30   C     C_R   0.458626 0.794501 0.755540 -0.080740
C31   C     C_R   0.402985 0.881035 0.661018 -0.229641
C32   C     C_R   0.454480 0.981815 0.725617 0.105134
C33   C     C_R   0.514153 0.983308 0.804338 0.111887
C34   C     C_R   0.450133 0.080889 0.715820 0.068316
C35   C     C_R   0.506524 0.177963 0.784423 0.064290
C36   C     C_R   0.566656 0.172498 0.860263 -0.178378
C37   C     C_R   0.569935 0.077557 0.869760 -0.213948
C38   C     C_R   0.389257 0.086424 0.640069 -0.179452
C39   C     C_R   0.382262 0.181644 0.630974 -0.219287
C40   C     C_R   0.436008 0.276043 0.696629 0.120141
C41   C     C_R   0.500298 0.277145 0.774849 0.101940
C42   C     C_R   0.425133 0.369651 0.683782 -0.145922
C43   C     C_R   0.477492 0.465891 0.746998 -0.118061
C44   C     C_R   0.553115 0.377725 0.839402 -0.219682
H13   H     H_    0.616596 0.078013 0.929708 0.117804
H14   H     H_    0.599687 0.385442 0.900939 0.092620
H15   H     H_    0.463823 0.536367 0.734765 0.126424
H16   H     H_    0.332952 0.181370 0.571308 0.117112
H17   H     H_    0.562404 0.891946 0.878400 0.145829
H18   H     H_    0.460566 0.724790 0.769046 0.133798
H19   H     H_    0.363494 0.872834 0.598857 0.094075
H20   H     H_    0.612169 0.241009 0.914041 0.123539
H21   H     H_    0.343718 0.017847 0.586328 0.123863
H22   H     H_    0.373796 0.368440 0.624117 0.140675
H23   H     H_    0.334413 0.667487 0.194259 0.154252
H24   H     H_    0.614771 0.590781 0.308431 0.153495
C45   C     C_2   0.313712 0.602377 0.318728 -0.347972
C46   C     C_2   0.476307 0.610987 0.285427 -0.131072
H25   H     H_    0.773648 0.635971 0.207336 0.125124
C47   C     C_2   0.635440 0.655904 0.183910 -0.349215
C48   C     C_2   0.472902 0.647285 0.217245 -0.130418
H26   H     H_    0.175550 0.622324 0.295275 0.125227
O11   O     O_R   0.421600 0.630430 0.917010 -0.545655
O12   O     O_R   0.793840 0.702190 0.087630 -0.545996
O13   O     O_R   0.964010 0.886170 0.088190 -0.539558
C49   C     C_R   0.631573 0.693217 0.116125 0.747882
O14   O     O_R   0.751460 0.619510 0.917500 -0.519462
O15   O     O_R   0.921330 0.802900 0.916840 -0.518794
C50   C     C_R   0.574988 0.578766 0.892720 0.709192
O16   O     O_R   0.464290 0.713700 0.088350 -0.539033
O17   O     O_3   0.609200 0.818520 0.002630 -0.376440
V3    V     V_3+5 0.884140 0.747190 0.002530 1.415441
O18   O     O_R   0.251150 0.814630 0.917340 -0.550397
C51   C     C_R   0.073619 0.826008 0.890405 0.757869
O19   O     O_R   0.293530 0.897310 0.087470 -0.545330
C52   C     C_R   0.131450 0.933928 0.115985 0.750685
V4    V     V_3+5 0.384070 0.769710 0.002370 1.375280
O20   O     O_3   0.109180 0.698190 0.002460 -0.375001
H27   H     H_    0.674820 0.177575 0.294644 0.124361
Cl1   Cl    Cl    0.852054 0.670325 0.731628 -0.755019

loop_
_geom_bond_atom_site_label_1
_geom_bond_atom_site_label_2
_ccdc_geom_bond_type
H10   C26   S    
C34   C38   A    
C31   C32   A    
O12   V3    S    
C13   C19   A    
V4    O20   S    
V3    O20   S    
C4    C6    S    
C38   H21   S    
O2    C1    A    
O17   V3    S    
C1    O6    A    
C45   C46   D    
O15   C51   A    
C24   C26   S    
C29   C30   A    
C14   C15   A    
C38   C39   A    
C16   C17   A    
O5    C3    A    
C18   C19   A    
V2    O10   S    
O18   C51   A    
O15   V3    S    
C5    C8    A    
C32   C33   A    
O14   V3    S    
O11   V4    S    
O8    V2    S    
C7    C8    A    
O16   V4    S    
C17   H4    S    
O1    V2    S    
C11   C15   A    
O7    V1    S    
C43   H15   S    
C45   H26   S    
C28   C44   A    
C3    C25   S    
C31   H19   S    
C42   C43   A    
C35   C36   A    
C30   H18   S    
O9    C4    A    
C47   C49   S    
C49   O16   A    
H11   C24   S    
C42   H22   S    
C1    C27   S    
C12   C13   A    
H24   C46   S    
O4    C2    A    
C29   C33   A    
O13   C52   A    
C15   H1    S    
C13   C14   A    
C25   H27   S    
C36   H20   S    
C21   H3    S    
C36   C37   A    
C40   C42   A    
C7    C11   A    
C17   C18   A    
O14   C50   A    
H25   C47   S    
C41   C44   A    
C19   C22   A    
C28   C50   S    
C47   C48   D    
C6    C22   A    
O3    C4    A    
C7    H5    S    
C25   C26   D    
O19   V4    S    
O12   C49   A    
O6    V2    S    
O9    V2    S    
C10   C12   A    
O2    V1    S    
H23   C48   S    
C5    C51   S    
C37   H13   S    
C23   C52   S    
C23   C24   D    
C2    C45   S    
O1    C2    A    
C29   H17   S    
C12   C16   A    
C28   C43   A    
O5    V1    S    
O8    C3    A    
C33   C37   A    
C8    Cl1   S    
C46   C48   S    
C23   H12   S    
O19   C52   A    
C27   C30   A    
C20   C21   A    
O13   V3    S    
C34   C35   A    
O4    V1    S    
O3    V1    S    
V1    O10   S    
C35   C41   A    
C18   C20   A    
C9    H6    S    
O11   C50   A    
C40   C41   A    
C16   H8    S    
C20   H9    S    
C32   C34   A    
C27   C31   A    
O7    V2    S    
C6    C21   A    
C5    C9    A    
C39   C40   A    
C39   H16   S    
C22   H2    S    
C44   H14   S    
C10   C11   A    
C9    C10   A    
O18   V4    S    
O17   V4    S    
C14   H7    S    
