data_mof_unit_50079.cif
_audit_creation_date              2012-12-10T19:47:50-0500
_audit_creation_method            fapswitch 2.2
_symmetry_space_group_name_H-M    P1
_symmetry_Int_Tables_number       1
_space_group_crystal_system       triclinic
_cell_length_a                    18.233819
_cell_length_b                    18.226597
_cell_length_c                    21.817535
_cell_angle_alpha                 88.229862
_cell_angle_beta                  89.522409
_cell_angle_gamma                 89.917267
_cell_volume                      7247.13283025

loop_
_atom_site_label
_atom_site_type_symbol
_atom_type_description
_atom_site_fract_x
_atom_site_fract_y
_atom_site_fract_z
_atom_type_partial_charge
C1    C     C_R   0.000044 0.358721 0.999718 0.975647
C2    C     C_1   0.282041 0.000024 0.999838 -0.021581
C3    C     C_3   0.719209 0.853901 0.832433 -0.741495
C4    C     C_3   0.019972 0.773451 0.181425 -0.720513
C5    C     C_3   0.302894 0.800900 0.219074 -0.604853
C6    C     C_3   0.989002 0.228910 0.196678 -0.742380
C7    C     C_3   0.720876 0.144715 0.164334 -0.705400
C8    C     C_3   0.375635 0.767006 0.338434 -0.767549
C9    C     C_3   0.920766 0.766726 0.290890 -0.676114
C10   C     C_3   0.681585 0.212252 0.282782 -0.657236
C11   C     C_3   0.088699 0.240205 0.303957 -0.700090
C12   C     C_3   0.378406 0.235389 0.663319 -0.711182
C13   C     C_1   0.999083 0.717642 0.004355 -0.077963
C14   C     C_3   0.798027 0.305071 0.718976 -0.642509
C15   C     C_3   0.678754 0.785718 0.714984 -0.670382
C16   C     C_3   0.221857 0.641704 0.663766 -0.755090
C17   C     C_1   0.717792 0.999916 0.000397 -0.060609
C18   C     C_1   0.499275 0.782350 0.496051 -0.051420
C19   C     C_1   0.782184 0.500858 0.497273 -0.078232
C20   C     C_1   0.499051 0.217641 0.504106 -0.068719
C21   C     C_1   0.217805 0.499954 0.500184 -0.091770
C22   C     C_R   0.000936 0.503352 0.879533 1.000334
C23   C     C_R   0.496223 0.001694 0.879563 1.008922
C24   C     C_R   0.999756 0.500618 0.120163 0.873501
C25   C     C_R   0.358713 0.000026 0.000086 1.090291
C26   C     C_R   0.496792 0.998356 0.120499 1.003181
C27   C     C_R   0.500975 0.003554 0.379545 0.993098
C28   C     C_R   0.000167 0.500932 0.379321 1.019352
C29   C     C_R   0.500472 0.996327 0.620432 0.998504
C30   C     C_R   0.996532 0.498351 0.620473 1.001416
C31   C     C_R   0.079115 0.617775 0.793995 0.401532
C32   C     C_R   0.622979 0.950117 0.810504 0.353809
C33   C     C_R   0.958965 0.372318 0.814230 0.308540
C34   C     C_R   0.388584 0.090886 0.795631 0.404887
C35   C     C_R   0.972016 0.366969 0.199166 0.357793
C36   C     C_R   0.999742 0.641038 0.003308 1.003268
C37   C     C_R   0.624330 0.048967 0.187613 0.319788
C38   C     C_R   0.031276 0.634937 0.190973 0.336582
C39   C     C_R   0.388443 0.910966 0.205757 0.410949
C40   C     C_R   0.578084 0.118754 0.294241 0.404004
C41   C     C_R   0.061304 0.376833 0.302970 0.420979
C42   C     C_R   0.462220 0.871523 0.314291 0.291681
C43   C     C_R   0.943980 0.629207 0.297859 0.408758
C44   C     C_R   0.575885 0.880224 0.704890 0.401997
C45   C     C_R   0.124601 0.546988 0.687596 0.319206
C46   C     C_R   0.463045 0.129000 0.686215 0.326861
C47   C     C_R   0.641293 0.999969 0.000005 1.004348
C48   C     C_R   0.886132 0.413241 0.705569 0.403578
C49   C     C_R   0.140194 0.645657 0.759291 0.047770
C50   C     C_R   0.659840 0.886566 0.792074 0.077762
C51   C     C_R   0.898107 0.331039 0.796335 0.092861
C52   C     C_R   0.366069 0.154037 0.760324 0.029121
C53   C     C_R   0.003532 0.302202 0.225026 0.066662
C54   C     C_R   0.661564 0.112185 0.205609 0.074646
C55   C     C_R   0.002633 0.700966 0.213965 0.059371
C56   C     C_R   0.365050 0.848213 0.241359 0.012438
C57   C     C_R   0.639079 0.147188 0.259815 0.035701
C58   C     C_R   0.499886 0.858945 0.496885 1.026404
C59   C     C_R   0.051270 0.307520 0.276004 0.033240
C60   C     C_R   0.402283 0.828956 0.296407 0.108267
C61   C     C_R   0.955727 0.697840 0.266473 0.029423
C62   C     C_R   0.636846 0.851383 0.738421 0.051762
C63   C     C_R   0.162389 0.610001 0.705283 0.098438
C64   C     C_R   0.403777 0.172718 0.704864 0.070606
C65   C     C_R   0.861281 0.351061 0.741249 0.032795
C66   C     C_R   0.140778 0.999977 0.999812 0.914539
C67   C     C_R   0.999695 0.859145 0.000934 0.907721
C68   C     C_R   0.859182 0.000005 0.000205 0.894358
C69   C     C_R   0.858803 0.500270 0.497477 1.062145
C70   C     C_R   0.999908 0.140836 0.999303 0.904918
C71   C     C_R   0.640815 0.500311 0.499655 0.918254
C72   C     C_R   0.499614 0.359148 0.500895 0.907444
C73   C     C_R   0.359182 0.500005 0.500160 0.888633
C74   C     C_R   0.499623 0.640849 0.499126 0.893766
C75   C     C_R   0.056025 0.532249 0.715367 -0.123872
C76   C     C_R   0.542856 0.946570 0.723582 -0.082905
C77   C     C_R   0.950018 0.450778 0.724146 -0.071118
C78   C     C_R   0.470445 0.059081 0.714766 -0.108998
C79   C     C_R   0.019848 0.437625 0.280570 -0.097570
C80   C     C_R   0.499748 0.141039 0.503276 1.022195
C81   C     C_R   0.544593 0.052771 0.275890 -0.075771
C82   C     C_R   0.982603 0.566864 0.277570 -0.088937
C83   C     C_R   0.471072 0.941149 0.285499 -0.122563
C84   C     C_R   0.555889 0.033319 0.215354 -0.119563
C85   C     C_R   0.995252 0.435008 0.220780 -0.098763
C86   C     C_R   0.451526 0.949793 0.224250 -0.067231
C87   C     C_R   0.005121 0.568147 0.216670 -0.097745
C88   C     C_R   0.554562 0.966197 0.783826 -0.112357
C89   C     C_R   0.045021 0.551974 0.775846 -0.078371
C90   C     C_R   0.451095 0.051004 0.776352 -0.067937
C91   C     C_R   0.141292 0.499977 0.500208 1.022400
C92   C     C_R   0.969404 0.441706 0.785421 -0.122918
C93   C     C_R   0.998985 0.494302 0.686894 -0.058209
C94   C     C_R   0.502607 0.998259 0.686643 -0.023608
C95   C     C_R   0.001100 0.502233 0.312573 -0.009522
C96   C     C_R   0.504029 0.001374 0.313303 -0.056923
C97   C     C_R   0.499517 0.994323 0.186935 -0.059615
C98   C     C_R   0.999317 0.501350 0.185976 0.017749
C99   C     C_R   0.498666 0.005848 0.813046 -0.017154
C100  C     C_R   0.003765 0.501170 0.813271 -0.058758
C101  C     C_1   0.999942 0.217391 0.998380 -0.115747
C102  C     C_1   0.000053 0.282235 0.998910 -0.085630
C103  C     C_1   0.217223 0.999991 0.999582 -0.097210
C104  C     C_1   0.999155 0.782552 0.003248 -0.133040
C105  C     C_1   0.782655 0.999950 0.000534 -0.071642
C106  C     C_1   0.499192 0.717432 0.497085 -0.081680
C107  C     C_1   0.717334 0.500806 0.498448 -0.117595
C108  C     C_1   0.499062 0.282559 0.503020 -0.081707
C109  C     C_1   0.282656 0.499980 0.500277 -0.114987
C110  C     C_3   0.870115 0.269718 0.838410 -0.734270
C111  C     C_3   0.304350 0.202241 0.783350 -0.615103
C112  C     C_3   0.183010 0.710864 0.781695 -0.677896
H1    H     H_    0.894896 0.271757 0.884611 0.246582
H2    H     H_    0.717907 0.876946 0.878899 0.253607
H3    H     H_    0.710040 0.794071 0.839905 0.224571
H4    H     H_    0.773916 0.863678 0.811026 0.266661
H5    H     H_    0.050669 0.766610 0.137980 0.271511
H6    H     H_    0.968282 0.802321 0.168985 0.230215
H7    H     H_    0.053244 0.808131 0.211530 0.249033
H8    H     H_    0.310681 0.789979 0.169728 0.266481
H9    H     H_    0.300495 0.746124 0.242337 0.231767
H10   H     H_    0.249353 0.828292 0.226348 0.274175
H11   H     H_    0.957397 0.234035 0.153645 0.272678
H12   H     H_    0.810093 0.275637 0.845772 0.226183
H13   H     H_    0.041745 0.202497 0.184231 0.226163
H14   H     H_    0.957989 0.192749 0.229512 0.245194
H15   H     H_    0.719585 0.121451 0.117945 0.244009
H16   H     H_    0.711720 0.204588 0.157063 0.244154
H17   H     H_    0.775640 0.134894 0.184918 0.262010
H18   H     H_    0.400397 0.769534 0.384598 0.239784
H19   H     H_    0.315500 0.771618 0.345824 0.225583
H20   H     H_    0.388922 0.713289 0.318393 0.264482
H21   H     H_    0.925252 0.766885 0.341559 0.253254
H22   H     H_    0.947607 0.817923 0.273928 0.215069
H23   H     H_    0.882216 0.215700 0.818420 0.268250
H24   H     H_    0.862214 0.769597 0.277727 0.287828
H25   H     H_    0.693798 0.203709 0.332185 0.255132
H26   H     H_    0.735683 0.219624 0.260198 0.246590
H27   H     H_    0.649998 0.263736 0.275488 0.277711
H28   H     H_    0.079786 0.238198 0.354347 0.251907
H29   H     H_    0.067386 0.187707 0.287339 0.217675
H30   H     H_    0.148323 0.241756 0.293745 0.280115
H31   H     H_    0.403839 0.232974 0.617057 0.237199
H32   H     H_    0.318327 0.231661 0.656132 0.236408
H33   H     H_    0.391981 0.288732 0.683654 0.270631
H34   H     H_    0.312612 0.213550 0.832463 0.258715
H35   H     H_    0.805893 0.293478 0.669762 0.257013
H36   H     H_    0.793883 0.250587 0.742589 0.230337
H37   H     H_    0.745161 0.333905 0.725733 0.282130
H38   H     H_    0.692288 0.794825 0.665691 0.261158
H39   H     H_    0.732111 0.776415 0.737752 0.220554
H40   H     H_    0.645950 0.734889 0.721475 0.277100
H41   H     H_    0.220442 0.617904 0.617582 0.248956
H42   H     H_    0.213000 0.701540 0.655979 0.223570
H43   H     H_    0.276548 0.631786 0.684440 0.266265
H44   H     H_    0.923745 0.691004 0.881522 0.378749
H45   H     H_    0.301930 0.256789 0.759708 0.232244
H46   H     H_    0.667097 0.133458 0.867110 0.386702
H47   H     H_    0.132436 0.394439 0.844217 0.391379
H48   H     H_    0.301739 0.936588 0.877001 0.383233
H49   H     H_    0.789753 0.436206 0.157032 0.386403
H50   H     H_    0.612444 0.875334 0.158464 0.395460
H51   H     H_    0.212317 0.558069 0.155821 0.387441
H52   H     H_    0.303355 0.065010 0.122365 0.380536
H53   H     H_    0.422146 0.190541 0.382024 0.385782
H54   H     H_    0.208119 0.487600 0.364846 0.381392
H55   H     H_    0.635266 0.896976 0.344538 0.393730
H56   H     H_    0.250577 0.175247 0.777345 0.283764
H57   H     H_    0.791876 0.523801 0.362554 0.385588
H58   H     H_    0.419723 0.810160 0.618590 0.375492
H59   H     H_    0.110894 0.373296 0.659020 0.392852
H60   H     H_    0.649846 0.157532 0.623670 0.392404
H61   H     H_    0.804636 0.567802 0.619667 0.383879
H62   H     H_    0.195634 0.702576 0.831054 0.262276
H63   H     H_    0.236879 0.718384 0.758628 0.221640
H64   H     H_    0.151337 0.762296 0.774470 0.276024
O1    O     O_R   0.939380 0.392670 0.000020 -0.597722
O2    O     O_R   0.892670 0.560620 0.500020 -0.570802
O3    O     O_R   0.560620 0.107330 0.500020 -0.562256
O4    O     O_R   0.107330 0.439380 0.500020 -0.529144
O5    O     O_R   0.439380 0.107330 0.499980 -0.643082
O6    O     O_R   0.892670 0.439380 0.499980 -0.604546
O7    O     O_R   0.560620 0.892670 0.499980 -0.549438
O8    O     O_R   0.107330 0.560620 0.499980 -0.662505
O9    O     O_R   0.939380 0.500000 0.908420 -0.605089
O10   O     O_R   0.500000 0.060620 0.908420 -0.581330
O11   O     O_R   0.060620 0.500000 0.908420 -0.608957
O12   O     O_R   0.392670 0.060620 0.000020 -0.597957
O13   O     O_R   0.500000 0.939380 0.908420 -0.628097
O14   O     O_R   0.939380 0.500000 0.091580 -0.573920
O15   O     O_R   0.500000 0.939380 0.091580 -0.608465
O16   O     O_R   0.060620 0.500000 0.091580 -0.580006
O17   O     O_R   0.500000 0.060620 0.091580 -0.612523
O18   O     O_R   0.439380 0.000000 0.408420 -0.603059
O19   O     O_R   0.000000 0.560620 0.408420 -0.607144
O20   O     O_R   0.560620 0.000000 0.408420 -0.615780
O21   O     O_R   0.000000 0.439380 0.408420 -0.617574
O22   O     O_R   0.439380 0.000000 0.591580 -0.614894
O23   O     O_R   0.060620 0.607330 0.000020 -0.540949
O24   O     O_R   0.000000 0.439380 0.591580 -0.610988
O25   O     O_R   0.560620 0.000000 0.591580 -0.584272
O26   O     O_R   0.000000 0.560620 0.591580 -0.611398
O27   O     O_R   0.107300 0.999970 0.948290 -0.586892
O28   O     O_R   0.999970 0.892700 0.948290 -0.585710
O29   O     O_R   0.892700 0.000030 0.948290 -0.595680
O30   O     O_R   0.000030 0.107300 0.948290 -0.575550
O31   O     O_R   0.107300 0.000030 0.051710 -0.601750
O32   O     O_R   0.999970 0.107300 0.051710 -0.635915
O33   O     O_R   0.892700 0.999970 0.051710 -0.591238
O34   O     O_R   0.607330 0.939380 0.000020 -0.601729
O35   O     O_R   0.000030 0.892700 0.051710 -0.631421
O36   O     O_R   0.607300 0.499970 0.448290 -0.610892
O37   O     O_R   0.499970 0.392700 0.448290 -0.591366
O38   O     O_R   0.392700 0.500030 0.448290 -0.624676
O39   O     O_R   0.500030 0.607300 0.448290 -0.592278
O40   O     O_R   0.607300 0.500030 0.551710 -0.582953
O41   O     O_R   0.499970 0.607300 0.551710 -0.598459
O42   O     O_R   0.392700 0.499970 0.551710 -0.585877
O43   O     O_R   0.500030 0.392700 0.551710 -0.590891
O44   O     O_2   0.080114 0.696304 0.894538 -0.328514
O45   O     O_R   0.939380 0.607330 0.999980 -0.641893
O46   O     O_2   0.018485 0.749655 0.805020 -0.293758
O47   O     O_3   0.950076 0.647641 0.866092 -0.577383
O48   O     O_2   0.745756 0.005858 0.862467 -0.337821
O49   O     O_2   0.703256 0.060861 0.766120 -0.239430
O50   O     O_3   0.632598 0.091742 0.864662 -0.548091
O51   O     O_2   0.024896 0.248904 0.861780 -0.272201
O52   O     O_2   0.077643 0.306941 0.770228 -0.283195
O53   O     O_3   0.099663 0.367787 0.873661 -0.531674
O54   O     O_2   0.309105 0.096396 0.897857 -0.335741
O55   O     O_2   0.252053 0.041619 0.809587 -0.287148
O56   O     O_R   0.392670 0.939380 0.999980 -0.594606
O57   O     O_3   0.348030 0.963304 0.867946 -0.605669
O58   O     O_2   0.883257 0.339342 0.104363 -0.329474
O59   O     O_2   0.838780 0.306348 0.207203 -0.320046
O60   O     O_3   0.838991 0.443884 0.174543 -0.508961
O61   O     O_2   0.749962 0.992807 0.138759 -0.294050
O62   O     O_2   0.699772 0.934398 0.231177 -0.273487
O63   O     O_3   0.636167 0.909969 0.128616 -0.540696
O64   O     O_2   0.126180 0.660303 0.096878 -0.311907
O65   O     O_2   0.166770 0.688702 0.199596 -0.307396
O66   O     O_3   0.161519 0.552095 0.171608 -0.511122
O67   O     O_R   0.060620 0.392670 0.999980 -0.593932
O68   O     O_2   0.309876 0.906192 0.103983 -0.338118
O69   O     O_2   0.252379 0.961633 0.192586 -0.302904
O70   O     O_3   0.349299 0.038895 0.133357 -0.591897
O71   O     O_2   0.578184 0.197808 0.394359 -0.345115
O72   O     O_2   0.515974 0.249934 0.304675 -0.280324
O73   O     O_3   0.448674 0.147501 0.366219 -0.568960
O74   O     O_2   0.138436 0.350397 0.405913 -0.289257
O75   O     O_2   0.207106 0.365032 0.309778 -0.283554
O76   O     O_3   0.154897 0.482184 0.357536 -0.595654
O77   O     O_2   0.530894 0.749043 0.360744 -0.271888
O78   O     O_R   0.607330 0.060620 0.999980 -0.626434
O79   O     O_2   0.582350 0.809415 0.269706 -0.260451
O80   O     O_3   0.602983 0.869336 0.373738 -0.529021
O81   O     O_2   0.871263 0.655123 0.402793 -0.285760
O82   O     O_2   0.799299 0.649961 0.309169 -0.259641
O83   O     O_3   0.845719 0.527111 0.356851 -0.603019
O84   O     O_2   0.575489 0.799303 0.605868 -0.338926
O85   O     O_2   0.511390 0.750235 0.696580 -0.293731
O86   O     O_3   0.446650 0.852883 0.634043 -0.582548
O87   O     O_2   0.249640 0.489185 0.638957 -0.285114
O88   O     O_2   0.198814 0.431747 0.731552 -0.286292
O89   O     O_R   0.439380 0.892670 0.500020 -0.654638
O90   O     O_3   0.134970 0.407552 0.629064 -0.541498
O91   O     O_2   0.534341 0.251015 0.641256 -0.315522
O92   O     O_2   0.584613 0.185972 0.730542 -0.232829
O93   O     O_3   0.603587 0.129072 0.625116 -0.546823
O94   O     O_2   0.808385 0.409217 0.603305 -0.333285
O95   O     O_2   0.751195 0.466524 0.691173 -0.287343
O96   O     O_3   0.849922 0.541402 0.632066 -0.586483
S1    S     S_3+6 0.031862 0.679624 0.841468 -0.003045
S2    S     S_3+6 0.142359 0.392324 0.345652 0.026531
S3    S     S_3+6 0.545093 0.822565 0.330116 0.038008
S4    S     S_3+6 0.863177 0.616795 0.343298 0.030760
S5    S     S_3+6 0.527168 0.818887 0.658816 -0.011046
S6    S     S_3+6 0.179312 0.468589 0.671252 0.019612
S7    S     S_3+6 0.547006 0.176338 0.670268 0.023467
S8    S     S_3+6 0.822024 0.457541 0.656396 -0.003986
S9    S     S_3+6 0.678736 0.027408 0.826698 0.019466
S10   S     S_3+6 0.040725 0.321698 0.830486 0.029069
S11   S     S_3+6 0.322438 0.048168 0.844431 -0.013642
S12   S     S_3+6 0.881595 0.362303 0.169718 0.018450
S13   S     S_3+6 0.679864 0.971275 0.170990 0.021700
S14   S     S_3+6 0.123186 0.635767 0.163048 0.025680
S15   S     S_3+6 0.323061 0.954329 0.157282 -0.012930
S16   S     S_3+6 0.530078 0.180273 0.341426 0.000561
Zn1   Zn    Zn3+2 0.919060 0.500000 0.000000 1.071219
Zn2   Zn    Zn3+2 1.000000 0.000000 0.069040 1.023418
Zn3   Zn    Zn3+2 0.500000 0.500000 0.430960 1.078785
Zn4   Zn    Zn3+2 0.500000 0.500000 0.569040 1.105109
Zn5   Zn    Zn3+2 0.500000 0.080940 0.000000 1.076277
Zn6   Zn    Zn3+2 0.080940 0.500000 0.000000 1.112461
Zn7   Zn    Zn3+2 0.500000 0.919060 0.000000 1.075209
Zn8   Zn    Zn3+2 0.419060 0.000000 0.500000 1.034601
Zn9   Zn    Zn3+2 0.000000 0.580940 0.500000 1.076001
Zn10  Zn    Zn3+2 0.580940 0.000000 0.500000 1.111421
Zn11  Zn    Zn3+2 0.000000 0.419060 0.500000 1.111063
Zn12  Zn    Zn3+2 0.000000 0.000000 0.930960 1.108607

loop_
_geom_bond_atom_site_label_1
_geom_bond_atom_site_label_2
_ccdc_geom_bond_type
C48   C77   A    
C23   C99   S    
C77   C92   A    
C101  C102  T    
C49   C63   A    
O22   Zn8   S    
C74   O39   A    
O69   S15   D    
C16   H42   S    
O33   Zn2   S    
C90   C99   A    
C5    C56   S    
C112  H62   S    
O60   S12   S    
C36   O23   A    
C23   O13   A    
O78   Zn5   S    
O61   S13   D    
C15   H39   S    
C27   C96   S    
C70   C101  S    
C25   O56   A    
O90   S6    S    
O67   Zn6   S    
C88   C99   A    
O92   S7    D    
O93   S7    S    
O64   S14   D    
H59   O90   S    
H44   O47   S    
C24   C98   S    
C84   C97   A    
H47   O53   S    
O55   S11   D    
C27   O20   A    
O35   Zn2   S    
H50   O63   S    
C30   C93   S    
C71   C107  S    
C3    H4    S    
C22   O9    A    
O21   Zn11  S    
C29   C94   S    
C12   C64   S    
O53   S10   S    
O43   Zn4   S    
O14   Zn1   S    
C35   C53   A    
C70   O32   A    
C82   C87   A    
C32   C88   A    
O62   S13   D    
C14   H36   S    
H55   O80   S    
C28   O19   A    
C35   S12   S    
C14   H37   S    
H51   O66   S    
O28   Zn12  S    
C51   C65   A    
C55   C61   A    
O94   S8    D    
C22   O11   A    
C44   C76   A    
C86   C97   A    
O66   S14   S    
C19   C107  T    
C85   C98   A    
O5    Zn8   S    
C76   C94   A    
C33   S10   S    
O20   Zn10  S    
C18   C58   S    
O46   S1    D    
C38   C55   A    
C39   C56   A    
C31   C89   A    
O23   Zn6   S    
C8    H20   S    
O88   S6    D    
O75   S2    D    
O80   S3    S    
C67   O35   A    
C67   O28   A    
C16   C63   S    
O49   S9    D    
O65   S14   D    
C2    C25   S    
C82   C95   A    
H52   O70   S    
H46   O50   S    
O41   Zn4   S    
O12   Zn5   S    
O18   Zn8   S    
C69   O6    A    
C69   O2    A    
C87   C98   A    
C110  H12   S    
C9    H22   S    
O15   Zn7   S    
C72   O37   A    
O63   S13   S    
C40   S16   S    
O96   S8    S    
C91   O8    A    
C4    H6    S    
C110  H23   S    
C1    O1    A    
C6    H11   S    
C31   C49   A    
O29   Zn12  S    
C11   C59   S    
C68   O33   A    
O6    Zn11  S    
C7    H17   S    
O30   Zn12  S    
C15   H40   S    
C3    C50   S    
H61   O96   S    
C67   C104  S    
C1    C102  S    
C48   S8    S    
C53   C59   A    
C30   O26   A    
C74   O41   A    
C20   C80   S    
C5    H8    S    
O82   S4    D    
O4    Zn11  S    
O26   Zn9   S    
C80   O3    A    
C72   C108  S    
C7    C54   S    
C10   C57   S    
O9    Zn1   S    
C6    H14   S    
C13   C36   S    
C24   O16   A    
O77   S3    D    
C33   C92   A    
C37   S13   S    
C46   C78   A    
C92   C100  A    
H60   O93   S    
O38   Zn3   S    
C89   C100  A    
C52   C111  S    
C44   C62   A    
C30   O24   A    
O40   Zn4   S    
C48   C65   A    
O54   S11   D    
O73   S16   S    
O89   Zn8   S    
C78   C90   A    
C56   C60   A    
C46   C64   A    
C58   O7    A    
C12   H33   S    
C11   H28   S    
C18   C106  T    
C79   C95   A    
C25   O12   A    
C17   C105  T    
O8    Zn9   S    
C74   C106  S    
O56   Zn7   S    
C44   S5    S    
O47   S1    S    
O45   Zn1   S    
O32   Zn2   S    
C91   O4    A    
C112  H63   S    
C16   H43   S    
C46   S7    S    
O19   Zn9   S    
O83   S4    S    
C37   C84   A    
C27   O18   A    
C80   O5    A    
C13   C104  T    
C11   H29   S    
C110  H1    S    
C32   C50   A    
C45   C75   A    
O11   Zn6   S    
C47   O78   A    
C49   C112  S    
C15   C62   S    
C66   O27   A    
O13   Zn7   S    
O95   S8    D    
C10   H25   S    
C26   C97   S    
C71   O36   A    
C51   C110  S    
O58   S12   D    
H48   O57   S    
C28   C95   S    
C4    C55   S    
C52   C64   A    
C7    H16   S    
C9    C61   S    
C73   O38   A    
C111  H34   S    
C33   C51   A    
C10   H27   S    
C37   C54   A    
C6    C53   S    
C42   C60   A    
C32   S9    S    
C31   S1    S    
O51   S10   D    
O17   Zn5   S    
C1    O67   A    
C79   C85   A    
C81   C84   A    
O70   S15   S    
C38   S14   S    
O72   S16   D    
C41   C79   A    
C21   C91   S    
O52   S10   D    
C81   C96   A    
C72   O43   A    
C76   C88   A    
C34   C90   A    
O81   S4    D    
O16   Zn6   S    
C40   C57   A    
O7    Zn10  S    
C112  H64   S    
O44   S1    D    
C34   C52   A    
C66   C103  S    
C14   H35   S    
O3    Zn10  S    
C9    H21   S    
C42   C83   A    
C17   C47   S    
C6    H13   S    
O71   S16   D    
C16   H41   S    
C3    H2    S    
O24   Zn11  S    
C8    H19   S    
C23   O10   A    
C21   C109  T    
C26   O15   A    
C73   C109  S    
C43   S4    S    
H53   O73   S    
C70   O30   A    
O87   S6    D    
C10   H26   S    
O39   Zn3   S    
C38   C87   A    
O1    Zn1   S    
O59   S12   D    
C39   C86   A    
C12   H31   S    
H58   O86   S    
O57   S11   S    
C40   C81   A    
C39   S15   S    
C5    H9    S    
C4    H7    S    
O25   Zn10  S    
O50   S9    S    
C45   S6    S    
C3    H3    S    
C8    C60   S    
C28   O21   A    
C8    H18   S    
C66   O31   A    
C35   C85   A    
C29   O25   A    
C43   C61   A    
H49   O60   S    
C2    C103  T    
C78   C94   A    
C75   C93   A    
C50   C62   A    
C83   C96   A    
C5    H10   S    
C58   O89   A    
C77   C93   A    
C14   C65   S    
C45   C63   A    
C73   O42   A    
O2    Zn9   S    
O34   Zn7   S    
O74   S2    D    
O48   S9    D    
C111  H45   S    
C4    H5    S    
C11   H30   S    
H54   O76   S    
O10   Zn5   S    
C22   C100  S    
C19   C69   S    
C75   C89   A    
O36   Zn3   S    
O27   Zn12  S    
C9    H24   S    
C12   H32   S    
C83   C86   A    
O85   S5    D    
C26   O17   A    
O91   S7    D    
O68   S15   D    
C29   O22   A    
C68   C105  S    
C47   O34   A    
O79   S3    D    
C68   O29   A    
H57   O83   S    
C43   C82   A    
C24   O14   A    
C111  H56   S    
O31   Zn2   S    
O84   S5    D    
C7    H15   S    
C34   S11   S    
O86   S5    S    
O76   S2    S    
C36   O45   A    
O37   Zn3   S    
C15   H38   S    
C41   S2    S    
C71   O40   A    
C41   C59   A    
O42   Zn4   S    
C20   C108  T    
C54   C57   A    
C42   S3    S    
