data_mof_unit_41365.cif
_audit_creation_date              2012-12-11T17:04:52-0500
_audit_creation_method            fapswitch 2.2
_symmetry_space_group_name_H-M    P1
_symmetry_Int_Tables_number       1
_space_group_crystal_system       triclinic
_cell_length_a                    17.635038
_cell_length_b                    24.534656
_cell_length_c                    15.090269
_cell_angle_alpha                 89.755036
_cell_angle_beta                  125.537282
_cell_angle_gamma                 89.495623
_cell_volume                      5312.41407933

loop_
_atom_site_label
_atom_site_type_symbol
_atom_type_description
_atom_site_fract_x
_atom_site_fract_y
_atom_site_fract_z
_atom_type_partial_charge
C1    C     C_R   0.809344 0.622891 0.909753 0.685134
C2    C     C_R   0.043319 0.500526 0.719331 -0.159914
C3    C     C_R   0.770006 0.045101 0.261945 0.158311
C4    C     C_R   0.817568 0.371682 0.913156 0.693551
C5    C     C_R   0.145136 0.347622 0.086481 0.664997
C6    C     C_R   0.349548 0.850388 0.916464 0.672777
C7    C     C_R   0.644504 0.847455 0.086344 0.655592
C8    C     C_R   0.904034 0.630207 0.089761 0.141656
C9    C     C_R   0.063934 0.650937 0.910785 0.321762
C10   C     C_R   0.403278 0.129321 0.089728 0.124531
C11   C     C_R   0.558798 0.152447 0.910676 0.302496
C12   C     C_R   0.813654 0.640510 0.998735 -0.127065
C13   C     C_R   0.562271 0.000725 0.364688 -0.183357
C14   C     C_R   0.133534 0.677876 0.000368 -0.213254
C15   C     C_R   0.312826 0.139363 0.998707 -0.116103
C16   C     C_R   0.622797 0.181590 0.000252 -0.189096
C17   C     C_3   0.475260 0.383764 0.585895 -0.791128
C18   C     C_3   0.551214 0.360129 0.400099 -0.794480
C19   C     C_3   0.975701 0.884031 0.585535 -0.824318
C20   C     C_3   0.054660 0.860872 0.404008 -0.800179
C21   C     C_3   0.813752 0.384901 0.652502 -0.688064
C22   C     C_3   0.251362 0.388922 0.370000 -0.556150
C23   C     C_3   0.301881 0.888399 0.636801 -0.634411
C24   C     C_R   0.543496 0.000025 0.719545 -0.159971
C25   C     C_3   0.750752 0.889377 0.370521 -0.564386
C26   C     C_3   0.764608 0.591459 0.569005 -0.671577
C27   C     C_3   0.286654 0.603123 0.403636 -0.587137
C28   C     C_3   0.266230 0.091932 0.569929 -0.670973
C29   C     C_3   0.787966 0.104044 0.402513 -0.596957
C30   C     C_3   0.022228 0.694185 0.211366 -0.617725
C31   C     C_3   0.912416 0.694463 0.792269 -0.766805
C32   C     C_3   0.518028 0.194590 0.212038 -0.591555
C33   C     C_3   0.410852 0.199506 0.791207 -0.789728
C34   C     C_R   0.693054 0.501897 0.640340 -0.056521
C35   C     C_R   0.325340 0.498461 0.290839 0.027676
C36   C     C_R   0.193578 0.002081 0.639733 -0.017894
C37   C     C_R   0.825368 0.998441 0.290816 0.028680
C38   C     C_3   0.527737 0.459865 0.528478 0.184333
C39   C     C_3   0.496638 0.450393 0.411897 0.192469
C40   C     C_3   0.028159 0.960392 0.528717 0.207168
C41   C     C_R   0.156560 0.649197 0.090555 0.729727
C42   C     C_3   0.996892 0.950468 0.412314 0.197360
C43   C     C_3   0.456234 0.506055 0.492158 -0.411680
C44   C     C_3   0.568488 0.491471 0.425208 -0.384089
C45   C     C_3   0.956602 0.006594 0.491980 -0.415531
C46   C     C_3   0.068676 0.991355 0.424930 -0.384466
C47   C     C_3   0.424645 0.496793 0.374159 -0.177613
C48   C     C_3   0.599075 0.501286 0.542706 -0.185137
C49   C     C_3   0.924768 0.996837 0.373998 -0.183545
C50   C     C_3   0.099442 0.001625 0.542327 -0.185704
C51   C     C_3   0.495388 0.537928 0.387620 0.661110
C52   C     C_R   0.308907 0.122109 0.909804 0.680816
C53   C     C_3   0.526965 0.547317 0.504843 0.670262
C54   C     C_3   0.995496 0.037842 0.386812 0.665312
C55   C     C_3   0.027314 0.047706 0.504015 0.662916
C56   C     C_R   0.741508 0.313581 0.071090 0.043052
C57   C     C_R   0.149352 0.255708 0.898133 -0.035052
C58   C     C_R   0.310527 0.782373 0.097027 0.044560
C59   C     C_R   0.646091 0.754912 0.896710 -0.034411
C60   C     C_R   0.776254 0.311378 0.008749 -0.003203
C61   C     C_R   0.143288 0.264490 0.984783 -0.004211
C62   C     C_R   0.331903 0.778547 0.021574 -0.015108
C63   C     C_R   0.651512 0.151243 0.090323 0.743574
C64   C     C_R   0.641341 0.763985 0.984308 0.002773
C65   C     C_R   0.771234 0.263426 0.955913 -0.247695
C66   C     C_R   0.171045 0.222768 0.062568 -0.269556
C67   C     C_R   0.296779 0.736239 0.946786 -0.245124
C68   C     C_R   0.671501 0.722773 0.063623 -0.275664
C69   C     C_R   0.909831 0.371983 0.095229 -0.146011
C70   C     C_R   0.057028 0.350631 0.906527 -0.143038
C71   C     C_R   0.439813 0.853653 0.097745 -0.133827
C72   C     C_R   0.555729 0.850384 0.906331 -0.124731
C73   C     C_R   0.229347 0.703122 0.937550 0.780638
C74   C     C_R   0.825317 0.355674 0.005586 -0.076222
C75   C     C_R   0.721148 0.677694 0.063967 0.774448
C76   C     C_R   0.718582 0.221044 0.951386 0.788991
C77   C     C_R   0.219525 0.177163 0.062450 0.772160
C78   C     C_R   0.196669 0.713923 0.001855 -0.313604
C79   C     C_R   0.742595 0.676014 0.987531 -0.243247
C80   C     C_R   0.671702 0.226929 0.000457 -0.298550
C81   C     C_R   0.242320 0.175479 0.987231 -0.241307
C82   C     C_R   0.243556 0.750161 0.087240 0.151215
C83   C     C_R   0.696318 0.711853 0.898456 0.117049
C84   C     C_R   0.689437 0.271065 0.067340 0.158246
C85   C     C_R   0.117781 0.318803 0.994660 -0.053948
C86   C     C_R   0.198446 0.212145 0.899472 0.119779
C87   C     C_3   0.204812 0.794965 0.117121 0.752196
C88   C     C_3   0.733764 0.745070 0.848455 0.755805
C89   C     C_3   0.621541 0.308654 0.065555 0.679867
C90   C     C_3   0.238306 0.245119 0.851982 0.739768
C91   C     C_3   0.679186 0.355566 0.070026 -0.569248
C92   C     C_3   0.183598 0.293244 0.850352 -0.472332
C93   C     C_3   0.279361 0.830923 0.128697 -0.611930
C94   C     C_3   0.677808 0.792592 0.846267 -0.479274
C95   C     C_R   0.031509 0.546953 0.570240 -0.177699
C96   C     C_R   0.375459 0.823728 0.011061 -0.060479
C97   C     C_R   0.039576 0.547910 0.485766 -0.262662
C98   C     C_R   0.536164 0.047560 0.574182 -0.191726
C99   C     C_R   0.544100 0.048676 0.489533 -0.255872
C100  C     C_R   0.069521 0.503965 0.645379 -0.118356
C101  C     C_R   0.082980 0.504878 0.471309 -0.142149
C102  C     C_R   0.570990 0.003509 0.646746 -0.117836
C103  C     C_R   0.583340 0.004442 0.471764 -0.144561
C104  C     C_R   0.126880 0.464929 0.642395 0.671000
C105  C     C_R   0.133513 0.465265 0.554208 0.665145
C106  C     C_R   0.625440 0.963286 0.641301 0.672481
C107  C     C_R   0.616162 0.818395 0.994357 -0.057503
C108  C     C_R   0.631496 0.963632 0.552678 0.663470
C109  C     C_3   0.943187 0.570978 0.407611 1.217547
C110  C     C_3   0.932879 0.568285 0.499728 1.118028
C111  C     C_3   0.449820 0.074814 0.413546 1.218513
C112  C     C_3   0.439214 0.071429 0.505342 1.118972
C113  C     C_R   0.050397 0.545667 0.303138 0.714456
C114  C     C_R   0.018728 0.545360 0.751688 0.686688
C115  C     C_R   0.550472 0.045502 0.303285 0.715259
C116  C     C_R   0.520279 0.044994 0.753267 0.683362
C117  C     C_R   0.742533 0.456305 0.697665 0.180806
C118  C     C_R   0.063572 0.501011 0.365210 -0.178496
C119  C     C_R   0.268716 0.453705 0.261313 0.068973
C120  C     C_R   0.241837 0.956500 0.698787 0.093739
C121  C     C_R   0.768709 0.953686 0.261599 0.071153
C122  C     C_R   0.046724 0.455719 0.303530 0.668492
C123  C     C_R   0.014239 0.455227 0.745552 0.675812
C124  C     C_R   0.544858 0.955510 0.302382 0.679669
C125  C     C_R   0.512784 0.954936 0.744202 0.677460
C126  C     C_R   0.743207 0.546778 0.696903 0.305898
C127  C     C_R   0.270081 0.545078 0.262568 0.152267
C128  C     C_R   0.243837 0.046886 0.696610 0.303310
F1    F     F_    0.732478 0.625953 0.806627 -0.667920
F2    F     F_    0.754194 0.638835 0.142953 -0.618900
F3    F     F_    0.712631 0.174806 0.898528 -0.637420
F4    F     F_    0.250075 0.137677 0.139844 -0.620397
F5    F     F_    0.218873 0.784771 0.215992 -0.609408
F6    F     F_    0.700229 0.728282 0.744368 -0.594584
F7    F     F_    0.625933 0.303655 0.159847 -0.646510
F8    F     F_    0.205297 0.228996 0.747695 -0.598959
F9    F     F_    0.170730 0.425069 0.719645 -0.622166
F10   F     F_    0.183917 0.425750 0.546997 -0.617310
F11   F     F_    0.666612 0.922267 0.716261 -0.622281
F12   F     F_    0.200220 0.670863 0.190694 -0.680267
F13   F     F_    0.678786 0.922981 0.542992 -0.615909
F14   F     F_    0.883588 0.536825 0.322041 -0.670193
F15   F     F_    0.920959 0.619082 0.529863 -0.625372
F16   F     F_    0.387038 0.043154 0.324885 -0.664766
F17   F     F_    0.430908 0.121997 0.539477 -0.629054
F18   F     F_    0.943304 0.623651 0.374680 -0.625128
F19   F     F_    0.868179 0.530394 0.483277 -0.720549
F20   F     F_    0.454764 0.127747 0.385566 -0.633718
F21   F     F_    0.371741 0.034889 0.485693 -0.720922
F22   F     F_    0.084964 0.595459 0.344221 -0.678564
F23   F     F_    0.232204 0.125533 0.806561 -0.669131
F24   F     F_    0.032949 0.597226 0.736425 -0.609628
F25   F     F_    0.586572 0.094973 0.345096 -0.678863
F26   F     F_    0.541377 0.096527 0.745455 -0.622232
F27   F     F_    0.061914 0.403362 0.339149 -0.652989
F28   F     F_    0.014326 0.403629 0.714416 -0.677063
F29   F     F_    0.555666 0.902879 0.335301 -0.656854
F30   F     F_    0.510445 0.903412 0.711233 -0.676391
F31   F     F_    0.752295 0.354354 0.811857 -0.743039
F32   F     F_    0.175389 0.323008 0.182036 -0.729817
F33   F     F_    0.309266 0.825960 0.819294 -0.741113
F34   F     F_    0.695893 0.172138 0.191206 -0.693150
F35   F     F_    0.675169 0.823125 0.182278 -0.734101
F36   F     F_    0.478470 0.577836 0.312941 -0.657599
F37   F     F_    0.537702 0.597650 0.551007 -0.652222
F38   F     F_    0.978586 0.077437 0.311627 -0.652887
F39   F     F_    0.038259 0.098261 0.549483 -0.653396
F40   F     F_    0.195162 0.661867 0.864878 -0.633866
H1    H     H_    0.805661 0.259469 0.915664 0.200578
H2    H     H_    0.126486 0.307406 0.766926 0.295488
H3    H     H_    0.332942 0.843483 0.213869 0.276154
H4    H     H_    0.619499 0.805824 0.762701 0.296252
H5    H     H_    0.641872 0.381190 0.994712 0.176224
H6    H     H_    0.228664 0.326069 0.906922 0.176380
H7    H     H_    0.250592 0.864513 0.067158 0.170234
H8    H     H_    0.722028 0.826122 0.901176 0.176916
H9    H     H_    0.940325 0.361285 0.178989 0.231669
H10   H     H_    0.011974 0.336382 0.823981 0.209772
H11   H     H_    0.480199 0.841734 0.182594 0.233916
H12   H     H_    0.160927 0.226821 0.126392 0.240873
H13   H     H_    0.509616 0.836262 0.823783 0.213317
H14   H     H_    0.410128 0.510895 0.519412 0.190269
H15   H     H_    0.615925 0.485712 0.400027 0.214664
H16   H     H_    0.910722 0.011656 0.519500 0.190973
H17   H     H_    0.115991 0.985401 0.399626 0.211537
H18   H     H_    0.580397 0.437201 0.687518 0.197890
H19   H     H_    0.502492 0.352903 0.652162 0.260787
H20   H     H_    0.449609 0.361900 0.509435 0.263391
H21   H     H_    0.417807 0.406975 0.579145 0.252771
H22   H     H_    0.444238 0.406187 0.271368 0.181808
H23   H     H_    0.316972 0.730993 0.891891 0.223430
H24   H     H_    0.529721 0.325293 0.343792 0.256285
H25   H     H_    0.566890 0.343917 0.477725 0.255271
H26   H     H_    0.614353 0.378449 0.413231 0.263378
H27   H     H_    0.079981 0.937814 0.687462 0.181601
H28   H     H_    0.002748 0.853285 0.651956 0.253968
H29   H     H_    0.950801 0.862012 0.509422 0.271799
H30   H     H_    0.917749 0.907085 0.577931 0.260485
H31   H     H_    0.943885 0.904277 0.273846 0.176349
H32   H     H_    0.031836 0.823260 0.354593 0.249758
H33   H     H_    0.078498 0.849294 0.487585 0.263857
H34   H     H_    0.662601 0.726974 0.128396 0.240483
H35   H     H_    0.113063 0.878711 0.405498 0.260376
H36   H     H_    0.687431 0.378809 0.635763 0.249925
H37   H     H_    0.793491 0.348024 0.601370 0.247919
H38   H     H_    0.868067 0.373095 0.737765 0.243519
H39   H     H_    0.838920 0.415351 0.621135 0.263644
H40   H     H_    0.311753 0.372945 0.286221 0.214924
H41   H     H_    0.282327 0.350684 0.418216 0.253415
H42   H     H_    0.176681 0.382058 0.306141 0.296638
H43   H     H_    0.258010 0.421782 0.424446 0.232713
H44   H     H_    0.203040 0.875453 0.670353 0.243039
H45   H     H_    0.132179 0.807306 0.050479 -0.023761
H46   H     H_    0.279489 0.851144 0.586474 0.250172
H47   H     H_    0.366825 0.878882 0.717378 0.259402
H48   H     H_    0.314063 0.920910 0.595082 0.246081
H49   H     H_    0.811711 0.872904 0.287496 0.215360
H50   H     H_    0.781590 0.851227 0.419112 0.255298
H51   H     H_    0.676003 0.882558 0.306613 0.290013
H52   H     H_    0.757338 0.922399 0.424653 0.230442
H53   H     H_    0.687881 0.622253 0.621506 0.315055
H54   H     H_    0.777764 0.632511 0.549820 0.295147
H55   H     H_    0.705404 0.573267 0.492719 0.257930
H56   H     H_    0.810529 0.750538 0.902690 -0.069564
H57   H     H_    0.827792 0.565849 0.602876 0.268128
H58   H     H_    0.361888 0.610476 0.336126 0.261985
H59   H     H_    0.242117 0.639810 0.383959 0.300515
H60   H     H_    0.354618 0.609702 0.482964 0.246049
H61   H     H_    0.253324 0.567392 0.412848 0.211198
H62   H     H_    0.189164 0.122544 0.622032 0.313948
H63   H     H_    0.279087 0.133044 0.550627 0.293143
H64   H     H_    0.207356 0.073491 0.493678 0.257224
H65   H     H_    0.329723 0.066590 0.604234 0.266417
H66   H     H_    0.861289 0.110819 0.332573 0.260166
H67   H     H_    0.549744 0.306885 0.989311 -0.010551
H68   H     H_    0.743254 0.140626 0.382986 0.300580
H69   H     H_    0.856408 0.111006 0.481023 0.247229
H70   H     H_    0.755450 0.068397 0.413322 0.214594
H71   H     H_    0.904085 0.677730 0.203231 0.248699
H72   H     H_    0.053066 0.714514 0.290801 0.259884
H73   H     H_    0.994444 0.725869 0.146279 0.180415
H74   H     H_    0.077872 0.670174 0.216209 0.292327
H75   H     H_    0.027053 0.708501 0.791630 0.223707
H76   H     H_    0.868143 0.716821 0.713416 0.281590
H77   H     H_    0.926508 0.721648 0.858892 0.208304
H78   H     H_    0.315260 0.249546 0.907417 -0.062981
H79   H     H_    0.873727 0.658491 0.788244 0.264602
H80   H     H_    0.401698 0.174167 0.204820 0.252690
H81   H     H_    0.547654 0.214530 0.291579 0.260537
H82   H     H_    0.488176 0.226472 0.147059 0.195838
H83   H     H_    0.575004 0.172352 0.216772 0.290390
H84   H     H_    0.523143 0.203453 0.783178 0.237671
H85   H     H_    0.366466 0.219356 0.709630 0.285891
H86   H     H_    0.430201 0.230491 0.854369 0.211388
H87   H     H_    0.369621 0.167133 0.794496 0.270840
H88   H     H_    0.715233 0.378596 0.147406 0.263543
N1    N     N_R   0.892620 0.603790 0.941770 -0.155121
N2    N     N_R   0.973690 0.529110 0.793240 -0.173020
N3    N     N_R   0.526310 0.029110 0.206760 -0.150815
N4    N     N_R   0.473690 0.029110 0.793240 -0.170704
N5    N     N_R   0.818570 0.472310 0.793020 -0.091465
N6    N     N_R   0.181430 0.472310 0.206980 -0.091512
N7    N     N_R   0.318570 0.972310 0.793020 -0.086297
N8    N     N_R   0.681430 0.972310 0.206980 -0.091737
N9    N     N_R   0.026930 0.472300 0.207330 -0.164740
N10   N     N_R   0.973070 0.472300 0.792670 -0.172350
N11   N     N_R   0.526930 0.972300 0.207330 -0.164363
N12   N     N_R   0.107380 0.603790 0.058230 -0.145512
N13   N     N_R   0.473070 0.972300 0.792670 -0.172707
N14   N     N_R   0.817960 0.529130 0.792460 -0.094387
N15   N     N_R   0.182040 0.529130 0.207540 -0.085398
N16   N     N_R   0.317960 0.029130 0.792460 -0.088805
N17   N     N_R   0.682040 0.029130 0.207540 -0.084788
N18   N     N_R   0.894850 0.397640 0.943830 -0.117924
N19   N     N_R   0.105150 0.397640 0.056170 -0.113726
N20   N     N_R   0.394850 0.897640 0.943830 -0.115195
N21   N     N_R   0.605150 0.897640 0.056170 -0.115525
N22   N     N_R   0.950040 0.603780 0.055950 -0.114488
N23   N     N_R   0.392620 0.103790 0.941770 -0.155147
N24   N     N_R   0.049960 0.603780 0.944050 -0.119626
N25   N     N_R   0.450040 0.103780 0.055950 -0.114567
N26   N     N_R   0.549960 0.103780 0.944050 -0.112483
N27   N     N_2   0.549026 0.420134 0.611681 -0.109669
N28   N     N_2   0.476071 0.399768 0.353473 -0.120815
N29   N     N_2   0.049359 0.920636 0.611840 -0.120780
N30   N     N_2   0.977435 0.899099 0.356563 -0.120254
N31   N     N_2   0.733932 0.406748 0.643996 -0.114160
N32   N     N_2   0.298750 0.404031 0.321312 -0.134384
N33   N     N_2   0.230189 0.905412 0.649265 -0.122692
N34   N     N_R   0.607380 0.103790 0.058230 -0.144913
N35   N     N_2   0.798547 0.904166 0.322113 -0.132555
N36   N     N_2   0.743321 0.596373 0.647626 -0.121724
N37   N     N_2   0.300746 0.595160 0.319014 -0.081224
N38   N     N_2   0.244641 0.096669 0.648286 -0.119795
N39   N     N_2   0.800512 0.095622 0.316720 -0.082787
N40   N     N_2   0.948542 0.658585 0.189773 -0.047203
N41   N     N_2   0.998463 0.677478 0.809162 -0.041119
N42   N     N_2   0.446821 0.156894 0.190455 -0.053223
N43   N     N_2   0.493109 0.176297 0.806208 -0.049552
N44   N     N_R   0.952270 0.397640 0.058010 -0.080937
N45   N     N_R   0.047730 0.397640 0.941990 -0.092560
N46   N     N_R   0.452270 0.897640 0.058010 -0.088007
N47   N     N_R   0.547730 0.897640 0.941990 -0.095128
N48   N     N_R   0.026310 0.529110 0.206760 -0.151333
Ni1   Ni    Ni4+2 0.934160 0.565860 0.869070 0.216520
Ni2   Ni    Ni4+2 0.065840 0.565860 0.130930 0.239945
Ni3   Ni    Ni4+2 0.434160 0.065860 0.869070 0.223143
Ni4   Ni    Ni4+2 0.565840 0.065860 0.130930 0.243704
Ni5   Ni    Ni4+2 0.067260 0.435560 0.132230 0.244014
Ni6   Ni    Ni4+2 0.932740 0.435560 0.867770 0.206925
Ni7   Ni    Ni4+2 0.567260 0.935560 0.132230 0.236007
Ni8   Ni    Ni4+2 0.432740 0.935560 0.867770 0.215308

loop_
_geom_bond_atom_site_label_1
_geom_bond_atom_site_label_2
_ccdc_geom_bond_type
C99   C103  A    
C114  F24   S    
C35   C47   S    
N11   Ni7   S    
C23   H47   S    
C2    C123  A    
C68   C75   A    
C128  N38   S    
C60   C74   S    
C18   H24   S    
C25   N35   S    
C26   N36   S    
C20   H33   S    
C1    F1    S    
C58   C82   A    
C76   F3    S    
N14   Ni1   S    
C82   C87   S    
C19   N29   S    
C100  C104  A    
C91   H5    S    
N15   Ni2   S    
N4    N13   A    
C31   N41   S    
C94   H4    S    
C105  F10   S    
C27   H61   S    
C92   H2    S    
C30   H73   S    
C109  F14   S    
C13   C103  S    
C43   C47   S    
C116  F26   S    
C81   C86   A    
C80   C84   A    
C83   C88   S    
C115  F25   S    
C25   H50   S    
C120  N33   S    
C73   F40   S    
N8    Ni7   S    
C104  C105  A    
C123  F28   S    
C68   H34   S    
C121  N35   S    
C31   H76   S    
C33   H87   S    
C86   C90   S    
C72   N47   A    
C13   C124  A    
C125  F30   S    
H53   N36   S    
C98   C102  A    
C7    F35   S    
C16   C80   S    
C78   C82   A    
C90   C92   S    
C51   F36   S    
C35   C127  A    
C42   N30   S    
C61   C85   S    
C38   N27   S    
C37   C121  A    
C60   C65   A    
C70   N45   A    
C34   C48   S    
C36   C50   S    
C39   C47   S    
C66   C77   A    
C19   H30   S    
C126  N14   A    
C20   H35   S    
C30   H72   S    
C95   C97   A    
C11   N43   S    
C13   C115  A    
N34   Ni4   S    
C38   C43   S    
C115  N3    A    
C111  F20   S    
C2    C114  A    
C27   H59   S    
C106  F11   S    
C52   F23   S    
C22   H42   S    
N23   N25   A    
C110  F15   S    
H18   N27   S    
C119  N6    A    
C3    C37   A    
C98   C99   A    
C25   H52   S    
C11   N26   A    
C7    N21   A    
C75   C79   A    
C44   C48   S    
C45   H16   S    
C57   C92   S    
C18   H26   S    
C122  F27   S    
C111  C112  S    
C71   N46   A    
C28   N38   S    
C101  C118  S    
C64   C68   A    
C38   C39   S    
C17   H20   S    
C112  F17   S    
C118  C122  A    
C20   H32   S    
C41   F12   S    
N26   N34   A    
C69   N44   A    
N46   Ni7   S    
C26   H54   S    
C88   H56   S    
C9    N24   A    
C5    N19   A    
C89   C91   S    
C6    N20   A    
C28   H64   S    
C38   C48   S    
C127  N37   S    
C5    C85   A    
N19   Ni5   S    
C40   C42   S    
N6    N15   A    
C19   H28   S    
C127  N15   A    
C128  N16   A    
H80   N42   S    
C36   C128  A    
C1    C12   A    
C27   N37   S    
C48   C53   S    
C88   C94   S    
C98   C112  S    
N21   Ni7   S    
C32   N42   S    
H71   N40   S    
C92   H6    S    
C32   H81   S    
C93   H7    S    
C51   C53   S    
C33   N43   S    
C21   H38   S    
N2    Ni1   S    
C97   C109  S    
C6    F33   S    
C39   N28   S    
C8    C12   A    
C5    F32   S    
C99   C111  S    
C44   H15   S    
C52   N23   A    
C126  N36   S    
C59   C94   S    
N45   Ni6   S    
C24   C116  A    
C14   C41   A    
C7    C107  A    
N2    N10   A    
C29   H70   S    
N24   Ni1   S    
C54   C55   S    
C113  F22   S    
C76   C80   A    
C23   N33   S    
C39   C44   S    
H66   N39   S    
C89   H67   S    
C88   F6    S    
C123  N10   A    
C106  C108  A    
C113  N48   A    
C87   C93   S    
N10   Ni6   S    
N18   Ni6   S    
C45   C55   S    
C30   H74   S    
C70   C85   A    
N1    Ni1   S    
H44   N33   S    
C58   C62   A    
C89   F7    S    
C62   C96   S    
C55   F39   S    
N20   Ni8   S    
C29   N39   S    
C30   N40   S    
C32   H83   S    
C65   C76   A    
C33   H86   S    
C58   C93   S    
C59   C83   A    
C72   H13   S    
C121  N8    A    
H40   N32   S    
C4    F31   S    
C12   C79   S    
C40   N29   S    
C104  F9    S    
C42   C46   S    
C69   H9    S    
N44   Ni5   S    
C43   C53   S    
C56   C91   S    
C63   N34   A    
C3    N17   A    
C67   C73   A    
C16   C63   A    
C117  N31   S    
C9    N41   S    
C75   F2    S    
N13   Ni8   S    
C117  N5    A    
H84   N43   S    
C54   F38   S    
N17   Ni4   S    
C108  F13   S    
C56   C84   A    
C1    N1    A    
C23   H48   S    
C40   C45   S    
C19   H29   S    
N4    Ni3   S    
N5    Ni6   S    
C95   C100  A    
C47   C51   S    
C71   C96   A    
C8    N40   S    
C66   H12   S    
C56   C60   A    
C65   H1    S    
C9    C14   A    
N18   N44   A    
C37   C49   S    
C11   C16   A    
C45   C49   S    
H75   N41   S    
C124  F29   S    
C46   C54   S    
H27   N29   S    
C15   C52   A    
C53   F37   S    
C25   H51   S    
H31   N30   S    
C93   H3    S    
C95   C110  S    
N12   Ni2   S    
N3    Ni4   S    
N12   N24   A    
C124  N11   A    
N8    N17   A    
C4    N18   A    
C109  C110  S    
C79   C83   A    
C17   H19   S    
C40   C50   S    
C90   H78   S    
H22   N28   S    
C24   C102  S    
C46   H17   S    
C36   C120  A    
N3    N11   A    
C3    N39   S    
C17   N27   S    
C18   N28   S    
N9    N48   A    
C26   H55   S    
C41   N12   A    
C26   H57   S    
H49   N35   S    
N20   N46   A    
C94   H8    S    
N47   Ni8   S    
N21   N47   A    
C23   H46   S    
C63   F34   S    
H36   N31   S    
C8    N22   A    
C87   F5    S    
C35   C119  A    
C109  F18   S    
N16   Ni3   S    
C15   C81   S    
C59   C64   A    
C62   C67   A    
C10   N25   A    
C10   C15   A    
C67   H23   S    
C27   H60   S    
C91   H88   S    
C71   H11   S    
C49   C54   S    
C22   H41   S    
C32   H82   S    
C57   C86   A    
C21   H37   S    
C57   C61   A    
N23   Ni3   S    
C61   C66   A    
C73   C78   A    
C103  C108  A    
C77   C81   A    
C4    C74   A    
C116  N4    A    
C34   C126  A    
C28   H65   S    
N22   Ni2   S    
C34   C117  A    
C2    C100  S    
N1    N22   A    
C22   H43   S    
C18   H25   S    
C31   H79   S    
N7    Ni8   S    
C29   H69   S    
C101  C105  A    
H58   N37   S    
C69   C74   A    
C70   H10   S    
C17   H21   S    
C125  N13   A    
C77   F4    S    
C114  N2    A    
C29   H68   S    
C10   N42   S    
C90   F8    S    
C72   C107  A    
C87   H45   S    
C20   N30   S    
C21   N31   S    
C28   H63   S    
N5    N14   A    
C22   N32   S    
C111  F16   S    
C44   C51   S    
N7    N16   A    
C6    C96   A    
C24   C125  A    
C84   C89   S    
N6    Ni5   S    
C110  F19   S    
C64   C107  S    
N19   N45   A    
C46   C50   S    
C43   H14   S    
C50   C55   S    
C21   H39   S    
C33   H85   S    
N25   Ni4   S    
H62   N38   S    
N26   Ni3   S    
C120  N7    A    
N48   Ni2   S    
C102  C106  A    
C14   C78   S    
C42   C49   S    
C113  C118  A    
N9    Ni5   S    
C112  F21   S    
C31   H77   S    
C97   C101  A    
C122  N9    A    
C119  N32   S    
