data_mof_unit_65020.cif
_audit_creation_date              2012-12-10T18:05:50-0500
_audit_creation_method            fapswitch 2.2
_symmetry_space_group_name_H-M    P1
_symmetry_Int_Tables_number       1
_space_group_crystal_system       triclinic
_cell_length_a                    25.983496
_cell_length_b                    25.982419
_cell_length_c                    22.206012
_cell_angle_alpha                 90.000285
_cell_angle_beta                  54.186108
_cell_angle_gamma                 90.00003
_cell_volume                      12157.0107379

loop_
_atom_site_label
_atom_site_type_symbol
_atom_type_description
_atom_site_fract_x
_atom_site_fract_y
_atom_site_fract_z
_atom_type_partial_charge
C1    C     C_R   0.400317 0.250031 0.699406 0.822816
C2    C     C_3   0.224504 0.718387 0.975280 -0.241107
C3    C     C_3   0.258731 0.202786 0.975228 0.162007
C4    C     C_3   0.753655 0.296536 0.975210 0.162246
C5    C     C_3   0.245667 0.703338 0.024782 0.161771
C6    C     C_3   0.241269 0.297214 0.024772 0.162007
C7    C     C_3   0.753667 0.703461 0.975209 0.162215
C8    C     C_3   0.691138 0.266367 0.024603 -0.243603
C9    C     C_3   0.308579 0.732966 0.975404 -0.195532
C10   C     C_3   0.306783 0.271288 0.975400 -0.195761
C11   C     C_3   0.691143 0.733621 0.024603 -0.243549
C12   C     C_3   0.191421 0.767034 0.024596 -0.195532
C13   C     C_3   0.221716 0.277928 0.975272 -0.241203
C14   C     C_3   0.808862 0.233633 0.975397 -0.243603
C15   C     C_3   0.808857 0.766379 0.975397 -0.243549
C16   C     C_3   0.193217 0.228711 0.024599 -0.195761
C17   C     C_1   0.639233 0.250194 0.221269 -0.143048
C18   C     C_1   0.360745 0.749812 0.778731 -0.143480
C19   C     C_1   0.360730 0.250182 0.778731 -0.143533
C20   C     C_1   0.639233 0.749805 0.221269 -0.143008
C21   C     C_1   0.139255 0.750188 0.221269 -0.143480
C22   C     C_1   0.860767 0.249805 0.778731 -0.143048
C23   C     C_1   0.860767 0.750195 0.778731 -0.143008
C24   C     C_3   0.775016 0.717865 0.024704 -0.193169
C25   C     C_1   0.139270 0.249818 0.221269 -0.143533
C26   C     C_3   0.275495 0.781613 0.024720 -0.241107
C27   C     C_3   0.724993 0.217856 0.975295 -0.193202
C28   C     C_3   0.724984 0.782135 0.975296 -0.193169
C29   C     C_3   0.278284 0.222072 0.024728 -0.241203
C30   C     C_3   0.713016 0.250726 0.073505 0.157043
C31   C     C_3   0.286897 0.749264 0.926494 0.157433
C32   C     C_3   0.286829 0.250736 0.926494 0.157489
C33   C     C_R   0.599680 0.749969 0.300594 0.821357
C34   C     C_3   0.713016 0.749274 0.073505 0.156998
C35   C     C_3   0.213103 0.750736 0.073506 0.157433
C36   C     C_3   0.786984 0.249274 0.926495 0.157043
C37   C     C_3   0.786983 0.750726 0.926495 0.156998
C38   C     C_3   0.213171 0.249263 0.073506 0.157489
C39   C     C_1   0.672528 0.250424 0.154546 -0.056754
C40   C     C_1   0.327416 0.749577 0.845454 -0.057303
C41   C     C_1   0.327379 0.250418 0.845454 -0.057391
C42   C     C_1   0.672528 0.749575 0.154546 -0.056701
C43   C     C_1   0.172584 0.750423 0.154546 -0.057302
C44   C     C_R   0.599680 0.250031 0.300594 0.821352
C45   C     C_1   0.827472 0.249576 0.845454 -0.056754
C46   C     C_1   0.827471 0.750424 0.845454 -0.056701
C47   C     C_1   0.172621 0.249582 0.154546 -0.057391
C48   C     C_R   0.300278 0.216604 0.452867 -0.190054
C49   C     C_R   0.699720 0.783393 0.547138 -0.191429
C50   C     C_R   0.699719 0.216607 0.547138 -0.191444
C51   C     C_R   0.300278 0.783396 0.452867 -0.189985
C52   C     C_R   0.800280 0.716606 0.452862 -0.191429
C53   C     C_R   0.199722 0.283396 0.547133 -0.190054
C54   C     C_R   0.199722 0.716604 0.547133 -0.189985
C55   C     C_R   0.400318 0.749969 0.699406 0.822855
C56   C     C_R   0.800281 0.283393 0.452862 -0.191444
C57   C     C_R   0.246892 0.216584 0.452859 -0.190181
C58   C     C_R   0.753105 0.783413 0.547146 -0.191493
C59   C     C_R   0.753105 0.216588 0.547146 -0.191510
C60   C     C_R   0.246892 0.783415 0.452859 -0.190042
C61   C     C_R   0.746895 0.716587 0.452854 -0.191494
C62   C     C_R   0.253108 0.283416 0.547141 -0.190181
C63   C     C_R   0.253108 0.716584 0.547141 -0.190042
C64   C     C_R   0.746895 0.283412 0.452854 -0.191510
C65   C     C_R   0.196325 0.249980 0.499992 0.006780
C66   C     C_R   0.900320 0.750031 0.699406 0.821357
C67   C     C_R   0.803675 0.750020 0.500008 0.007483
C68   C     C_R   0.803675 0.249980 0.500008 0.007497
C69   C     C_R   0.196325 0.750020 0.499992 0.006733
C70   C     C_R   0.696325 0.749980 0.499992 0.007483
C71   C     C_R   0.303675 0.250020 0.500008 0.006780
C72   C     C_R   0.303675 0.749980 0.500008 0.006733
C73   C     C_R   0.696325 0.250020 0.499992 0.007497
C74   C     C_R   0.490239 0.026698 0.452804 -0.188811
C75   C     C_R   0.509760 0.973302 0.547198 -0.190036
C76   C     C_R   0.509760 0.026698 0.547197 -0.189949
C77   C     C_R   0.099683 0.249969 0.300594 0.822816
C78   C     C_R   0.490239 0.973302 0.452804 -0.188791
C79   C     C_R   0.990240 0.526698 0.452802 -0.190036
C80   C     C_R   0.009761 0.473302 0.547196 -0.188811
C81   C     C_R   0.009761 0.526698 0.547196 -0.188791
C82   C     C_R   0.990240 0.473302 0.452802 -0.189949
C83   C     C_R   0.500000 0.946313 0.500000 0.006298
C84   C     C_R   0.500000 0.053687 0.500000 0.006294
C85   C     C_R   0.000000 0.446313 0.500000 0.006294
C86   C     C_R   0.000000 0.553687 0.499999 0.006298
C87   C     C_R   0.640237 0.250034 0.499986 0.787709
C88   C     C_R   0.099682 0.750031 0.300594 0.822855
C89   C     C_R   0.359763 0.749966 0.500014 0.788762
C90   C     C_R   0.359763 0.250034 0.500014 0.788702
C91   C     C_R   0.640237 0.749966 0.499986 0.787731
C92   C     C_R   0.140237 0.750034 0.499986 0.788762
C93   C     C_R   0.859763 0.249966 0.500014 0.787709
C94   C     C_R   0.859763 0.750034 0.500014 0.787731
C95   C     C_R   0.140237 0.249966 0.499986 0.788702
C96   C     C_R   0.500000 0.109787 0.500000 0.789462
C97   C     C_R   0.500000 0.890213 0.500000 0.789454
C98   C     C_R   0.000000 0.609787 0.500000 0.789454
C99   C     C_R   0.900320 0.249969 0.699406 0.821352
C100  C     C_R   0.000000 0.390213 0.500000 0.789462
C101  C     C_R   0.500000 0.390251 0.500000 0.787924
C102  C     C_R   0.500000 0.609749 0.500000 0.787911
C103  C     C_R   1.000000 0.890251 0.500000 0.787911
C104  C     C_R   0.000000 0.109749 0.500000 0.787924
C105  C     C_R   0.556975 0.473307 0.452834 -0.191484
C106  C     C_R   0.443025 0.526693 0.547166 -0.191457
C107  C     C_R   0.443025 0.473307 0.547166 -0.191464
C108  C     C_R   0.556975 0.526693 0.452834 -0.191479
C109  C     C_R   0.056975 0.973307 0.452834 -0.191456
C110  C     C_3   0.775007 0.282144 0.024705 -0.193202
C111  C     C_R   0.943025 0.026693 0.547166 -0.191484
C112  C     C_R   0.943025 0.973307 0.547166 -0.191479
C113  C     C_R   0.056975 0.026693 0.452834 -0.191465
C114  C     C_R   0.500000 0.553670 0.500000 0.007527
C115  C     C_R   0.500000 0.446329 0.500000 0.007522
C116  C     C_R   0.000000 0.053671 0.500000 0.007522
C117  C     C_R   1.000000 0.946329 0.500000 0.007527
C118  C     C_3   0.254333 0.796661 0.975218 0.161771
C119  C     C_3   0.746345 0.203464 0.024790 0.162246
C120  C     C_3   0.746333 0.796538 0.024791 0.162215
H1    H     H_    0.601530 0.453240 0.415956 0.161284
H2    H     H_    0.356184 0.717961 0.955068 0.142942
H3    H     H_    0.352822 0.289729 0.955061 0.142825
H4    H     H_    0.643342 0.719167 0.044857 0.143175
H5    H     H_    0.143816 0.782039 0.044932 0.142942
H6    H     H_    0.856666 0.219188 0.955144 0.143099
H7    H     H_    0.856658 0.780833 0.955143 0.143175
H8    H     H_    0.147178 0.210271 0.044939 0.142825
H9    H     H_    0.204468 0.691676 0.954930 0.143820
H10   H     H_    0.794584 0.309298 0.045130 0.144368
H11   H     H_    0.794601 0.690719 0.045128 0.144407
H12   H     H_    0.398470 0.546760 0.584043 0.161315
H13   H     H_    0.199315 0.301691 0.954916 0.143780
H14   H     H_    0.705416 0.190702 0.954870 0.144368
H15   H     H_    0.295532 0.808324 0.045070 0.143820
H16   H     H_    0.300685 0.198309 0.045084 0.143780
H17   H     H_    0.705399 0.809281 0.954872 0.144407
H18   H     H_    0.338784 0.190481 0.416012 0.162112
H19   H     H_    0.661212 0.809513 0.583996 0.161213
H20   H     H_    0.661212 0.190488 0.583996 0.161203
H21   H     H_    0.338784 0.809518 0.416012 0.162142
H22   H     H_    0.838788 0.690487 0.416004 0.161213
H23   H     H_    0.398470 0.453241 0.584043 0.161304
H24   H     H_    0.161216 0.309518 0.583988 0.162112
H25   H     H_    0.161216 0.690482 0.583988 0.162142
H26   H     H_    0.838788 0.309512 0.416004 0.161203
H27   H     H_    0.245270 0.190449 0.415999 0.161668
H28   H     H_    0.754726 0.809545 0.584009 0.161210
H29   H     H_    0.754726 0.190456 0.584009 0.161201
H30   H     H_    0.245270 0.809550 0.416000 0.161724
H31   H     H_    0.745274 0.690455 0.415991 0.161210
H32   H     H_    0.254730 0.309550 0.584001 0.161668
H33   H     H_    0.254730 0.690450 0.584000 0.161725
H34   H     H_    0.601530 0.546759 0.415956 0.161286
H35   H     H_    0.745274 0.309544 0.415991 0.161201
H36   H     H_    0.482602 0.046764 0.415898 0.162741
H37   H     H_    0.517397 0.953236 0.584103 0.161302
H38   H     H_    0.517397 0.046765 0.584103 0.161331
H39   H     H_    0.482602 0.953235 0.415898 0.162746
H40   H     H_    0.982603 0.546764 0.415897 0.161302
H41   H     H_    0.017398 0.453236 0.584102 0.162741
H42   H     H_    0.017398 0.546765 0.584102 0.162746
H43   H     H_    0.982603 0.453235 0.415897 0.161331
H44   H     H_    0.233792 0.872895 0.992113 0.178321
H45   H     H_    0.101530 0.953240 0.415957 0.161315
H46   H     H_    0.307019 0.859245 0.916973 0.182772
H47   H     H_    0.770130 0.127815 0.007911 0.178673
H48   H     H_    0.761062 0.153060 0.083124 0.180449
H49   H     H_    0.770097 0.872191 0.007914 0.178687
H50   H     H_    0.761037 0.846954 0.083125 0.180472
H51   H     H_    0.245370 0.125757 0.992139 0.178179
H52   H     H_    0.317165 0.142676 0.916994 0.182827
H53   H     H_    0.729871 0.372185 0.992089 0.178674
H54   H     H_    0.738937 0.346940 0.916876 0.180449
H55   H     H_    0.266208 0.627105 0.007887 0.178321
H56   H     H_    0.898470 0.046760 0.584044 0.161284
H57   H     H_    0.192981 0.640755 0.083027 0.182772
H58   H     H_    0.254630 0.374243 0.007861 0.178179
H59   H     H_    0.182835 0.357324 0.083006 0.182827
H60   H     H_    0.729903 0.627809 0.992086 0.178687
H61   H     H_    0.738963 0.653046 0.916875 0.180471
H62   H     H_    0.898470 0.953241 0.584044 0.161286
H63   H     H_    0.101530 0.046759 0.415957 0.161304
H64   H     H_    0.643334 0.280812 0.044856 0.143099
N1    N     N_3   0.259437 0.848204 0.946488 -0.456663
N2    N     N_3   0.741284 0.151931 0.053528 -0.454564
N3    N     N_3   0.741259 0.848073 0.053530 -0.454542
N4    N     N_3   0.268694 0.150599 0.946509 -0.456634
N5    N     N_3   0.758716 0.348069 0.946472 -0.454564
N6    N     N_3   0.240563 0.651795 0.053512 -0.456663
N7    N     N_3   0.231306 0.349401 0.053491 -0.456634
N8    N     N_3   0.758741 0.651927 0.946470 -0.454542
O1    O     O_3   0.500000 0.250030 0.500000 -0.475723
O2    O     O_R   0.112550 0.219620 0.335580 -0.638236
O3    O     O_R   0.112550 0.780380 0.335580 -0.638031
O4    O     O_R   0.887450 0.219620 0.664420 -0.639805
O5    O     O_R   0.594260 0.219670 0.543090 -0.648992
O6    O     O_R   0.405740 0.780330 0.456910 -0.648327
O7    O     O_R   0.405740 0.219670 0.456910 -0.648329
O8    O     O_R   0.594260 0.780330 0.543090 -0.648980
O9    O     O_R   0.094260 0.719670 0.543090 -0.648327
O10   O     O_R   0.905740 0.280330 0.456910 -0.648992
O11   O     O_R   0.905740 0.719670 0.456910 -0.648980
O12   O     O_3   0.500000 0.749970 0.500000 -0.475738
O13   O     O_R   0.094260 0.280330 0.543090 -0.648329
O14   O     O_R   0.508800 0.134220 0.543090 -0.648451
O15   O     O_R   0.491200 0.865780 0.456910 -0.647782
O16   O     O_R   0.491200 0.134220 0.456910 -0.647796
O17   O     O_R   0.508800 0.865780 0.543090 -0.648491
O18   O     O_R   0.008800 0.634220 0.543090 -0.647782
O19   O     O_R   0.991200 0.365780 0.456910 -0.648451
O20   O     O_R   0.991200 0.634220 0.456910 -0.648491
O21   O     O_R   0.008800 0.365780 0.543090 -0.647796
O22   O     O_R   0.448100 0.365830 0.543110 -0.648948
O23   O     O_3   0.000000 0.750030 0.500000 -0.475738
O24   O     O_R   0.551900 0.634170 0.456890 -0.648819
O25   O     O_R   0.551900 0.365830 0.456890 -0.648817
O26   O     O_R   0.448100 0.634170 0.543110 -0.648953
O27   O     O_R   0.948100 0.865830 0.543110 -0.648818
O28   O     O_R   0.051900 0.134170 0.456890 -0.648949
O29   O     O_R   0.051900 0.865830 0.456890 -0.648953
O30   O     O_R   0.948100 0.134170 0.543110 -0.648816
O31   O     O_R   0.637370 0.280400 0.456880 -0.648737
O32   O     O_R   0.362630 0.719600 0.543120 -0.648378
O33   O     O_R   0.362630 0.280400 0.543120 -0.648425
O34   O     O_3   0.000000 0.249970 0.500000 -0.475723
O35   O     O_R   0.637370 0.719600 0.456880 -0.648733
O36   O     O_R   0.137370 0.780400 0.456880 -0.648378
O37   O     O_R   0.862630 0.219600 0.543120 -0.648737
O38   O     O_R   0.862630 0.780400 0.543120 -0.648733
O39   O     O_R   0.137370 0.219600 0.456880 -0.648425
O40   O     O_R   0.448170 0.219660 0.664410 -0.637900
O41   O     O_R   0.551830 0.780340 0.335590 -0.634802
O42   O     O_R   0.551830 0.219660 0.335590 -0.634819
O43   O     O_R   0.448170 0.780340 0.664410 -0.638108
O44   O     O_R   0.948170 0.719660 0.664410 -0.634803
O45   O     O_R   0.387450 0.280380 0.664420 -0.638236
O46   O     O_R   0.051830 0.280340 0.335590 -0.637900
O47   O     O_R   0.051830 0.719660 0.335590 -0.638108
O48   O     O_R   0.948170 0.280340 0.664410 -0.634819
O49   O     O_R   0.612550 0.719620 0.335580 -0.639806
O50   O     O_R   0.612550 0.280380 0.335580 -0.639805
O51   O     O_R   0.387450 0.719620 0.664420 -0.638031
O52   O     O_R   0.887450 0.780380 0.664420 -0.639806
Zn1   Zn    Zn3+2 0.574170 0.293410 0.438410 0.966353
Zn2   Zn    Zn3+2 0.487410 0.793350 0.438420 0.970959
Zn3   Zn    Zn3+2 0.487410 0.206650 0.438420 0.970913
Zn4   Zn    Zn3+2 0.512590 0.793350 0.561580 0.967924
Zn5   Zn    Zn3+2 0.012590 0.706650 0.561580 0.970959
Zn6   Zn    Zn3+2 0.987410 0.293350 0.438420 0.968018
Zn7   Zn    Zn3+2 0.987410 0.706650 0.438420 0.967924
Zn8   Zn    Zn3+2 0.012590 0.293350 0.561580 0.970913
Zn9   Zn    Zn3+2 0.425830 0.706590 0.561590 0.967981
Zn10  Zn    Zn3+2 0.425830 0.293410 0.561590 0.967818
Zn11  Zn    Zn3+2 0.574170 0.706590 0.438410 0.966367
Zn12  Zn    Zn3+2 0.074170 0.793410 0.438410 0.967982
Zn13  Zn    Zn3+2 0.925830 0.206590 0.561590 0.966353
Zn14  Zn    Zn3+2 0.925830 0.793410 0.561590 0.966367
Zn15  Zn    Zn3+2 0.074170 0.206590 0.438410 0.967818
Zn16  Zn    Zn3+2 0.512590 0.206650 0.561580 0.968018

loop_
_geom_bond_atom_site_label_1
_geom_bond_atom_site_label_2
_ccdc_geom_bond_type
C61   C70   A    
C95   O13   A    
C4    C36   S    
O12   Zn9   S    
C3    C16   S    
O22   Zn10  S    
H46   N1    S    
C120  N3    S    
C81   H42   S    
C13   C32   S    
C33   O49   A    
C11   H4    S    
C34   C42   S    
O44   Zn5   S    
C4    C8    S    
C97   O17   A    
C2    C12   S    
C3    N4    S    
O8    Zn4   S    
H55   N6    S    
C29   C38   S    
C44   O50   A    
C48   C57   A    
C62   C71   A    
O31   Zn1   S    
C106  H12   S    
C89   O6    A    
C98   O18   A    
C64   H35   S    
C76   H38   S    
C62   H32   S    
H51   N4    S    
C30   C110  S    
C10   C32   S    
C25   C77   S    
C50   C59   A    
C28   C37   S    
C23   C66   S    
C27   C119  S    
C95   O39   A    
C5    N6    S    
C52   C61   A    
C14   C36   S    
C112  C117  A    
O42   Zn3   S    
H61   N8    S    
C58   H28   S    
O41   Zn2   S    
C96   O16   A    
C30   C119  S    
C7    C24   S    
C5    C35   S    
C22   C99   S    
C2    H9    S    
C15   C120  S    
O21   Zn8   S    
C14   C110  S    
O2    Zn15  S    
C84   C96   S    
C102  O26   A    
C108  C114  A    
O1    Zn16  S    
C3    C29   S    
C17   C39   T    
C104  O28   A    
C18   C40   T    
C26   H15   S    
C90   O33   A    
C31   C40   S    
C104  C116  S    
C78   C83   A    
C75   C83   A    
C73   C87   S    
O40   Zn16  S    
C111  C112  A    
C56   H26   S    
O33   Zn10  S    
O12   Zn2   S    
H50   N3    S    
O32   Zn9   S    
C67   C94   S    
C32   C41   S    
C56   C64   A    
C111  C116  A    
O49   Zn11  S    
C69   C92   S    
C35   C43   S    
C4    C110  S    
C25   C47   T    
O18   Zn5   S    
C81   C86   A    
H60   N8    S    
C109  C113  A    
C113  C116  A    
H58   N7    S    
C8    H64   S    
C59   H29   S    
C21   C88   S    
C66   O52   A    
C23   C46   T    
O36   Zn12  S    
O3    Zn12  S    
O46   Zn6   S    
O23   Zn7   S    
C83   C97   S    
C88   O3    A    
C76   C84   A    
C103  C117  S    
C89   O32   A    
O5    Zn16  S    
O34   Zn13  S    
C104  O30   A    
C118  N1    S    
C9    C26   S    
C51   H21   S    
C34   C120  S    
C105  C108  A    
C100  O21   A    
C1    C19   S    
O50   Zn1   S    
H48   N2    S    
O47   Zn7   S    
C111  H56   S    
O38   Zn14  S    
O45   Zn10  S    
O28   Zn15  S    
O52   Zn14  S    
C82   H43   S    
H49   N3    S    
H44   N1    S    
C28   C120  S    
C50   C73   A    
C74   C84   A    
C79   H40   S    
O12   Zn11  S    
O1    Zn3   S    
O35   Zn11  S    
C90   O7    A    
C1    O45   A    
C56   C68   A    
C88   O47   A    
C98   O20   A    
C99   O4    A    
C52   H22   S    
C49   C58   A    
C66   O44   A    
C2    C31   S    
O20   Zn7   S    
C87   O31   A    
C6    N7    S    
C71   C90   S    
C7    C11   S    
C75   C76   A    
C31   C118  S    
C5    C9    S    
C80   C85   A    
C102  C114  S    
C33   O41   A    
C44   O42   A    
C59   C68   A    
C61   H31   S    
C53   C62   A    
C78   H39   S    
C96   O14   A    
O17   Zn4   S    
C65   C95   S    
C101  O22   A    
C64   C73   A    
C57   C65   A    
C22   C45   T    
C6    C38   S    
C9    H2    S    
C7    C37   S    
C10   C29   S    
C105  H1    S    
C36   C45   S    
O27   Zn14  S    
C60   H30   S    
C106  C107  A    
C97   O15   A    
C12   C35   S    
C93   O10   A    
C16   H8    S    
C70   C91   S    
C107  C115  A    
C38   C47   S    
O12   Zn4   S    
C52   C67   A    
C109  H45   S    
C18   C55   S    
C54   H25   S    
O11   Zn7   S    
C99   O48   A    
C102  O24   A    
C15   C24   S    
O10   Zn6   S    
C106  C114  A    
C10   H3    S    
O24   Zn11  S    
O9    Zn5   S    
C49   C70   A    
C57   H27   S    
C74   C78   A    
C77   O46   A    
C101  C115  S    
C12   C118  S    
C7    N8    S    
C109  C117  A    
C2    C5    S    
C51   C72   A    
C20   C33   S    
C48   C71   A    
C107  H23   S    
O15   Zn2   S    
O43   Zn4   S    
C11   C28   S    
C53   C65   A    
C94   O38   A    
O23   Zn5   S    
C93   O37   A    
O34   Zn6   S    
O14   Zn16  S    
O1    Zn1   S    
H57   N6    S    
C91   O35   A    
C27   H14   S    
C13   H13   S    
C4    N5    S    
C105  C115  A    
C11   C34   S    
C28   H17   S    
C26   C118  S    
O25   Zn1   S    
C80   C81   A    
C14   H6    S    
O34   Zn15  S    
C6    C10   S    
C79   C82   A    
C20   C42   T    
O48   Zn8   S    
C12   H5    S    
O7    Zn3   S    
C27   C36   S    
C82   C85   A    
C119  N2    S    
C3    C32   S    
C100  O19   A    
C68   C93   S    
O51   Zn9   S    
C48   H18   S    
C53   H24   S    
C8    C30   S    
O1    Zn10  S    
C51   C60   A    
C49   H19   S    
C17   C44   S    
C58   C67   A    
C77   O2    A    
C15   C37   S    
C103  O29   A    
C6    C13   S    
C72   C89   S    
H47   N2    S    
C1    O40   A    
C75   H37   S    
C113  H63   S    
C54   C69   A    
O39   Zn15  S    
C60   C69   A    
O6    Zn2   S    
C85   C100  S    
C108  H34   S    
H53   N5    S    
O23   Zn12  S    
O26   Zn9   S    
O16   Zn3   S    
C30   C39   S    
C110  H10   S    
C50   H20   S    
C55   O43   A    
O19   Zn6   S    
C112  H62   S    
O4    Zn13  S    
C86   C98   S    
C24   C34   S    
C80   H41   S    
O29   Zn12  S    
O30   Zn13  S    
C9    C31   S    
H54   N5    S    
O23   Zn14  S    
C101  O25   A    
C26   C35   S    
O34   Zn8   S    
C29   H16   S    
H59   N7    S    
C63   C72   A    
C92   O36   A    
C103  O27   A    
C14   C119  S    
C54   C63   A    
C13   C16   S    
C24   H11   S    
O13   Zn8   S    
C8    C27   S    
C87   O5    A    
C19   C41   T    
C74   H36   S    
C15   H7    S    
C94   O11   A    
C55   O51   A    
C91   O8    A    
C37   C46   S    
C63   H33   S    
C79   C86   A    
C21   C43   T    
C92   O9    A    
H52   N4    S    
C16   C38   S    
O37   Zn13  S    
