data_mof_unit_49420.cif
_audit_creation_date              2012-10-26T19:07:56-0400
_audit_creation_method            fapswitch 2.2
_symmetry_space_group_name_H-M    P1
_symmetry_Int_Tables_number       1
_space_group_crystal_system       triclinic
_cell_length_a                    15.069385
_cell_length_b                    13.673028
_cell_length_c                    19.372304
_cell_angle_alpha                 89.90672
_cell_angle_beta                  89.722722
_cell_angle_gamma                 90.155881
_cell_volume                      3991.48250018

loop_
_atom_site_label
_atom_site_type_symbol
_atom_type_description
_atom_site_fract_x
_atom_site_fract_y
_atom_site_fract_z
_atom_type_partial_charge
C1    C     C_R   0.328447 0.499907 0.498845 0.536729
C2    C     C_R   0.093302 0.589119 0.488240 0.008584
C3    C     C_R   0.954362 0.677726 0.484575 -0.138305
C4    C     C_R   0.045720 0.321548 0.496051 -0.138096
C5    C     C_R   0.046892 0.677654 0.484566 -0.141404
C6    C     C_R   0.953215 0.321606 0.495771 -0.141243
C7    C     C_R   0.433493 0.793051 0.533143 0.033861
C8    C     C_R   0.566307 0.206901 0.466629 0.052173
C9    C     C_R   0.565695 0.793527 0.465823 0.035153
C10   C     C_R   0.432291 0.206377 0.531598 0.015990
C11   C     C_R   0.567154 0.896613 0.464822 -0.019132
C12   C     C_R   0.671560 0.500079 0.498651 0.536715
C13   C     C_R   0.430639 0.103311 0.532338 -0.021535
C14   C     C_R   0.431084 0.896111 0.532911 -0.022037
C15   C     C_R   0.567398 0.103855 0.465155 -0.015833
C16   C     C_R   0.499100 0.948145 0.498842 0.052843
C17   C     C_R   0.499069 0.051781 0.498808 0.054589
C18   C     C_R   0.634680 0.949147 0.430705 -0.151903
C19   C     C_R   0.362551 0.050839 0.565754 -0.156840
C20   C     C_R   0.362804 0.948122 0.566089 -0.156877
C21   C     C_R   0.634895 0.051911 0.430981 -0.148119
C22   C     C_R   0.500852 0.500161 0.367574 0.562561
C23   C     C_R   0.814914 0.588810 0.490424 -0.145185
C24   C     C_R   0.500598 0.499999 0.633039 0.585919
C25   C     C_R   0.464847 0.577942 0.254635 0.207647
C26   C     C_R   0.526698 0.415059 0.747151 0.207885
C27   C     C_R   0.487147 0.588347 0.746565 0.197215
C28   C     C_R   0.549844 0.426324 0.256317 0.211476
C29   C     C_R   0.479410 0.585183 0.183382 0.220820
C30   C     C_R   0.540460 0.420417 0.818546 0.219966
C31   C     C_R   0.485915 0.587806 0.818997 0.216689
C32   C     C_R   0.544955 0.421841 0.184247 0.218713
C33   C     C_R   0.514004 0.503975 0.147017 -0.061550
C34   C     C_R   0.185084 0.410804 0.496423 -0.142668
C35   C     C_R   0.515240 0.504729 0.855200 -0.064342
C36   C     C_R   0.504358 0.500916 0.291903 -0.089194
C37   C     C_R   0.503789 0.500657 0.709740 -0.081219
C38   C     C_R   0.517175 0.504446 0.931090 0.356711
C39   C     C_R   0.516284 0.504088 0.070902 0.384207
C40   C     C_R   0.814435 0.411027 0.495717 -0.149632
C41   C     C_R   0.185678 0.588560 0.490543 -0.150992
C42   C     C_R   0.768353 0.500042 0.495055 -0.018421
C43   C     C_R   0.231683 0.499754 0.495426 -0.017478
C44   C     C_3   0.333891 0.616807 0.309813 0.040102
C45   C     C_R   0.907348 0.589252 0.488144 0.010476
C46   C     C_3   0.262795 0.644457 0.257271 -0.262186
C47   C     C_3   0.170311 0.616646 0.283350 -0.492274
C48   C     C_3   0.469579 0.270089 0.707263 0.039861
C49   C     C_3   0.453972 0.205019 0.770745 -0.254852
C50   C     C_3   0.381960 0.128767 0.757187 -0.511528
C51   C     C_3   0.535479 0.739439 0.710842 0.050558
C52   C     C_3   0.500092 0.844030 0.714526 -0.255268
C53   C     C_3   0.571673 0.918683 0.695473 -0.483479
C54   C     C_3   0.678381 0.392666 0.315016 0.032174
C55   C     C_3   0.752207 0.372984 0.262392 -0.260283
C56   C     C_R   0.092709 0.410121 0.494071 0.010402
C57   C     C_3   0.842652 0.402725 0.290862 -0.491998
C58   C     C_3   0.523299 0.735997 0.144105 0.040096
C59   C     C_3   0.522443 0.809086 0.204074 -0.256557
C60   C     C_3   0.592617 0.888574 0.193817 -0.508469
C61   C     C_3   0.665588 0.355044 0.867210 0.028751
C62   C     C_3   0.723715 0.317576 0.807804 -0.253646
C63   C     C_3   0.821942 0.321600 0.826325 -0.496789
C64   C     C_3   0.372100 0.662664 0.877561 0.034210
C65   C     C_3   0.307317 0.705316 0.824828 -0.258586
C66   C     C_3   0.212867 0.707773 0.853476 -0.497569
C67   C     C_R   0.953538 0.499686 0.490423 0.061339
C68   C     C_3   0.512445 0.269631 0.141468 0.043188
C69   C     C_3   0.516462 0.190843 0.197732 -0.257329
C70   C     C_3   0.452954 0.106667 0.182136 -0.503845
C71   C     C_R   0.046555 0.499624 0.490552 0.061637
C72   C     C_R   0.906811 0.410240 0.493665 0.007506
Cu1   Cu    Cu3+1 0.500000 0.597420 0.500000 0.940028
Cu2   Cu    Cu3+1 0.500000 0.402580 0.500000 0.949096
H1    H     H_    0.778584 0.342252 0.498562 0.119737
H2    H     H_    0.618321 0.247785 0.440971 0.122146
H3    H     H_    0.617005 0.752851 0.439264 0.117509
H4    H     H_    0.380141 0.246927 0.557236 0.108308
H5    H     H_    0.687459 0.910799 0.404031 0.098707
H6    H     H_    0.309354 0.089220 0.591896 0.098803
H7    H     H_    0.309830 0.909363 0.592542 0.100461
H8    H     H_    0.687849 0.090733 0.404534 0.101700
H9    H     H_    0.318105 0.653030 0.359674 0.164387
H10   H     H_    0.331355 0.536421 0.319867 0.103938
H11   H     H_    0.265282 0.724578 0.247591 0.181676
H12   H     H_    0.221587 0.657376 0.489014 0.117502
H13   H     H_    0.276015 0.605994 0.207801 0.183809
H14   H     H_    0.166147 0.536633 0.292967 0.153091
H15   H     H_    0.120173 0.636661 0.244009 0.148856
H16   H     H_    0.154793 0.656267 0.331943 0.153991
H17   H     H_    0.480873 0.221305 0.662550 0.160741
H18   H     H_    0.408978 0.313840 0.695693 0.109544
H19   H     H_    0.516606 0.167009 0.784429 0.196284
H20   H     H_    0.432453 0.250639 0.815086 0.197519
H21   H     H_    0.318492 0.165167 0.743828 0.142949
H22   H     H_    0.371477 0.083585 0.804215 0.153691
H23   H     H_    0.779390 0.657652 0.489139 0.117445
H24   H     H_    0.401960 0.079843 0.714214 0.149520
H25   H     H_    0.572274 0.729332 0.661509 0.156430
H26   H     H_    0.583536 0.729515 0.754025 0.136148
H27   H     H_    0.443330 0.852293 0.678813 0.172848
H28   H     H_    0.475738 0.858956 0.767704 0.176806
H29   H     H_    0.628905 0.912334 0.731095 0.146591
H30   H     H_    0.544262 0.993718 0.699424 0.152064
H31   H     H_    0.594777 0.906933 0.641577 0.156581
H32   H     H_    0.695041 0.354242 0.363727 0.144789
H33   H     H_    0.676428 0.472223 0.327775 0.104688
H34   H     H_    0.220525 0.342041 0.499677 0.120829
H35   H     H_    0.753185 0.293826 0.249423 0.181559
H36   H     H_    0.739252 0.415146 0.214426 0.184324
H37   H     H_    0.843156 0.481706 0.304264 0.152444
H38   H     H_    0.894745 0.389187 0.251325 0.149301
H39   H     H_    0.858395 0.359163 0.337669 0.154648
H40   H     H_    0.514954 0.777331 0.095143 0.168191
H41   H     H_    0.589715 0.700106 0.140785 0.121771
H42   H     H_    0.455892 0.843502 0.208202 0.188051
H43   H     H_    0.537177 0.770659 0.253156 0.202120
H44   H     H_    0.659777 0.855504 0.190860 0.146370
H45   H     H_    0.919579 0.746925 0.482489 0.103230
H46   H     H_    0.590904 0.939939 0.238150 0.154040
H47   H     H_    0.579795 0.930187 0.145635 0.150520
H48   H     H_    0.681276 0.312483 0.914483 0.163398
H49   H     H_    0.682371 0.432806 0.878981 0.117258
H50   H     H_    0.705089 0.240825 0.795589 0.187257
H51   H     H_    0.712874 0.363244 0.761146 0.190377
H52   H     H_    0.842172 0.397992 0.837923 0.149054
H53   H     H_    0.862195 0.294738 0.782131 0.151983
H54   H     H_    0.835348 0.274617 0.871911 0.147984
H55   H     H_    0.366564 0.705232 0.926190 0.166905
H56   H     H_    0.080496 0.252366 0.498472 0.104663
H57   H     H_    0.352624 0.585994 0.890747 0.115918
H58   H     H_    0.328165 0.780886 0.810947 0.176635
H59   H     H_    0.307900 0.659911 0.777353 0.191774
H60   H     H_    0.190227 0.632703 0.866917 0.149218
H61   H     H_    0.167549 0.738320 0.813940 0.148720
H62   H     H_    0.209653 0.754662 0.900191 0.149415
H63   H     H_    0.524537 0.234128 0.090740 0.170497
H64   H     H_    0.443973 0.300685 0.139175 0.121185
H65   H     H_    0.585191 0.162099 0.201617 0.182734
H66   H     H_    0.496966 0.222629 0.248187 0.208160
H67   H     H_    0.082140 0.746791 0.482435 0.104155
H68   H     H_    0.383783 0.134007 0.178489 0.149783
H69   H     H_    0.455897 0.051720 0.224309 0.155528
H70   H     H_    0.471552 0.070757 0.132785 0.148564
H71   H     H_    0.917967 0.252471 0.497960 0.104396
H72   H     H_    0.382324 0.752047 0.559937 0.137247
N1    N     N_R   0.490815 0.423694 0.035229 -0.232755
N2    N     N_R   0.542813 0.585008 0.966593 -0.201526
N3    N     N_R   0.491255 0.423753 0.966648 -0.205788
N4    N     N_R   0.542370 0.584707 0.035244 -0.230544
N5    N     N_R   0.500000 0.743810 0.500000 -0.239956
N6    N     N_R   0.500000 0.256190 0.500000 -0.234797
O1    O     O_R   0.370260 0.582280 0.500020 -0.518360
O2    O     O_3   0.547003 0.328348 0.713874 -0.539852
O3    O     O_3   0.462974 0.673201 0.712490 -0.550644
O4    O     O_3   0.596337 0.354618 0.291440 -0.553013
O5    O     O_3   0.451690 0.668545 0.149071 -0.540495
O6    O     O_3   0.574583 0.339808 0.852659 -0.548825
O7    O     O_3   0.460747 0.671924 0.853664 -0.541796
O8    O     O_3   0.579775 0.341273 0.150477 -0.544029
O9    O     O_R   0.629740 0.417720 0.499980 -0.515048
O10   O     O_R   0.629740 0.582280 0.499980 -0.523565
O11   O     O_R   0.370260 0.417720 0.500020 -0.519572
O12   O     O_R   0.499990 0.582300 0.400140 -0.474183
O13   O     O_R   0.500010 0.417700 0.599860 -0.471597
O14   O     O_R   0.500010 0.582300 0.599860 -0.467813
O15   O     O_R   0.499990 0.417700 0.400140 -0.469157
O16   O     O_3   0.418082 0.651551 0.287756 -0.545351

loop_
_geom_bond_atom_site_label_1
_geom_bond_atom_site_label_2
_ccdc_geom_bond_type
C69   H65   S    
C11   C18   A    
C34   C56   A    
C23   C45   A    
C18   C21   A    
C47   H15   S    
Cu1   Cu2   S    
C68   H64   S    
C19   C20   A    
C44   H9    S    
C62   H50   S    
C10   H4    S    
C4    C56   A    
C57   H37   S    
C6    C72   A    
C41   H12   S    
C39   N4    A    
C52   H28   S    
C70   H69   S    
C33   C39   S    
C23   C42   A    
C54   H33   S    
C57   H39   S    
C8    N6    A    
N2    N4    A    
Cu1   O12   S    
C54   O4    S    
Cu2   O11   S    
C50   H21   S    
C57   H38   S    
C53   H30   S    
C29   C33   A    
C8    H2    S    
C1    O11   A    
C64   O7    S    
C15   C17   A    
C67   C72   A    
C44   O16   S    
C49   C50   S    
C12   C42   S    
C10   N6    A    
C12   O9    A    
C66   H60   S    
C1    C43   S    
C7    C14   A    
C18   H5    S    
C48   H17   S    
C45   C67   A    
C60   H44   S    
C49   H20   S    
C38   N3    A    
C67   C71   A    
C61   C62   S    
C46   H11   S    
C69   H66   S    
C40   C42   A    
C59   C60   S    
C59   H43   S    
C20   H7    S    
Cu1   N5    S    
C25   C29   A    
C41   C43   A    
Cu2   N6    S    
C68   H63   S    
C69   C70   S    
Cu2   O15   S    
C44   C46   S    
C60   H47   S    
C25   O16   S    
C51   H25   S    
C52   H27   S    
C70   H68   S    
C50   H24   S    
C13   C19   A    
C27   C31   A    
C51   C52   S    
C63   H52   S    
C14   C20   A    
C28   C32   A    
C35   C38   S    
C4    C6    A    
C6    H71   S    
C54   H32   S    
C59   H42   S    
C4    H56   S    
C25   C36   A    
C3    C5    A    
C58   C59   S    
C3    C45   A    
C61   H48   S    
C55   H35   S    
C24   O14   A    
Cu1   O10   S    
C62   H51   S    
C22   O12   A    
C11   C16   A    
C5    H67   S    
C64   H57   S    
C56   C71   A    
C51   O3    S    
C62   C63   S    
C24   C37   S    
C9    H3    S    
C21   H8    S    
C1    O1    A    
C9    C11   A    
C38   N2    A    
C3    H45   S    
C7    N5    A    
C22   O15   A    
C30   C35   A    
C48   C49   S    
C23   H23   S    
C26   C30   A    
C8    C15   A    
C55   C57   S    
C55   H36   S    
C58   H41   S    
C47   H16   S    
C14   C16   A    
C26   O2    S    
C2    C5    A    
Cu1   O1    S    
C2    C71   A    
C65   H58   S    
C52   C53   S    
C28   O4    S    
C46   H13   S    
C51   H26   S    
C30   O6    S    
C48   O2    S    
C54   C55   S    
C9    N5    A    
C40   C72   A    
N1    N3    A    
C68   C69   S    
C31   O7    S    
C34   C43   A    
C63   H54   S    
Cu1   O14   S    
C44   H10   S    
C10   C13   A    
Cu2   O9    S    
C29   O5    S    
C26   C37   A    
C22   C36   S    
C70   H70   S    
C40   H1    S    
C13   C17   A    
C61   H49   S    
C34   H34   S    
C32   C33   A    
C7    H72   S    
C24   O13   A    
C61   O6    S    
C47   H14   S    
C50   H22   S    
C16   C17   A    
C27   C37   A    
C58   O5    S    
C64   C65   S    
C66   H62   S    
C31   C35   A    
C19   H6    S    
C63   H53   S    
C46   C47   S    
C60   H46   S    
C12   O10   A    
C66   H61   S    
C53   H31   S    
C15   C21   A    
C64   H55   S    
C28   C36   A    
C65   C66   S    
C48   H18   S    
C39   N1    A    
C58   H40   S    
C53   H29   S    
C2    C41   A    
C49   H19   S    
C68   O8    S    
Cu2   O13   S    
C65   H59   S    
C32   O8    S    
C27   O3    S    
