data_mof_unit_67744.cif
_audit_creation_date              2012-12-10T16:47:16-0500
_audit_creation_method            fapswitch 2.2
_symmetry_space_group_name_H-M    P1
_symmetry_Int_Tables_number       1
_space_group_crystal_system       triclinic
_cell_length_a                    11.076684
_cell_length_b                    13.155702
_cell_length_c                    8.169111
_cell_angle_alpha                 90.000504
_cell_angle_beta                  92.85703
_cell_angle_gamma                 90.000669
_cell_volume                      1188.93588494

loop_
_atom_site_label
_atom_site_type_symbol
_atom_type_description
_atom_site_fract_x
_atom_site_fract_y
_atom_site_fract_z
_atom_type_partial_charge
C1    C     C_R   0.354184 0.852731 0.457633 0.912221
C2    C     C_2   0.724114 0.768880 0.564332 -0.383225
C3    C     C_2   0.728449 0.227953 0.565256 -0.386062
C4    C     C_2   0.271554 0.772045 0.434742 -0.386052
C5    C     C_2   0.771552 0.727951 0.434745 -0.386056
C6    C     C_2   0.228447 0.272049 0.565254 -0.386056
C7    C     C_2   0.224093 0.731133 0.564330 -0.383205
C8    C     C_2   0.775884 0.268883 0.435666 -0.383187
C9    C     C_R   0.673435 0.981116 0.034278 0.247524
C10   C     C_R   0.755629 0.973237 0.173318 -0.131284
C11   C     C_R   0.870620 0.929192 0.170572 -0.230495
C12   C     C_R   0.645816 0.147269 0.542366 0.912232
C13   C     C_R   0.915990 0.900792 0.023232 -0.054036
C14   C     C_R   0.851563 0.928130 0.881142 -0.221862
C15   C     C_R   0.737014 0.972840 0.889119 -0.144606
C16   C     C_R   0.326563 0.018878 0.965723 0.247536
C17   C     C_R   0.244368 0.026761 0.826678 -0.131275
C18   C     C_R   0.129369 0.070797 0.829425 -0.230477
C19   C     C_R   0.083994 0.099192 0.976768 -0.054037
C20   C     C_R   0.148426 0.071854 0.118854 -0.221832
C21   C     C_R   0.262980 0.027147 0.110883 -0.144661
C22   C     C_R   0.173438 0.518870 0.034283 0.247542
C23   C     C_R   0.644449 0.851720 0.542033 0.924857
C24   C     C_R   0.255637 0.526744 0.173330 -0.131299
C25   C     C_R   0.370628 0.570793 0.170585 -0.230548
C26   C     C_R   0.415979 0.599235 0.023229 -0.053998
C27   C     C_R   0.351552 0.571888 0.881127 -0.221803
C28   C     C_R   0.237012 0.527149 0.889120 -0.144680
C29   C     C_R   0.826561 0.481122 0.965725 0.247517
C30   C     C_R   0.744367 0.473243 0.826673 -0.131273
C31   C     C_R   0.629361 0.429218 0.829421 -0.230507
C32   C     C_R   0.583968 0.400834 0.976774 -0.053999
C33   C     C_R   0.648397 0.428175 0.118874 -0.221824
C34   C     C_R   0.355549 0.148279 0.457967 0.924849
C35   C     C_R   0.762974 0.472855 0.110887 -0.144638
C36   C     C_R   0.855550 0.351721 0.457968 0.924855
C37   C     C_R   0.144444 0.648283 0.542031 0.924868
C38   C     C_R   0.145816 0.352731 0.542367 0.912228
C39   C     C_R   0.854184 0.647269 0.457633 0.912213
C40   C     C_2   0.275879 0.231115 0.435667 -0.383226
H1    H     H_    0.750422 0.753910 0.310204 0.202912
H2    H     H_    0.925511 0.919907 0.283093 0.140203
H3    H     H_    0.005065 0.867331 0.018800 0.151587
H4    H     H_    0.892340 0.918983 0.764186 0.137833
H5    H     H_    0.710706 0.003937 0.778827 0.200313
H6    H     H_    0.261297 0.997628 0.711287 0.201709
H7    H     H_    0.074475 0.080080 0.716904 0.140194
H8    H     H_    0.994912 0.132645 0.981204 0.151574
H9    H     H_    0.107652 0.081003 0.235810 0.137829
H10   H     H_    0.289307 0.996074 0.221188 0.200343
H11   H     H_    0.238709 0.497620 0.288722 0.201722
H12   H     H_    0.249583 0.246093 0.689795 0.202908
H13   H     H_    0.425523 0.580076 0.283107 0.140196
H14   H     H_    0.505050 0.632709 0.018804 0.151576
H15   H     H_    0.392318 0.581049 0.764154 0.137824
H16   H     H_    0.210688 0.496065 0.778833 0.200349
H17   H     H_    0.761297 0.502368 0.711280 0.201720
H18   H     H_    0.574478 0.419927 0.716893 0.140196
H19   H     H_    0.494874 0.367404 0.981185 0.151576
H20   H     H_    0.607610 0.419055 0.235830 0.137820
H21   H     H_    0.789314 0.503937 0.221191 0.200345
H22   H     H_    0.244359 0.757800 0.688781 0.197429
H23   H     H_    0.755588 0.242237 0.311213 0.197438
H24   H     H_    0.255577 0.257756 0.311218 0.197447
H25   H     H_    0.744408 0.742234 0.688781 0.197448
H26   H     H_    0.749580 0.253914 0.689801 0.202904
H27   H     H_    0.250449 0.746067 0.310198 0.202915
H28   H     H_    0.738704 0.002374 0.288705 0.201711
N1    N     N_2   0.541470 0.000000 0.055820 -0.112102
N2    N     N_2   0.458530 0.000000 0.944180 -0.112101
N3    N     N_2   0.041470 0.500000 0.055820 -0.112100
N4    N     N_2   0.958530 0.500000 0.944180 -0.112101
O1    O     O_R   0.375700 0.885870 0.609240 -0.642718
O2    O     O_R   0.597720 0.114130 0.675960 -0.645905
O3    O     O_R   0.597720 0.885870 0.675960 -0.634582
O4    O     O_R   0.402280 0.114130 0.324040 -0.634591
O5    O     O_R   0.902280 0.385870 0.324040 -0.634597
O6    O     O_R   0.097720 0.614130 0.675960 -0.634590
O7    O     O_R   0.097720 0.385870 0.675960 -0.645916
O8    O     O_R   0.902280 0.614130 0.324040 -0.645920
O9    O     O_R   0.624300 0.114130 0.390760 -0.642713
O10   O     O_R   0.624300 0.885870 0.390760 -0.634020
O11   O     O_R   0.375700 0.114130 0.609240 -0.634019
O12   O     O_R   0.875700 0.385870 0.609240 -0.634030
O13   O     O_R   0.124300 0.614130 0.390760 -0.634019
O14   O     O_R   0.124300 0.385870 0.390760 -0.642718
O15   O     O_R   0.875700 0.614130 0.609240 -0.642717
O16   O     O_R   0.402280 0.885870 0.324040 -0.645914
Zn1   Zn    Zn3+2 0.482250 0.000000 0.690430 0.904282
Zn2   Zn    Zn3+2 0.517750 0.000000 0.309570 0.904281
Zn3   Zn    Zn3+2 0.982250 0.500000 0.690430 0.904276
Zn4   Zn    Zn3+2 0.017750 0.500000 0.309570 0.904278

loop_
_geom_bond_atom_site_label_1
_geom_bond_atom_site_label_2
_ccdc_geom_bond_type
O5    Zn4   S    
C16   C21   A    
C23   O10   A    
O15   Zn3   S    
C19   C20   A    
C39   O15   A    
C2    H25   S    
C18   H7    S    
N2    Zn1   S    
C28   H16   S    
C26   C27   A    
C29   C30   A    
C38   O14   A    
C34   C40   S    
C31   H18   S    
C37   O13   A    
C9    N1    S    
C12   O2    A    
C36   O5    A    
C30   C31   A    
C27   H15   S    
C38   O7    A    
C30   H17   S    
C11   H2    S    
C18   C19   A    
C8    C36   S    
C3    C12   S    
N3    Zn4   S    
C16   C17   A    
C6    C38   S    
O12   Zn3   S    
C9    C10   A    
O7    Zn3   S    
C29   N4    S    
C1    O16   A    
C22   C28   A    
C13   C14   A    
C4    C7    D    
C26   H14   S    
C21   H10   S    
O13   Zn4   S    
O11   Zn1   S    
C24   H11   S    
C16   N2    S    
C24   C25   A    
C3    C8    D    
C23   O3    A    
N4    Zn3   S    
C19   H8    S    
C25   C26   A    
O8    Zn4   S    
C7    H22   S    
C20   H9    S    
C31   C32   A    
C17   C18   A    
C7    C37   S    
C35   H21   S    
C17   H6    S    
O9    Zn2   S    
O16   Zn2   S    
C33   H20   S    
C5    C39   S    
C6    C40   D    
C3    H26   S    
C34   O11   A    
C15   H5    S    
N1    Zn2   S    
C22   N3    S    
C13   H3    S    
O2    Zn1   S    
C14   H4    S    
C5    H1    S    
C25   H13   S    
C40   H24   S    
C4    H27   S    
C10   H28   S    
O6    Zn3   S    
C37   O6    A    
C29   C35   A    
O10   Zn2   S    
C1    C4    S    
C1    O1    A    
C32   C33   A    
C9    C15   A    
O1    Zn1   S    
N3    N4    D    
O14   Zn4   S    
C39   O8    A    
C11   C13   A    
C36   O12   A    
C33   C35   A    
C12   O9    A    
C22   C24   A    
N1    N2    D    
C10   C11   A    
O3    Zn1   S    
C8    H23   S    
C2    C5    D    
C20   C21   A    
C34   O4    A    
C2    C23   S    
C14   C15   A    
C32   H19   S    
C6    H12   S    
O4    Zn2   S    
C27   C28   A    
