data_mof_unit_67965.cif
_audit_creation_date              2012-12-10T20:48:18-0500
_audit_creation_method            fapswitch 2.2
_symmetry_space_group_name_H-M    P1
_symmetry_Int_Tables_number       1
_space_group_crystal_system       triclinic
_cell_length_a                    11.118551
_cell_length_b                    9.526321
_cell_length_c                    8.393902
_cell_angle_alpha                 88.505703
_cell_angle_beta                  89.782779
_cell_angle_gamma                 90.22126
_cell_volume                      888.757034327

loop_
_atom_site_label
_atom_site_type_symbol
_atom_type_description
_atom_site_fract_x
_atom_site_fract_y
_atom_site_fract_z
_atom_type_partial_charge
C1    C     C_R   0.499256 0.218056 0.501384 0.862092
C2    C     C_R   0.257507 0.500297 0.499521 1.019905
C3    C     C_R   0.742612 0.500950 0.498495 0.977795
C4    C     C_R   0.500861 0.782079 0.499129 0.799055
C5    C     C_1   0.501062 0.064203 0.502008 -0.223106
C6    C     C_3   0.073112 0.402181 0.634316 0.661225
C7    C     C_3   0.071149 0.453989 0.328784 0.611238
C8    C     C_3   0.930057 0.393602 0.631725 0.619997
C9    C     C_3   0.928379 0.443459 0.328771 0.651866
C10   C     C_1   0.501439 0.935932 0.499231 -0.216566
C11   C     C_3   0.071579 0.663464 0.527160 0.678543
C12   C     C_3   0.926859 0.656740 0.516600 0.703536
C13   C     C_3   0.120247 0.507973 0.496889 -0.480275
C14   C     C_3   0.880221 0.498845 0.493685 -0.481532
N1    N     N_1   0.500000 0.500030 0.073640 -0.057055
N2    N     N_1   0.500000 0.500030 0.926360 -0.038024
O1    O     O_R   0.500000 0.285340 0.636850 -0.627856
O2    O     O_R   0.500000 0.285340 0.363150 -0.620765
O3    O     O_R   0.314790 0.499970 0.636880 -0.593469
O4    O     O_R   0.314790 0.499970 0.363120 -0.628301
O5    O     O_R   0.685210 0.499970 0.636880 -0.556219
O6    O     O_R   0.685210 0.499970 0.363120 -0.588915
O7    O     O_R   0.500000 0.714650 0.636900 -0.627252
O8    O     O_R   0.500000 0.714650 0.363100 -0.649716
Zn1   Zn    Zn3+2 0.500000 0.499990 0.682780 1.010402
Zn2   Zn    Zn3+2 0.500000 0.499990 0.317220 0.978463
Cl1   Cl    Cl    0.128169 0.451572 0.829683 -0.577065
Cl2   Cl    Cl    0.116870 0.573770 0.170280 -0.576050
Cl3   Cl    Cl    0.871375 0.441055 0.822740 -0.513840
Cl4   Cl    Cl    0.862446 0.540475 0.159644 -0.495172
O9    O     O_3   0.126072 0.269694 0.599811 -0.564133
C15   C     C_3   0.120335 0.167403 0.724368 0.222919
H1    H     H_    0.085597 0.071380 0.670804 0.153348
H2    H     H_    0.056522 0.191732 0.822091 0.156988
C16   C     C_3   0.245651 0.140492 0.790878 -0.896312
H3    H     H_    0.238400 0.068270 0.895771 0.199306
H4    H     H_    0.303175 0.092849 0.699106 0.249614
H5    H     H_    0.289238 0.238837 0.828763 0.305891
O10   O     O_3   0.116416 0.316174 0.308519 -0.579380
C17   C     C_3   0.195598 0.291729 0.180075 0.225502
H6    H     H_    0.261985 0.374384 0.149508 0.226825
H7    H     H_    0.144941 0.267601 0.071930 0.173689
C18   C     C_3   0.264217 0.164384 0.227304 -0.891445
H8    H     H_    0.195876 0.082771 0.242785 0.267280
H9    H     H_    0.333523 0.139414 0.136978 0.223615
H10   H     H_    0.303714 0.177281 0.345897 0.294097
O11   O     O_3   0.903308 0.247913 0.608506 -0.619905
C19   C     C_3   0.783032 0.199354 0.618025 0.251373
H11   H     H_    0.782340 0.098804 0.557784 0.113472
H12   H     H_    0.720441 0.258667 0.544716 0.141677
C20   C     C_3   0.737435 0.170211 0.787582 -0.862301
H13   H     H_    0.814476 0.149542 0.867150 0.249677
H14   H     H_    0.685739 0.260628 0.831706 0.297793
H15   H     H_    0.675958 0.078035 0.791149 0.209992
O12   O     O_3   0.889090 0.301116 0.321122 -0.605156
C21   C     C_3   0.895335 0.241537 0.169390 0.220045
H16   H     H_    0.954160 0.300040 0.084616 0.218828
H17   H     H_    0.803244 0.240252 0.118762 0.175651
C22   C     C_3   0.942100 0.092579 0.187181 -0.828708
H18   H     H_    0.865558 0.021012 0.180071 0.230040
H19   H     H_    0.005940 0.069333 0.089850 0.196926
H20   H     H_    0.987278 0.074012 0.303629 0.326449
O13   O     O_3   0.097204 0.702434 0.687190 -0.568908
C23   C     C_3   0.204160 0.775629 0.719503 0.085126
H21   H     H_    0.191817 0.886886 0.692137 0.124217
H22   H     H_    0.284751 0.733760 0.668542 0.167616
C24   C     C_3   0.234019 0.761758 0.889982 -0.710122
H23   H     H_    0.274296 0.657899 0.918938 0.303518
H24   H     H_    0.302390 0.842520 0.917890 0.178426
H25   H     H_    0.149565 0.774560 0.955799 0.315483
O14   O     O_3   0.106131 0.768805 0.406275 -0.573758
C25   C     C_3   0.226761 0.816550 0.393975 0.121304
H26   H     H_    0.289552 0.741163 0.437061 0.134232
H27   H     H_    0.236047 0.919789 0.450260 0.132313
C26   C     C_3   0.269514 0.836672 0.226098 -0.788229
H28   H     H_    0.349123 0.906938 0.221079 0.215477
H29   H     H_    0.302773 0.736442 0.179524 0.297041
H30   H     H_    0.195023 0.881847 0.156384 0.268318
O15   O     O_3   0.873053 0.702820 0.661726 -0.581528
C27   C     C_3   0.884667 0.847390 0.691720 0.199294
H31   H     H_    0.793656 0.892940 0.681980 0.108006
H32   H     H_    0.946326 0.904562 0.607784 0.147594
C28   C     C_3   0.924678 0.867342 0.862311 -0.675546
H33   H     H_    0.935367 0.765282 0.927358 0.361199
H34   H     H_    0.010192 0.926118 0.865394 0.175321
H35   H     H_    0.857219 0.930291 0.924006 0.170123
O16   O     O_3   0.892306 0.741716 0.379085 -0.574959
C29   C     C_3   0.778720 0.808077 0.382261 0.145402
H36   H     H_    0.793058 0.918975 0.409923 0.108817
H37   H     H_    0.718254 0.761889 0.472386 0.140414
C30   C     C_3   0.719120 0.809055 0.218434 -0.691769
H38   H     H_    0.787744 0.817641 0.125192 0.269328
H39   H     H_    0.670100 0.710986 0.195572 0.304184
H40   H     H_    0.655685 0.898433 0.205714 0.185470

loop_
_geom_bond_atom_site_label_1
_geom_bond_atom_site_label_2
_ccdc_geom_bond_type
O12   C21   S    
C16   H3    S    
O2    Zn2   S    
C9    C14   S    
C1    O2    A    
C28   H33   S    
C1    C5    S    
C8    Cl3   S    
C16   H4    S    
O8    Zn2   S    
C11   O13   S    
C25   C26   S    
C4    O8    A    
C11   O14   S    
N1    N2    T    
C12   O15   S    
C21   H16   S    
C2    C13   S    
C19   C20   S    
C6    Cl1   S    
C9    O12   S    
C17   H7    S    
C6    O9    S    
C22   H18   S    
C27   C28   S    
C5    C10   T    
C26   H30   S    
C17   C18   S    
C22   H19   S    
C2    O4    A    
C24   H23   S    
C23   C24   S    
C16   H5    S    
O15   C27   S    
C25   H27   S    
C30   H38   S    
C4    O7    A    
C25   H26   S    
N1    Zn2   S    
C6    C8    S    
C7    Cl2   S    
C20   H13   S    
C24   H24   S    
C15   H2    S    
C26   H28   S    
C15   C16   S    
C30   H39   S    
C18   H9    S    
O11   C19   S    
C29   C30   S    
C26   H29   S    
C3    C14   S    
C9    Cl4   S    
C27   H32   S    
C19   H11   S    
C28   H34   S    
C12   C14   S    
C18   H8    S    
C3    O5    A    
C4    C10   S    
O10   C17   S    
N2    Zn1   S    
C7    C9    S    
O5    Zn1   S    
C17   H6    S    
C22   H20   S    
C8    C14   S    
C12   O16   S    
C2    O3    A    
O9    C15   S    
C29   H37   S    
C27   H31   S    
C11   C12   S    
C1    O1    A    
C21   C22   S    
C24   H25   S    
O1    Zn1   S    
C15   H1    S    
C20   H15   S    
C8    O11   S    
O14   C25   S    
C23   H21   S    
C30   H40   S    
C11   C13   S    
O4    Zn2   S    
C19   H12   S    
C21   H17   S    
O7    Zn1   S    
O3    Zn1   S    
C18   H10   S    
O13   C23   S    
C7    C13   S    
C28   H35   S    
C29   H36   S    
O16   C29   S    
O6    Zn2   S    
C7    O10   S    
C3    O6    A    
C20   H14   S    
C23   H22   S    
C6    C13   S    
