data_mof_unit_12846.cif
_audit_creation_date              2012-12-11T14:54:39-0500
_audit_creation_method            fapswitch 2.2
_symmetry_space_group_name_H-M    P1
_symmetry_Int_Tables_number       1
_space_group_crystal_system       triclinic
_cell_length_a                    18.995585
_cell_length_b                    10.886698
_cell_length_c                    18.830563
_cell_angle_alpha                 89.988359
_cell_angle_beta                  89.765595
_cell_angle_gamma                 89.912054
_cell_volume                      3894.10805996

loop_
_atom_site_label
_atom_site_type_symbol
_atom_type_description
_atom_site_fract_x
_atom_site_fract_y
_atom_site_fract_z
_atom_type_partial_charge
C1    C     C_R   0.730541 0.378529 0.646377 0.576017
C2    C     C_R   0.301550 0.866185 0.462462 -0.140088
C3    C     C_R   0.951593 0.551514 0.477416 -0.151319
C4    C     C_R   0.198160 0.366387 0.537261 -0.133763
C5    C     C_R   0.801550 0.366181 0.462460 -0.140068
C6    C     C_R   0.699990 0.852955 0.463850 -0.183272
C7    C     C_R   0.300400 0.856444 0.536097 -0.198621
C8    C     C_R   0.199980 0.352979 0.463845 -0.183276
C9    C     C_R   0.800399 0.356440 0.536095 -0.198615
C10   C     C_R   0.747918 0.922032 0.423220 0.032215
C11   C     C_R   0.249101 0.919931 0.575474 0.033798
C12   C     C_R   0.247915 0.422043 0.423217 0.032216
C13   C     C_R   0.269070 0.378672 0.353378 0.563576
C14   C     C_R   0.749095 0.419921 0.575470 0.033796
C15   C     C_R   0.788252 0.013397 0.455673 0.340205
C16   C     C_R   0.203213 0.001458 0.541136 0.349565
C17   C     C_R   0.288254 0.513400 0.455672 0.340201
C18   C     C_R   0.703201 0.501434 0.541129 0.349557
C19   C     C_R   0.789219 0.021530 0.528506 -0.109194
C20   C     C_R   0.202546 0.006659 0.468438 -0.099545
C21   C     C_R   0.289222 0.521528 0.528505 -0.109204
C22   C     C_R   0.702533 0.506629 0.468432 -0.099547
C23   C     C_R   0.745217 0.946982 0.570066 -0.034428
C24   C     C_R   0.230542 0.878531 0.646378 0.576017
C25   C     C_R   0.251730 0.939869 0.428278 -0.024119
C26   C     C_R   0.245215 0.446988 0.570064 -0.034424
C27   C     C_R   0.751725 0.439853 0.428274 -0.024108
C28   C     C_R   0.556791 0.057054 0.979060 -0.127526
C29   C     C_R   0.537160 0.059372 0.050025 -0.101607
C30   C     C_R   0.056787 0.557051 0.979059 -0.127526
C31   C     C_R   0.037155 0.559367 0.050023 -0.101596
C32   C     C_R   0.507595 0.166106 0.079622 0.024487
C33   C     C_R   0.548279 0.161628 0.936756 0.018355
C34   C     C_R   0.007596 0.666105 0.079622 0.024490
C35   C     C_R   0.769071 0.878669 0.353380 0.563583
C36   C     C_R   0.048281 0.661628 0.936756 0.018352
C37   C     C_R   0.504406 0.273981 0.038976 -0.137900
C38   C     C_R   0.524920 0.271884 0.967834 -0.130996
C39   C     C_R   0.004412 0.773983 0.038978 -0.137888
C40   C     C_R   0.024928 0.771887 0.967836 -0.130979
C41   C     C_R   0.530621 0.155347 0.647519 0.554535
C42   C     C_R   0.438080 0.150984 0.361384 0.543283
C43   C     C_R   0.030626 0.655345 0.647516 0.554539
C44   C     C_R   0.938087 0.650985 0.361383 0.543281
C45   C     C_R   0.785821 0.026550 0.972875 -0.187279
C46   C     C_3   0.468469 0.389687 0.464011 -0.242206
C47   C     C_R   0.187010 0.954855 0.039837 -0.190187
C48   C     C_R   0.285827 0.526540 0.972873 -0.187276
C49   C     C_R   0.686988 0.454749 0.039857 -0.190179
C50   C     C_R   0.787364 0.012493 0.045401 -0.153874
C51   C     C_R   0.183438 0.949809 0.967282 -0.115727
C52   C     C_R   0.287370 0.512486 0.045399 -0.153867
C53   C     C_R   0.683411 0.449704 0.967301 -0.115733
C54   C     C_R   0.751000 0.915439 0.076649 -0.034967
C55   C     C_R   0.240675 0.905526 0.927488 -0.016015
C56   C     C_R   0.251000 0.415440 0.076649 -0.034966
C57   C     C_3   0.487021 0.393195 0.542213 -0.269640
C58   C     C_R   0.740659 0.405487 0.927498 -0.016006
C59   C     C_R   0.708928 0.837255 0.035076 -0.104687
C60   C     C_R   0.302172 0.867337 0.961661 -0.106467
C61   C     C_R   0.208924 0.337263 0.035078 -0.104692
C62   C     C_R   0.802166 0.367339 0.961665 -0.106472
C63   C     C_R   0.706886 0.851968 0.961916 0.341310
C64   C     C_R   0.306955 0.876601 0.035060 0.355105
C65   C     C_R   0.206881 0.351973 0.961917 0.341303
C66   C     C_R   0.806953 0.376601 0.035064 0.355102
C67   C     C_R   0.746599 0.945488 0.930461 0.035070
C68   C     C_3   0.968482 0.889687 0.464010 -0.242215
C69   C     C_R   0.249573 0.923816 0.074285 0.029354
C70   C     C_R   0.246600 0.445486 0.930460 0.035073
C71   C     C_R   0.749566 0.423774 0.074296 0.029348
C72   C     C_R   0.740124 0.974448 0.645283 0.561575
C73   C     C_R   0.259119 0.972009 0.353885 0.549500
C74   C     C_R   0.240123 0.474451 0.645282 0.561580
C75   C     C_R   0.759118 0.472004 0.353883 0.549495
C76   C     C_R   0.728333 0.376116 0.853651 0.551705
C77   C     C_R   0.270110 0.378305 0.147688 0.555403
C78   C     C_R   0.228338 0.876127 0.853645 0.551699
C79   C     C_3   0.987035 0.893187 0.542211 -0.269640
C80   C     C_R   0.770110 0.878305 0.147688 0.555403
C81   C     C_R   0.564150 0.153054 0.860763 0.545105
C82   C     C_R   0.469460 0.157167 0.147185 0.556718
C83   C     C_R   0.064150 0.653054 0.860763 0.545115
C84   C     C_R   0.969460 0.657167 0.147185 0.556728
C85   C     C_R   0.740327 0.974833 0.855812 0.578093
C86   C     C_R   0.258835 0.970004 0.145831 0.571552
C87   C     C_R   0.240327 0.474832 0.855812 0.578093
C88   C     C_R   0.758833 0.469995 0.145835 0.571540
C89   C     C_R   0.460691 0.155748 0.434713 0.019754
C90   C     C_R   0.698170 0.866365 0.537266 -0.133777
C91   C     C_R   0.496293 0.162804 0.579114 0.016741
C92   C     C_R   0.960712 0.655743 0.434706 0.019772
C93   C     C_R   0.996315 0.662792 0.579104 0.016746
C94   C     C_R   0.492695 0.259602 0.463799 0.017231
C95   C     C_R   0.510546 0.262815 0.534888 0.021867
C96   C     C_R   0.992712 0.759601 0.463793 0.017233
C97   C     C_R   0.010562 0.762811 0.534882 0.021857
C98   C     C_R   0.468189 0.055320 0.549138 -0.145936
C99   C     C_R   0.451554 0.051532 0.477430 -0.151315
C100  C     C_R   0.968233 0.555296 0.549121 -0.145950
Cr1   Cr    Cr6+3 0.771950 0.169480 0.750100 1.018262
Cr2   Cr    Cr6+3 0.383410 0.010620 0.249390 1.087405
Cr3   Cr    Cr6+3 0.116590 0.510620 0.750610 1.080465
Cr4   Cr    Cr6+3 0.883410 0.510620 0.249390 1.087399
Cr5   Cr    Cr6+3 0.228050 0.169480 0.249900 1.018307
Cr6   Cr    Cr6+3 0.271950 0.669480 0.750100 1.018259
Cr7   Cr    Cr6+3 0.728050 0.669480 0.249900 1.018317
Cr8   Cr    Cr6+3 0.614930 0.323340 0.749170 1.067754
Cr9   Cr    Cr6+3 0.385070 0.323340 0.250830 1.057374
Cr10  Cr    Cr6+3 0.114930 0.823340 0.749170 1.067745
Cr11  Cr    Cr6+3 0.885070 0.823340 0.250830 1.057374
Cr12  Cr    Cr6+3 0.616590 0.010620 0.750610 1.080466
F1    F     F_    0.667645 0.774038 0.922125 -0.631669
F2    F     F_    0.368201 0.843756 0.066833 -0.626688
F3    F     F_    0.167635 0.274050 0.922128 -0.631701
F4    F     F_    0.868213 0.343809 0.066829 -0.626676
F5    F     F_    0.831768 0.087362 0.417548 -0.653408
F6    F     F_    0.156006 0.071594 0.577387 -0.656045
F7    F     F_    0.331775 0.587359 0.417548 -0.653406
F8    F     F_    0.655988 0.571564 0.577378 -0.656051
H1    H     H_    0.460609 0.973079 0.580654 0.145160
H2    H     H_    0.134400 0.977408 0.942811 0.177605
H3    H     H_    0.319909 0.573652 0.076591 0.187095
H4    H     H_    0.634363 0.477261 0.942834 0.177541
H5    H     H_    0.681008 0.760434 0.058445 0.161782
H6    H     H_    0.346015 0.829705 0.931767 0.152649
H7    H     H_    0.180998 0.260448 0.058448 0.161761
H8    H     H_    0.846017 0.329749 0.931765 0.152654
H9    H     H_    0.911337 0.897038 0.453822 0.186500
H10   H     H_    0.031531 0.955880 0.554140 0.208428
H11   H     H_    0.411325 0.397041 0.453822 0.186509
H12   H     H_    0.430867 0.967489 0.455469 0.137272
H13   H     H_    0.531519 0.455885 0.554139 0.208445
H14   H     H_    0.502511 0.449606 0.430668 0.166739
H15   H     H_    0.440362 0.403447 0.577633 0.142306
H16   H     H_    0.002522 0.949613 0.430669 0.166733
H17   H     H_    0.940375 0.903430 0.577632 0.142308
H18   H     H_    0.661112 0.813035 0.568291 0.206685
H19   H     H_    0.341689 0.818111 0.432436 0.203519
H20   H     H_    0.161096 0.313067 0.568285 0.206680
H21   H     H_    0.841692 0.318111 0.432435 0.203513
H22   H     H_    0.666754 0.784462 0.439452 0.151296
H23   H     H_    0.960668 0.473043 0.580631 0.145174
H24   H     H_    0.337799 0.796442 0.561926 0.140691
H25   H     H_    0.166738 0.284498 0.439445 0.151283
H26   H     H_    0.837800 0.296444 0.561925 0.140685
H27   H     H_    0.824267 0.087844 0.552161 0.153029
H28   H     H_    0.164441 0.067161 0.443989 0.151654
H29   H     H_    0.324276 0.587831 0.552162 0.153029
H30   H     H_    0.664422 0.567119 0.443981 0.151659
H31   H     H_    0.576156 0.972031 0.956486 0.173039
H32   H     H_    0.541229 0.975265 0.080506 0.159954
H33   H     H_    0.076148 0.472025 0.956483 0.173053
H34   H     H_    0.930911 0.467468 0.455452 0.137279
H35   H     H_    0.041221 0.475259 0.080504 0.159963
H36   H     H_    0.482033 0.357561 0.060693 0.141255
H37   H     H_    0.519251 0.354770 0.936585 0.140194
H38   H     H_    0.982043 0.857564 0.060696 0.141253
H39   H     H_    0.019265 0.854774 0.936588 0.140202
H40   H     H_    0.815154 0.102227 0.950171 0.161223
H41   H     H_    0.141740 0.990350 0.068474 0.152751
H42   H     H_    0.315165 0.602211 0.950169 0.161226
H43   H     H_    0.641713 0.490199 0.068504 0.152738
H44   H     H_    0.819899 0.073664 0.076594 0.187065
O1    O     O_R   0.787510 0.042610 0.670410 -0.525772
O2    O     O_R   0.454250 0.051070 0.169440 -0.477934
O3    O     O_R   0.045750 0.551070 0.830560 -0.493473
O4    O     O_R   0.954250 0.551070 0.169440 -0.477920
O5    O     O_R   0.681210 0.959150 0.825320 -0.460639
O6    O     O_R   0.318790 0.959150 0.174680 -0.424160
O7    O     O_R   0.181210 0.459150 0.825320 -0.460633
O8    O     O_R   0.818790 0.459150 0.174680 -0.424157
O9    O     O_3   0.667820 0.167810 0.749960 -0.295492
O10   O     O_3   0.332180 0.167810 0.250040 -0.286636
O11   O     O_3   0.167820 0.667810 0.749960 -0.295488
O12   O     O_R   0.212490 0.042610 0.329590 -0.527747
O13   O     O_3   0.832180 0.667810 0.250040 -0.286626
O14   O     O_R   0.765670 0.292090 0.675090 -0.523057
O15   O     O_R   0.234330 0.292090 0.324910 -0.525312
O16   O     O_R   0.265670 0.792090 0.675090 -0.523061
O17   O     O_R   0.734330 0.792090 0.324910 -0.525309
O18   O     O_R   0.670220 0.409020 0.668560 -0.431777
O19   O     O_R   0.329780 0.409020 0.331440 -0.455570
O20   O     O_R   0.170220 0.909020 0.668560 -0.431787
O21   O     O_R   0.829780 0.909020 0.331440 -0.455571
O22   O     O_R   0.556580 0.251590 0.674980 -0.491325
O23   O     O_R   0.287510 0.542610 0.670410 -0.525773
O24   O     O_R   0.443420 0.251590 0.325020 -0.499410
O25   O     O_R   0.056580 0.751590 0.674980 -0.491329
O26   O     O_R   0.943420 0.751590 0.325020 -0.499413
O27   O     O_R   0.545890 0.049670 0.670030 -0.517040
O28   O     O_R   0.454110 0.049670 0.329970 -0.512693
O29   O     O_R   0.045890 0.549670 0.670030 -0.517056
O30   O     O_R   0.954110 0.549670 0.329970 -0.512710
O31   O     O_R   0.681340 0.957860 0.676500 -0.485276
O32   O     O_R   0.318660 0.957860 0.323500 -0.511895
O33   O     O_R   0.181340 0.457860 0.676500 -0.485279
O34   O     O_R   0.712490 0.542610 0.329590 -0.527755
O35   O     O_R   0.818660 0.457860 0.323500 -0.511896
O36   O     O_R   0.787380 0.044010 0.830940 -0.532841
O37   O     O_R   0.212620 0.044010 0.169060 -0.537488
O38   O     O_R   0.287380 0.544010 0.830940 -0.532844
O39   O     O_R   0.712620 0.544010 0.169060 -0.537477
O40   O     O_R   0.765540 0.293390 0.823910 -0.516031
O41   O     O_R   0.234460 0.293390 0.176090 -0.507256
O42   O     O_R   0.265540 0.793390 0.823910 -0.516030
O43   O     O_R   0.734460 0.793390 0.176090 -0.507252
O44   O     O_R   0.670090 0.410410 0.829090 -0.508835
O45   O     O_R   0.556450 0.252890 0.823790 -0.507769
O46   O     O_R   0.329910 0.410410 0.170910 -0.505364
O47   O     O_R   0.170090 0.910410 0.829090 -0.508859
O48   O     O_R   0.829910 0.910410 0.170910 -0.505365
O49   O     O_R   0.443550 0.252890 0.176210 -0.504504
O50   O     O_R   0.056450 0.752890 0.823790 -0.507760
O51   O     O_R   0.943550 0.752890 0.176210 -0.504504
O52   O     O_R   0.545750 0.051070 0.830560 -0.493474

loop_
_geom_bond_atom_site_label_1
_geom_bond_atom_site_label_2
_ccdc_geom_bond_type
C58   C62   A    
C98   H1    S    
C81   O45   A    
C21   C26   A    
C22   H30   S    
Cr2   O6    S    
C88   O8    A    
C53   C58   A    
C93   C97   A    
C24   O20   A    
C72   O1    A    
C11   C24   S    
C40   H39   S    
Cr1   O9    S    
C2    C7    A    
C4    C8    A    
C72   O31   A    
Cr8   O45   S    
Cr1   O36   S    
C58   C76   S    
Cr10  O11   S    
C7    C11   A    
C50   C54   A    
C66   F4    S    
C99   H12   S    
C89   C99   A    
C2    H19   S    
Cr8   O22   S    
C28   C29   A    
Cr10  O50   S    
C25   C73   S    
Cr11  O51   S    
Cr6   O23   S    
C29   C32   A    
Cr9   O49   S    
C10   C15   A    
C30   C31   A    
C52   H3    S    
C81   O52   A    
C4    H20   S    
C20   C25   A    
C36   C83   S    
C65   C70   A    
C9    H26   S    
C92   C96   A    
C76   O44   A    
Cr3   O33   S    
C89   C94   A    
C14   C18   A    
Cr11  O48   S    
C47   C69   A    
Cr1   O14   S    
C44   O26   A    
C5    C27   A    
C5    H21   S    
C3    C100  A    
C30   H33   S    
C8    H25   S    
C13   O19   A    
Cr5   O12   S    
C12   C17   A    
Cr8   O44   S    
Cr2   O28   S    
Cr6   O11   S    
C20   H28   S    
C10   C35   S    
C21   H29   S    
C6    H22   S    
C59   H5    S    
C87   O38   A    
Cr7   O43   S    
C44   C92   S    
C84   O51   A    
C16   C20   A    
C80   O48   A    
Cr9   O19   S    
C68   C79   S    
Cr12  O9    S    
Cr10  O20   S    
Cr2   O2    S    
C86   O6    A    
C55   C60   A    
C96   C97   A    
Cr3   O7    S    
C65   F3    S    
C37   H36   S    
C57   H13   S    
Cr7   O39   S    
C94   C95   A    
C45   H40   S    
C34   C84   S    
Cr5   O15   S    
C27   C75   S    
C70   C87   S    
Cr6   O16   S    
C7    H24   S    
C90   H18   S    
C54   C80   S    
C54   C59   A    
Cr9   O24   S    
C63   C67   A    
C4    C26   A    
Cr11  O21   S    
C67   C85   S    
C62   C66   A    
C50   H44   S    
C34   C39   A    
C32   C37   A    
C68   H16   S    
C64   F2    S    
C39   C40   A    
C55   C78   S    
C41   O27   A    
Cr9   O10   S    
C47   C51   A    
C64   C69   A    
C6    C90   A    
C79   H10   S    
C83   O3    A    
Cr1   O40   S    
C3    H34   S    
C19   H27   S    
C56   C77   S    
C15   F5    S    
C3    C92   A    
C47   H41   S    
C15   C19   A    
C9    C14   A    
C78   O42   A    
Cr12  O31   S    
C5    C9    A    
C37   C38   A    
C84   O4    A    
Cr8   O18   S    
C77   O41   A    
Cr6   O38   S    
C82   O49   A    
C1    O14   A    
C16   F6    S    
C85   O36   A    
Cr5   O37   S    
Cr12  O5    S    
C46   C94   S    
C74   O33   A    
C36   C40   A    
C8    C12   A    
C87   O7    A    
Cr8   O9    S    
Cr3   O11   S    
C23   C90   A    
C61   H7    S    
C68   C96   S    
Cr3   O3    S    
Cr4   O13   S    
Cr1   O1    S    
C93   C100  A    
C66   C71   A    
C28   H31   S    
C77   O46   A    
C41   C91   S    
Cr7   O17   S    
C28   C33   A    
Cr5   O10   S    
C39   H38   S    
C57   C95   S    
C22   C27   A    
Cr4   O35   S    
C62   H8    S    
Cr2   O10   S    
Cr9   O46   S    
C18   F8    S    
Cr4   O8    S    
C46   H11   S    
C83   O50   A    
C31   C34   A    
C42   O28   A    
C19   C23   A    
C74   O23   A    
C82   O2    A    
C75   O34   A    
C42   O24   A    
C79   H17   S    
C18   C22   A    
C44   O30   A    
C23   C72   S    
C79   C97   S    
C100  H23   S    
C38   H37   S    
C48   C70   A    
C53   H4    S    
Cr2   O32   S    
Cr6   O42   S    
Cr7   O34   S    
C31   H35   S    
C1    O18   A    
C76   O40   A    
Cr5   O41   S    
C45   C67   A    
C46   H14   S    
C75   O35   A    
C35   O17   A    
C32   C82   S    
C43   O29   A    
Cr10  O25   S    
C59   C63   A    
C33   C38   A    
C30   C36   A    
C60   C64   A    
C42   C89   S    
Cr10  O47   S    
C60   H6    S    
Cr4   O4    S    
C46   C57   S    
C13   O15   A    
C35   O21   A    
Cr12  O27   S    
C86   O37   A    
C91   C98   A    
C45   C50   A    
C73   O12   A    
C49   C53   A    
C24   O16   A    
C43   C93   S    
C41   O22   A    
C2    C25   A    
C51   C55   A    
Cr12  O52   S    
C88   O39   A    
C68   H9    S    
C85   O5    A    
C49   H43   S    
C11   C16   A    
C6    C10   A    
C17   F7    S    
C91   C95   A    
C71   C88   S    
C63   F1    S    
C61   C65   A    
C48   C52   A    
C80   O43   A    
C48   H42   S    
C12   C13   S    
C43   O25   A    
Cr11  O26   S    
C26   C74   S    
C98   C99   A    
C49   C71   A    
C73   O32   A    
Cr11  O13   S    
C51   H2    S    
Cr4   O30   S    
C56   C61   A    
C57   H15   S    
C1    C14   S    
Cr3   O29   S    
C33   C81   S    
C78   O47   A    
Cr7   O13   S    
C69   C86   S    
C52   C56   A    
C29   H32   S    
C17   C21   A    
