data_mof_unit_19448.cif
_audit_creation_date              2012-12-10T17:32:24-0500
_audit_creation_method            fapswitch 2.2
_symmetry_space_group_name_H-M    P1
_symmetry_Int_Tables_number       1
_space_group_crystal_system       triclinic
_cell_length_a                    15.486213
_cell_length_b                    15.370958
_cell_length_c                    15.423637
_cell_angle_alpha                 92.435717
_cell_angle_beta                  71.833171
_cell_angle_gamma                 111.694241
_cell_volume                      3230.29173557

loop_
_atom_site_label
_atom_site_type_symbol
_atom_type_description
_atom_site_fract_x
_atom_site_fract_y
_atom_site_fract_z
_atom_type_partial_charge
C1    C     C_R   0.463912 0.257260 0.464243 0.513673
C2    C     C_R   0.509006 0.508634 0.114040 0.203945
C3    C     C_R   0.676918 0.603996 0.108379 0.234468
C4    C     C_R   0.537779 0.743340 0.534622 0.580116
C5    C     C_R   0.429263 0.421932 0.840031 0.008650
C6    C     C_R   0.484529 0.066162 0.313895 0.034173
C7    C     C_R   0.448030 0.159504 0.442066 -0.048079
C8    C     C_R   0.581740 0.883686 0.626310 0.170771
C9    C     C_R   0.586136 0.975330 0.646304 0.039152
C10   C     C_R   0.565812 0.027884 0.587873 0.298055
C11   C     C_R   0.531981 0.985707 0.514579 -0.006426
C12   C     C_R   0.313901 0.333176 0.984629 0.047325
C13   C     C_R   0.546818 0.902769 0.485854 -0.074166
C14   C     C_R   0.494020 0.029191 0.463490 0.001758
C15   C     C_R   0.500114 0.006735 0.371410 -0.106986
C16   C     C_R   0.756793 0.549873 0.465223 0.466734
C17   C     C_R   0.524780 0.927681 0.340011 -0.011905
C18   C     C_R   0.556914 0.882975 0.393669 0.259682
C19   C     C_R   0.451539 0.095634 0.501361 -0.021054
C20   C     C_R   0.455044 0.139777 0.351052 0.263794
C21   C     C_R   0.557480 0.844947 0.548009 0.009208
C22   C     C_R   0.007728 0.703752 0.470046 0.035250
C23   C     C_R   0.393198 0.358986 0.019728 0.063504
C24   C     C_R   0.862469 0.578609 0.452516 -0.059437
C25   C     C_R   0.075868 0.331842 0.564905 -0.171316
C26   C     C_R   0.975599 0.305584 0.577829 0.300560
C27   C     C_R   0.940071 0.375212 0.567650 0.351243
C28   C     C_R   0.242872 0.449830 0.537093 0.540125
C29   C     C_R   0.006041 0.469045 0.535445 -0.027042
C30   C     C_R   0.099955 0.496554 0.545221 -0.075654
C31   C     C_R   0.979774 0.537453 0.500726 -0.008429
C32   C     C_R   0.037420 0.635272 0.498982 -0.057613
C33   C     C_R   0.123441 0.661275 0.525431 0.262091
C34   C     C_R   0.480055 0.435331 0.974687 -0.011019
C35   C     C_R   0.150643 0.592345 0.552885 0.297996
C36   C     C_R   0.900410 0.511420 0.464095 0.028808
C37   C     C_R   0.917723 0.675090 0.451662 0.008521
C38   C     C_R   0.137682 0.426770 0.552315 -0.027565
C39   C     C_R   0.551913 0.550160 0.257874 0.539735
C40   C     C_R   0.448926 0.449517 0.742768 0.544313
C41   C     C_R   0.712691 0.586232 0.016461 0.025411
C42   C     C_R   0.576357 0.563110 0.158062 0.033168
C43   C     C_R   0.330673 0.372049 0.896395 -0.047655
C44   C     C_3   0.757985 0.750066 0.141113 -0.070835
C45   C     C_R   0.506399 0.446761 0.879154 0.021336
C46   C     C_2   0.506856 0.880687 0.257670 0.231787
C47   C     C_2   0.516227 0.065140 0.212454 0.349016
C48   C     C_2   0.398270 0.090832 0.601005 0.324283
C49   C     C_3   0.700811 0.850435 0.657389 -0.069326
C50   C     C_3   0.673505 0.177192 0.537628 -0.057320
C51   C     C_2   0.609375 0.013860 0.730318 0.293401
C52   C     C_3   0.704080 0.866701 0.336378 -0.139300
C53   C     C_2   0.879389 0.744939 0.429959 0.284525
C54   C     C_3   0.266387 0.784524 0.458277 -0.037326
C55   C     C_2   0.068786 0.805513 0.458731 0.338718
C56   C     C_R   0.544776 0.493168 0.020048 -0.010314
C57   C     C_2   0.772677 0.604025 0.811753 0.192637
C58   C     C_2   0.865433 0.419692 0.424729 0.308871
C59   C     C_3   0.805135 0.347700 0.692131 -0.087065
C60   C     C_3   0.924442 0.162046 0.659177 -0.111649
C61   C     C_3   0.181680 0.610716 0.688393 -0.087399
C62   C     C_2   0.818423 0.599953 0.977282 0.332862
C63   C     C_3   0.364908 0.428150 0.233848 -0.081850
C64   C     C_2   0.247576 0.367001 0.864085 0.253770
C65   C     C_2   0.397933 0.293969 0.085575 0.266058
C66   C     C_2   0.214443 0.270774 0.042129 0.350785
C67   C     C_R   0.645430 0.540566 0.968565 -0.065901
C68   C     C_2   0.644769 0.454113 0.734777 0.226218
C69   C     C_3   0.339154 0.176707 0.318897 -0.049844
C70   C     C_R   0.675675 0.538473 0.871172 -0.034081
C71   C     C_R   0.607720 0.483486 0.828136 0.019189
H1    H     H_    0.105774 0.278502 0.565581 0.138509
H2    H     H_    0.714015 0.803699 0.700362 0.186586
H3    H     H_    0.674827 0.165741 0.465590 0.092437
H4    H     H_    0.684907 0.252030 0.547106 0.192593
H5    H     H_    0.734839 0.163997 0.549960 0.197315
H6    H     H_    0.618862 0.970449 0.777465 0.139949
H7    H     H_    0.736893 0.812546 0.323047 0.141009
H8    H     H_    0.723851 0.902789 0.395542 0.123595
H9    H     H_    0.737188 0.917602 0.274973 0.117158
H10   H     H_    0.831868 0.726636 0.387601 0.102745
H11   H     H_    0.253320 0.768745 0.391255 0.169492
H12   H     H_    0.690158 0.763246 0.177201 0.118973
H13   H     H_    0.317951 0.753367 0.466494 0.187862
H14   H     H_    0.302365 0.861859 0.457020 0.163717
H15   H     H_    0.080563 0.843080 0.517774 0.158871
H16   H     H_    0.819157 0.578750 0.757391 0.075697
H17   H     H_    0.790065 0.387082 0.425578 0.120220
H18   H     H_    0.824912 0.419606 0.715847 0.071401
H19   H     H_    0.832350 0.305397 0.725820 0.136759
H20   H     H_    0.724391 0.312087 0.715349 0.227711
H21   H     H_    0.939505 0.204126 0.717164 0.118093
H22   H     H_    0.983817 0.135808 0.626019 0.137463
H23   H     H_    0.784167 0.775116 0.067351 0.166506
H24   H     H_    0.856061 0.099773 0.688447 0.149073
H25   H     H_    0.136561 0.535928 0.714033 0.097337
H26   H     H_    0.136745 0.654716 0.711009 0.162443
H27   H     H_    0.241132 0.635274 0.719804 0.153307
H28   H     H_    0.840262 0.553809 0.927445 0.075970
H29   H     H_    0.342461 0.466707 0.293604 0.164590
H30   H     H_    0.411261 0.392453 0.246246 0.074195
H31   H     H_    0.296434 0.372776 0.229311 0.186715
H32   H     H_    0.255535 0.425252 0.820896 0.115250
H33   H     H_    0.459784 0.314968 0.111310 0.123855
H34   H     H_    0.816260 0.792119 0.170131 0.150981
H35   H     H_    0.166925 0.216131 0.012669 0.172474
H36   H     H_    0.713148 0.498522 0.685528 0.110551
H37   H     H_    0.306112 0.187400 0.391715 0.087880
H38   H     H_    0.300691 0.103483 0.304235 0.196076
H39   H     H_    0.326696 0.224551 0.276927 0.161054
H40   H     H_    0.558449 0.852275 0.214166 0.142351
H41   H     H_    0.580651 0.049512 0.177194 0.082713
H42   H     H_    0.387533 0.151890 0.632555 0.158615
H43   H     H_    0.742947 0.924194 0.667342 0.087407
H44   H     H_    0.729354 0.836390 0.584739 0.167331
O1    O     O_3   0.500000 0.500000 0.500000 -0.456739
O2    O     O_R   0.588830 0.499590 0.285390 -0.520345
O3    O     O_R   0.395900 0.395880 0.699370 -0.527992
O4    O     O_R   0.493280 0.582590 0.315890 -0.522467
O5    O     O_R   0.521980 0.521940 0.699340 -0.521973
O6    O     O_3   0.741965 0.654302 0.153516 -0.518800
O7    O     O_2   0.431177 0.867988 0.241062 -0.479896
O8    O     O_2   0.471180 0.081910 0.167228 -0.399996
O9    O     O_2   0.362490 0.016825 0.648623 -0.456229
O10   O     O_3   0.599055 0.831042 0.684933 -0.557939
O11   O     O_3   0.582644 0.121676 0.600898 -0.518097
O12   O     O_R   0.708210 0.582550 0.530770 -0.548141
O13   O     O_2   0.617352 0.093867 0.749001 -0.442914
O14   O     O_3   0.601930 0.821775 0.353532 -0.571510
O15   O     O_2   0.896990 0.821436 0.461494 -0.518860
O16   O     O_3   0.177945 0.754211 0.532386 -0.579172
O17   O     O_2   0.105015 0.848080 0.383045 -0.455540
O18   O     O_2   0.800512 0.687909 0.822501 -0.474675
O19   O     O_2   0.922114 0.381212 0.387414 -0.470286
O20   O     O_3   0.839860 0.352133 0.595536 -0.577580
O21   O     O_3   0.910289 0.212456 0.593840 -0.545326
O22   O     O_3   0.224630 0.620528 0.592394 -0.538551
O23   O     O_R   0.270260 0.395900 0.573760 -0.560613
O24   O     O_2   0.881986 0.661397 0.000350 -0.431460
O25   O     O_3   0.408925 0.489594 0.153113 -0.541414
O26   O     O_2   0.171159 0.298329 0.882694 -0.516395
O27   O     O_2   0.336952 0.214124 0.107030 -0.451130
O28   O     O_2   0.184864 0.279772 0.123884 -0.465760
O29   O     O_2   0.599328 0.377986 0.712367 -0.505848
O30   O     O_3   0.441008 0.198511 0.295634 -0.533715
O31   O     O_R   0.537060 0.322180 0.411040 -0.504051
O32   O     O_R   0.484470 0.699370 0.484430 -0.481282
O33   O     O_R   0.404710 0.279110 0.530840 -0.562393
O34   O     O_R   0.573760 0.699350 0.573690 -0.517537
O35   O     O_R   0.714470 0.499570 0.411000 -0.536864
O36   O     O_R   0.307050 0.521980 0.484470 -0.502240
Zn1   Zn    Zn3+2 0.574690 0.574670 0.574650 0.978028
Zn2   Zn    Zn3+2 0.583640 0.456100 0.403530 0.985091
Zn3   Zn    Zn3+2 0.447120 0.574690 0.447120 0.988235
Zn4   Zn    Zn3+2 0.394550 0.394550 0.574700 0.958423

loop_
_geom_bond_atom_site_label_1
_geom_bond_atom_site_label_2
_ccdc_geom_bond_type
O23   Zn4   S    
C64   H32   S    
C40   O3    A    
C3    C42   A    
C34   C56   A    
C65   O27   D    
C27   C29   A    
C69   O30   S    
C63   O25   S    
C61   H27   S    
C9    C51   S    
O1    Zn1   S    
C63   H30   S    
C44   H12   S    
C54   H13   S    
C61   H25   S    
C41   C67   A    
C44   H34   S    
C58   O19   D    
C54   O16   S    
C12   C23   A    
C26   C27   A    
C29   C30   A    
C22   C32   A    
C13   C18   A    
C52   O14   S    
C12   C43   A    
C36   C58   S    
C50   H3    S    
O12   Zn1   S    
C11   C14   A    
C45   C71   A    
C64   O26   D    
C47   H41   S    
C44   O6    S    
C11   C13   A    
C30   C38   A    
C53   H10   S    
C59   H18   S    
O36   Zn3   S    
O32   Zn3   S    
O1    Zn4   S    
C6    C15   A    
C69   H38   S    
C8    C9    A    
O35   Zn2   S    
C70   C71   A    
C50   O11   S    
C68   H36   S    
C57   C70   S    
C52   H8    S    
C9    C10   A    
C60   O21   S    
C31   C36   A    
O1    Zn3   S    
C37   C53   S    
C60   H22   S    
C33   O16   S    
C49   H43   S    
C5    C43   A    
C16   C24   S    
C1    C7    S    
C46   H40   S    
C57   O18   D    
C1    O31   A    
C41   C62   S    
C66   H35   S    
C63   H31   S    
C52   H7    S    
C69   H37   S    
C43   C64   S    
C24   C37   A    
C39   C42   S    
C60   H21   S    
O5    Zn1   S    
C6    C47   S    
C28   O23   A    
C17   C46   S    
O34   Zn1   S    
C25   H1    S    
C19   C48   S    
C66   O28   D    
C25   C26   A    
C39   O2    A    
C4    O32   A    
C12   C66   S    
C57   H16   S    
C58   H17   S    
C59   H19   S    
C51   H6    S    
C63   H29   S    
C4    O34   A    
C50   H5    S    
C25   C38   A    
C69   H39   S    
C47   O8    D    
C31   C32   A    
C28   C38   S    
C23   C34   A    
C17   C18   A    
C13   C21   A    
O3    Zn4   S    
C34   C45   A    
C59   H20   S    
O1    Zn2   S    
C30   C35   A    
O33   Zn4   S    
C55   O17   D    
O4    Zn3   S    
C7    C19   A    
O2    Zn2   S    
C62   O24   D    
C49   H2    S    
C51   O13   D    
C40   O5    A    
C26   O21   S    
C54   H11   S    
C49   O10   S    
C10   O11   S    
C15   C17   A    
C3    C41   A    
C49   H44   S    
C20   O30   S    
C14   C19   A    
C61   H26   S    
C18   O14   S    
C8    C21   A    
C48   O9    D    
C54   H14   S    
C22   C55   S    
C56   C67   A    
C6    C20   A    
C24   C36   A    
C67   C70   A    
C27   O20   S    
C32   C33   A    
C23   C65   S    
C55   H15   S    
C2    O25   S    
C29   C31   A    
C2    C56   A    
C50   H4    S    
C35   O22   S    
C4    C21   S    
C22   C37   A    
C61   O22   S    
O31   Zn2   S    
C5    C45   A    
C2    C42   A    
C68   C71   S    
C39   O4    A    
C59   O20   S    
C33   C35   A    
C68   O29   D    
C16   O12   A    
C44   H23   S    
C10   C11   A    
C62   H28   S    
C60   H24   S    
C8    O10   S    
C28   O36   A    
C7    C20   A    
C5    C40   S    
C14   C15   A    
C46   O7    D    
C1    O33   A    
C16   O35   A    
C53   O15   D    
C65   H33   S    
C52   H9    S    
C3    O6    S    
C48   H42   S    
