data_mof_unit_48245.cif
_audit_creation_date              2012-12-11T15:34:40-0500
_audit_creation_method            fapswitch 2.2
_symmetry_space_group_name_H-M    P1
_symmetry_Int_Tables_number       1
_space_group_crystal_system       triclinic
_cell_length_a                    15.052786
_cell_length_b                    15.052682
_cell_length_c                    34.951846
_cell_angle_alpha                 90.455222
_cell_angle_beta                  89.871791
_cell_angle_gamma                 60.037054
_cell_volume                      6860.70443575

loop_
_atom_site_label
_atom_site_type_symbol
_atom_type_description
_atom_site_fract_x
_atom_site_fract_y
_atom_site_fract_z
_atom_type_partial_charge
C1    C     C_R   0.302100 0.608443 0.555682 0.546315
C2    C     C_R   0.215191 0.724251 0.391054 -0.126579
C3    C     C_R   0.762077 0.107118 0.270189 -0.103566
C4    C     C_R   0.770188 0.094744 0.230313 0.013474
C5    C     C_R   0.693215 0.171544 0.207143 0.039867
C6    C     C_R   0.737877 0.203399 0.351959 -0.123022
C7    C     C_R   0.716722 0.228943 0.390674 -0.128469
C8    C     C_R   0.551780 0.238761 0.383454 -0.127018
C9    C     C_R   0.742717 0.595833 0.646732 -0.131099
C10   C     C_R   0.572418 0.214679 0.344773 -0.123267
C11   C     C_R   0.663846 0.200553 0.328597 0.028225
C12   C     C_R   0.621704 0.250782 0.406373 0.022351
C13   C     C_R   0.183795 0.735328 0.353204 -0.125927
C14   C     C_R   0.078851 0.710524 0.095047 -0.018389
C15   C     C_R   0.088034 0.622087 0.112147 -0.130948
C16   C     C_R   0.118939 0.598701 0.150694 0.278099
C17   C     C_R   0.136687 0.668715 0.171705 0.046263
C18   C     C_R   0.134721 0.752501 0.153653 -0.178987
C19   C     C_R   0.106681 0.772915 0.115598 -0.145538
C20   C     C_R   0.229205 0.668647 0.230576 -0.128381
C21   C     C_3   0.827341 0.494220 0.587749 -0.381895
C22   C     C_3   0.889359 0.081198 0.908300 -0.383513
C23   C     C_3   0.736080 0.891074 0.696532 0.011481
C24   C     C_R   0.176354 0.656570 0.334695 0.030228
C25   C     C_3   0.816880 0.870572 0.665676 -0.271955
C26   C     C_3   0.889319 0.755806 0.659679 -0.477609
C27   C     C_3   0.466450 0.851666 0.571716 0.022757
C28   C     C_3   0.446796 0.944457 0.596519 -0.281421
C29   C     C_3   0.443274 0.030027 0.572288 -0.477797
C30   C     C_3   0.841420 0.189978 0.153831 -0.411317
C31   C     C_3   0.858759 0.997101 0.214273 -0.403923
C32   C     C_3   0.130436 0.435041 0.147452 0.007607
C33   C     C_3   0.022861 0.448796 0.143310 -0.270333
C34   C     C_3   0.024296 0.365704 0.117616 -0.489955
C35   C     C_R   0.565548 0.730081 0.649100 -0.104920
C36   C     C_3   0.509764 0.926518 0.827506 0.014648
C37   C     C_3   0.413431 0.993291 0.804191 -0.240364
C38   C     C_3   0.405647 0.094659 0.793017 -0.492839
C39   C     C_R   0.241138 0.633371 0.410639 0.022958
C40   C     C_R   0.736555 0.024871 0.942977 0.541858
C41   C     C_R   0.746312 0.722962 0.944959 0.548274
C42   C     C_R   0.037691 0.734322 0.948123 0.542981
C43   C     C_R   0.723235 0.038187 0.052995 0.543013
C44   C     C_R   0.733366 0.734422 0.054691 0.543282
C45   C     C_R   0.658124 0.668897 0.667819 -0.036864
C46   C     C_R   0.026725 0.745081 0.058092 0.550036
C47   C     C_R   0.554281 0.713541 0.610562 0.248649
C48   C     C_R   0.674897 0.681092 0.787046 0.349319
C49   C     C_R   0.664830 0.677074 0.709604 0.324347
C50   C     C_R   0.772499 0.610461 0.846803 -0.170864
C51   C     C_R   0.789273 0.618562 0.885386 -0.149011
C52   C     C_R   0.623586 0.773133 0.890547 -0.113954
C53   C     C_R   0.605902 0.765600 0.851582 0.261496
C54   C     C_R   0.682662 0.685136 0.829092 0.039292
C55   C     C_R   0.611567 0.589574 0.554920 0.552813
C56   C     C_R   0.236876 0.668263 0.270197 -0.120387
C57   C     C_R   0.716969 0.702160 0.907239 -0.019070
C58   C     C_R   0.725745 0.067816 0.903997 0.034956
C59   C     C_R   0.643227 0.078657 0.881695 -0.141051
C60   C     C_R   0.641428 0.093528 0.842501 -0.134587
C61   C     C_R   0.721392 0.098861 0.824340 0.023342
C62   C     C_R   0.799434 0.097589 0.846540 -0.093682
C63   C     C_R   0.802521 0.082860 0.886289 -0.004250
C64   C     C_R   0.748617 0.171652 0.764351 -0.133917
C65   C     C_R   0.742111 0.182438 0.724764 -0.163706
C66   C     C_R   0.711148 0.125256 0.702145 0.032661
C67   C     C_R   0.165631 0.658577 0.293117 0.023766
C68   C     C_R   0.590484 0.299813 0.553396 0.546335
C69   C     C_R   0.693090 0.051414 0.719525 0.273470
C70   C     C_R   0.697449 0.042896 0.759519 -0.105542
C71   C     C_R   0.723612 0.103910 0.782158 -0.014840
C72   C     C_R   0.593774 0.173046 0.646268 -0.085764
C73   C     C_R   0.564553 0.215249 0.609993 -0.141077
C74   C     C_R   0.727169 0.209947 0.602296 -0.129724
C75   C     C_R   0.756785 0.166713 0.638489 -0.138932
C76   C     C_R   0.689000 0.150986 0.661258 0.051068
C77   C     C_R   0.629388 0.237685 0.588248 0.020603
C78   C     C_R   0.086938 0.648592 0.276165 -0.127774
C79   C     C_R   0.088044 0.699339 0.910394 0.021375
C80   C     C_R   0.299350 0.610816 0.446364 0.542068
C81   C     C_R   0.115900 0.761561 0.889750 -0.123396
C82   C     C_R   0.135569 0.745953 0.850594 -0.115132
C83   C     C_R   0.129026 0.667165 0.831482 0.030918
C84   C     C_R   0.110487 0.599127 0.852587 -0.119957
C85   C     C_R   0.089942 0.615173 0.891787 -0.126816
C86   C     C_R   0.196802 0.566746 0.770661 -0.107969
C87   C     C_R   0.205528 0.562494 0.730850 -0.104555
C88   C     C_R   0.151544 0.652050 0.709108 0.030349
C89   C     C_R   0.078205 0.650686 0.236478 -0.074009
C90   C     C_R   0.085952 0.745218 0.727890 -0.120957
C91   C     C_R   0.077840 0.749529 0.767662 -0.110891
C92   C     C_R   0.608198 0.589934 0.445379 0.536342
C93   C     C_R   0.134752 0.660715 0.789373 0.033119
C94   C     C_R   0.184081 0.727382 0.651027 -0.117981
C95   C     C_R   0.219841 0.717314 0.613548 -0.116652
C96   C     C_R   0.224345 0.554696 0.607394 -0.132319
C97   C     C_R   0.188110 0.565031 0.644886 -0.129404
C98   C     C_R   0.171463 0.649558 0.667531 0.026805
C99   C     C_R   0.244218 0.628942 0.591887 0.018958
C100  C     C_R   0.149702 0.660123 0.213446 0.062515
C101  C     C_R   0.692069 0.718732 0.090651 0.022017
C102  C     C_R   0.608880 0.801766 0.109272 -0.129397
C103  C     C_R   0.584171 0.792473 0.146968 -0.123679
C104  C     C_R   0.588105 0.302533 0.443844 0.542523
C105  C     C_R   0.642302 0.700129 0.166638 0.033430
C106  C     C_R   0.720350 0.614972 0.146964 -0.122982
C107  C     C_R   0.744569 0.624097 0.109267 -0.132841
C108  C     C_R   0.640524 0.604856 0.224701 -0.120135
C109  C     C_R   0.640818 0.595386 0.264313 -0.118218
C110  C     C_R   0.628641 0.676057 0.288265 0.027041
C111  C     C_R   0.192217 0.570281 0.355166 -0.120833
C112  C     C_R   0.612848 0.767655 0.272099 -0.119019
C113  C     C_R   0.613679 0.776806 0.232424 -0.116156
C114  C     C_R   0.629026 0.694876 0.208340 0.029487
C115  C     C_R   0.553987 0.736531 0.353515 -0.122079
C116  C     C_R   0.634581 0.628195 0.590796 0.025382
C117  C     C_R   0.550114 0.716488 0.392228 -0.128750
C118  C     C_R   0.708847 0.554691 0.385004 -0.125650
C119  C     C_R   0.712023 0.574301 0.346316 -0.123660
C120  C     C_R   0.632731 0.663501 0.330046 0.029485
C121  C     C_R   0.625456 0.623450 0.407957 0.021731
C122  C     C_R   0.224866 0.558481 0.393021 -0.131170
C123  C     C_R   0.701828 0.096043 0.089158 0.008313
C124  C     C_R   0.770035 0.127196 0.102642 -0.113124
C125  C     C_R   0.764856 0.159727 0.140659 0.007617
C126  C     C_R   0.691125 0.158731 0.165490 0.042591
C127  C     C_R   0.617681 0.136415 0.150998 -0.138530
C128  C     C_R   0.732634 0.574773 0.608391 -0.048304
C129  C     C_R   0.622545 0.105827 0.113093 -0.135907
C130  C     C_R   0.610634 0.257828 0.224222 -0.138957
C131  C     C_R   0.602364 0.267655 0.263798 -0.127490
C132  C     C_R   0.677194 0.191793 0.286927 0.011037
Cr1   Cr    Cr6+3 0.421670 0.426920 0.499620 1.006025
Cr2   Cr    Cr6+3 0.427030 0.651190 0.500980 1.023528
Cr3   Cr    Cr6+3 0.651280 0.421870 0.499380 1.001179
Cr4   Cr    Cr6+3 0.910810 0.908010 0.001130 1.001825
Cr5   Cr    Cr6+3 0.682800 0.909890 0.998370 1.009458
Cr6   Cr    Cr6+3 0.908370 0.682300 0.002180 1.006613
H1    H     H_    0.830884 0.149659 0.649413 0.100826
H2    H     H_    0.115871 0.826574 0.903254 0.123571
H3    H     H_    0.472899 0.080554 0.775300 0.162277
H4    H     H_    0.068651 0.565925 0.906872 0.123674
H5    H     H_    0.176790 0.505037 0.656640 0.102425
H6    H     H_    0.257939 0.489859 0.717249 0.106356
H7    H     H_    0.241241 0.497394 0.786906 0.105682
H8    H     H_    0.152007 0.797943 0.834913 0.113911
H9    H     H_    0.042022 0.815028 0.711852 0.098437
H10   H     H_    0.027432 0.822460 0.781536 0.107369
H11   H     H_    0.172623 0.793119 0.667795 0.110422
H12   H     H_    0.861883 0.562282 0.897462 0.139448
H13   H     H_    0.756123 0.239672 0.711985 0.123504
H14   H     H_    0.234121 0.776004 0.602403 0.151586
H15   H     H_    0.105486 0.537585 0.838371 0.105882
H16   H     H_    0.241461 0.486185 0.591252 0.122015
H17   H     H_    0.566595 0.875590 0.095557 0.122885
H18   H     H_    0.808293 0.558552 0.095447 0.125289
H19   H     H_    0.774405 0.517898 0.328716 0.104633
H20   H     H_    0.650858 0.524824 0.276315 0.109835
H21   H     H_    0.650745 0.541198 0.206877 0.103207
H22   H     H_    0.522222 0.858692 0.161215 0.098947
H23   H     H_    0.603324 0.830670 0.290167 0.104241
H24   H     H_    0.768394 0.219951 0.781164 0.121206
H25   H     H_    0.816083 0.551281 0.660656 0.142060
H26   H     H_    0.606380 0.846480 0.220683 0.103151
H27   H     H_    0.492280 0.806018 0.341439 0.102257
H28   H     H_    0.485019 0.770995 0.409229 0.119310
H29   H     H_    0.767091 0.542913 0.161356 0.100219
H30   H     H_    0.768269 0.482490 0.396245 0.127028
H31   H     H_    0.830426 0.121761 0.084102 0.121576
H32   H     H_    0.568811 0.082549 0.103439 0.127616
H33   H     H_    0.515161 0.211312 0.327062 0.107246
H34   H     H_    0.536857 0.334059 0.276474 0.117939
H35   H     H_    0.578520 0.098176 0.826139 0.101997
H36   H     H_    0.550991 0.316349 0.206784 0.116061
H37   H     H_    0.500354 0.790172 0.664486 0.147526
H38   H     H_    0.819559 0.048423 0.288258 0.108296
H39   H     H_    0.809037 0.192200 0.339779 0.102575
H40   H     H_    0.772117 0.237374 0.407716 0.119754
H41   H     H_    0.560036 0.136768 0.169737 0.109949
H42   H     H_    0.478045 0.254830 0.394689 0.126702
H43   H     H_    0.065552 0.575623 0.095714 0.118598
H44   H     H_    0.100505 0.841344 0.103067 0.139686
H45   H     H_    0.170623 0.802857 0.337698 0.103859
H46   H     H_    0.678704 0.989604 0.772900 0.100503
H47   H     H_    0.832001 0.546987 0.830526 0.139276
H48   H     H_    0.298938 0.674647 0.283040 0.113951
H49   H     H_    0.284890 0.676103 0.213276 0.106661
H50   H     H_    0.031443 0.641287 0.293639 0.106015
H51   H     H_    0.014585 0.646901 0.223779 0.139720
H52   H     H_    0.186607 0.508924 0.341072 0.108099
H53   H     H_    0.243705 0.487988 0.407552 0.121479
H54   H     H_    0.149020 0.805923 0.169706 0.110286
H55   H     H_    0.225942 0.783794 0.403999 0.126769
H56   H     H_    0.565696 0.836693 0.907299 0.127988
H57   H     H_    0.539096 0.163807 0.663487 0.149247
H58   H     H_    0.582125 0.069795 0.894083 0.126015
H59   H     H_    0.898328 0.476513 0.603455 0.108318
H60   H     H_    0.825111 0.421840 0.585078 0.161396
H61   H     H_    0.833169 0.522087 0.559045 0.141278
H62   H     H_    0.931379 0.109900 0.890848 0.105029
H63   H     H_    0.859005 0.131440 0.934051 0.136858
H64   H     H_    0.945323 0.001620 0.916714 0.166687
H65   H     H_    0.697009 0.847411 0.688919 0.168066
H66   H     H_    0.773430 0.861287 0.724681 0.129777
H67   H     H_    0.778113 0.904667 0.638221 0.181112
H68   H     H_    0.488631 0.235935 0.600010 0.122588
H69   H     H_    0.862341 0.907082 0.674291 0.151374
H70   H     H_    0.927023 0.719357 0.686975 0.167903
H71   H     H_    0.949331 0.743524 0.638373 0.157494
H72   H     H_    0.846357 0.718747 0.648782 0.154338
H73   H     H_    0.405807 0.877772 0.549610 0.150498
H74   H     H_    0.540765 0.820766 0.555887 0.109412
H75   H     H_    0.372685 0.974069 0.612071 0.170192
H76   H     H_    0.508879 0.921173 0.617881 0.163438
H77   H     H_    0.517451 0.002490 0.557038 0.151880
H78   H     H_    0.429156 0.095715 0.591073 0.148649
H79   H     H_    0.860601 0.103546 0.832605 0.101359
H80   H     H_    0.380445 0.056799 0.551074 0.141318
H81   H     H_    0.827693 0.218978 0.183764 0.142291
H82   H     H_    0.920052 0.122726 0.151675 0.123941
H83   H     H_    0.836562 0.251864 0.135323 0.122703
H84   H     H_    0.854852 0.988804 0.182920 0.152238
H85   H     H_    0.931939 0.994811 0.220964 0.123408
H86   H     H_    0.859574 0.929941 0.227587 0.129324
H87   H     H_    0.178417 0.362003 0.162751 0.151612
H88   H     H_    0.170191 0.424927 0.119525 0.115067
H89   H     H_    0.993169 0.445089 0.172052 0.166401
H90   H     H_    0.779034 0.225727 0.586071 0.121162
H91   H     H_    0.969420 0.525091 0.131229 0.167137
H92   H     H_    0.049870 0.370705 0.088276 0.148871
H93   H     H_    0.945963 0.376172 0.116043 0.138816
H94   H     H_    0.076747 0.288546 0.129363 0.143697
H95   H     H_    0.578248 0.912041 0.810221 0.131260
H96   H     H_    0.506996 0.968164 0.854354 0.118016
H97   H     H_    0.414750 0.951146 0.777735 0.200381
H98   H     H_    0.344457 0.009378 0.821248 0.168381
H99   H     H_    0.401206 0.139659 0.819008 0.140512
H100  H     H_    0.335133 0.140225 0.776004 0.148606
N1    N     N_R   0.760463 0.623252 0.765622 -0.255646
N2    N     N_R   0.755517 0.620946 0.727707 -0.247227
N3    N     N_R   0.579226 0.735258 0.730962 -0.244326
N4    N     N_R   0.584238 0.737397 0.768915 -0.173610
O1    O     O_R   0.502070 0.323090 0.541280 -0.520609
O2    O     O_R   0.831550 0.656950 0.958960 -0.519081
O3    O     O_R   0.998590 0.685540 0.963930 -0.502416
O4    O     O_R   0.338340 0.520690 0.539540 -0.505214
O5    O     O_R   0.008220 0.831200 0.045060 -0.515864
O6    O     O_R   0.813270 0.997930 0.038810 -0.502476
O7    O     O_R   0.657500 0.016560 0.039940 -0.519400
O8    O     O_R   0.685680 0.820940 0.038120 -0.502215
O9    O     O_R   0.822130 0.666070 0.043610 -0.521358
O10   O     O_R   0.989860 0.694000 0.042400 -0.504451
O11   O     O_3   0.833990 0.833400 0.000560 -0.233446
O12   O     O_R   0.520720 0.641670 0.461580 -0.508961
O13   O     O_R   0.324760 0.674070 0.543580 -0.499437
O14   O     O_R   0.522400 0.640310 0.540110 -0.456671
O15   O     O_R   0.675940 0.500630 0.542210 -0.529723
O16   O     O_R   0.641790 0.337020 0.538150 -0.501752
O17   O     O_R   0.500260 0.324550 0.456580 -0.522032
O18   O     O_R   0.336660 0.522040 0.461020 -0.503927
O19   O     O_R   0.322940 0.675540 0.458880 -0.525242
O20   O     O_3   0.660186 0.996159 0.697742 -0.594338
O21   O     O_3   0.460252 0.776484 0.593873 -0.554049
O22   O     O_3   0.126395 0.514684 0.170455 -0.583379
O23   O     O_R   0.674120 0.502090 0.457500 -0.523414
O24   O     O_3   0.511893 0.833982 0.836132 -0.552660
O25   O     O_R   0.640110 0.338380 0.459630 -0.502224
O26   O     O_3   0.499990 0.499990 0.499990 -0.234804
O27   O     O_R   0.017640 0.822070 0.960410 -0.527080
O28   O     O_R   0.822000 0.989470 0.960340 -0.504194
O29   O     O_R   0.666920 0.007430 0.955290 -0.521903
O30   O     O_R   0.694410 0.812480 0.959650 -0.503316

loop_
_geom_bond_atom_site_label_1
_geom_bond_atom_site_label_2
_ccdc_geom_bond_type
C101  C107  A    
C81   H2    S    
C73   H68   S    
C42   O3    A    
C9    C45   A    
C101  C102  A    
C6    C7    A    
N1    N2    A    
C90   H9    S    
C104  O25   A    
C21   H60   S    
C20   C56   A    
C35   C47   A    
C11   C132  S    
C1    C99   S    
C72   H57   S    
C36   H95   S    
Cr5   O8    S    
Cr5   O29   S    
C123  C124  A    
C14   C46   S    
C108  H21   S    
C48   N4    A    
C53   C54   A    
C108  C109  A    
C94   H11   S    
C48   C54   S    
C112  H23   S    
C24   C111  A    
C18   H54   S    
C62   C63   A    
C39   C122  A    
C26   H72   S    
Cr5   O11   S    
C22   H62   S    
C36   C37   S    
C81   C82   A    
C46   O5    A    
C18   C19   A    
Cr6   O10   S    
C1    O4    A    
C95   C99   A    
C103  H22   S    
C29   H77   S    
C66   C69   A    
C38   H100  S    
C55   C116  S    
C94   C98   A    
C68   O1    A    
C36   H96   S    
C15   C16   A    
C83   C93   S    
C96   C99   A    
C97   C98   A    
C28   H75   S    
C55   O14   A    
Cr4   O6    S    
C41   O30   A    
C32   O22   S    
N3    N4    A    
C64   C71   A    
C108  C114  A    
C9    H25   S    
C2    C13   A    
C43   O7    A    
C118  C119  A    
C91   H10   S    
C74   H90   S    
C24   C67   S    
C22   C63   S    
C2    C39   A    
Cr1   O18   S    
C96   H16   S    
C124  H31   S    
C34   H93   S    
C51   H12   S    
C16   C17   A    
C13   H45   S    
C74   C77   A    
C5    C126  S    
Cr4   O27   S    
C80   O18   A    
C44   C101  S    
C87   H6    S    
C115  H27   S    
Cr6   O11   S    
C43   O6    A    
C61   C62   A    
C72   C76   A    
Cr1   O4    S    
C106  H29   S    
C69   C70   A    
C61   C71   S    
C30   C125  S    
C66   C76   S    
C42   C79   S    
C123  C129  A    
C111  C122  A    
Cr3   O25   S    
C60   H35   S    
C34   H92   S    
C67   C78   A    
C92   C121  S    
C21   H61   S    
C49   N2    A    
C25   H67   S    
C109  H20   S    
C19   H44   S    
C112  C113  A    
C82   H8    S    
Cr5   O30   S    
C37   H97   S    
C30   H83   S    
C78   C89   A    
Cr2   O26   S    
C47   C116  A    
C68   C77   S    
C26   H70   S    
C131  H34   S    
Cr3   O15   S    
C9    C128  A    
C40   C58   S    
C74   C75   A    
C22   H64   S    
C89   C100  A    
C3    C132  A    
Cr1   O26   S    
C62   H79   S    
Cr4   O11   S    
C122  H53   S    
C52   H56   S    
C84   C85   A    
Cr2   O12   S    
C64   H24   S    
Cr6   O9    S    
C10   C11   A    
C110  C120  S    
C6    C11   A    
C79   C81   A    
C86   C87   A    
C4    C5    A    
C29   H78   S    
C41   O2    A    
C23   O20   S    
C115  C117  A    
C25   C26   S    
C82   C83   A    
C130  H36   S    
Cr4   O5    S    
C23   H65   S    
C60   C61   A    
C55   O15   A    
C104  O17   A    
C65   H13   S    
C97   H5    S    
C75   C76   A    
C127  C129  A    
C37   C38   S    
C86   C93   A    
C105  C114  S    
C91   C93   A    
C31   H84   S    
C84   H15   S    
C8    H42   S    
C44   O9    A    
Cr5   O7    S    
C83   C84   A    
C20   C100  A    
C45   C49   S    
C117  H28   S    
C8    C12   A    
C27   O21   S    
C96   C97   A    
C27   H73   S    
C50   C51   A    
C94   C95   A    
C103  C105  A    
C50   C54   A    
C119  H19   S    
C21   C128  S    
C10   H33   S    
C46   O10   A    
C70   C71   A    
C38   H99   S    
C111  H52   S    
C51   C57   A    
C92   O23   A    
C7    H40   S    
C70   H46   S    
C29   H80   S    
C41   C57   S    
C88   C90   A    
C115  C120  A    
Cr2   O19   S    
C40   O28   A    
C6    H39   S    
C116  C128  A    
C125  C126  A    
C38   H3    S    
C31   H85   S    
C7    C12   A    
C78   H50   S    
C56   H48   S    
C3    C4    A    
C35   C45   A    
C86   H7    S    
C43   C123  S    
C79   C85   A    
C48   N1    A    
Cr6   O2    S    
C52   C53   A    
C28   C29   S    
C37   H98   S    
C30   H82   S    
C113  C114  A    
C40   O29   A    
C44   O8    A    
C58   C63   A    
C5    C130  A    
Cr3   O16   S    
C73   C77   A    
C22   H63   S    
C36   O24   S    
C14   C19   A    
C34   H94   S    
C80   O19   A    
C107  H18   S    
C32   H88   S    
C72   C73   A    
C33   H89   S    
C47   O21   S    
C85   H4    S    
Cr2   O13   S    
C49   N3    A    
C119  C120  A    
C12   C104  S    
C69   O20   S    
C95   H14   S    
C117  C121  A    
C59   H58   S    
C33   H91   S    
C56   C67   A    
C105  C106  A    
C17   C18   A    
C23   H66   S    
C2    H55   S    
C35   H37   S    
C39   C80   S    
C118  H30   S    
C42   O27   A    
C130  C131  A    
C58   C59   A    
C127  H41   S    
C3    H38   S    
Cr6   O3    S    
C75   H1    S    
C131  C132  A    
C32   C33   S    
C20   H49   S    
C68   O16   A    
C90   C91   A    
Cr3   O26   S    
C126  C127  A    
C15   H43   S    
C64   C65   A    
C21   H59   S    
C27   H74   S    
C33   C34   S    
C26   H71   S    
C23   C25   S    
C102  C103  A    
C17   C100  S    
C110  C112  A    
C28   H76   S    
C52   C57   A    
Cr2   O14   S    
C31   H86   S    
C16   O22   S    
C88   C98   S    
C1    O13   A    
C4    C31   S    
C59   C60   A    
C32   H87   S    
C13   C24   A    
C87   C88   A    
C8    C10   A    
C65   C66   A    
C106  C107  A    
C109  C110  A    
C27   C28   S    
Cr3   O23   S    
C89   H51   S    
C14   C15   A    
C30   H81   S    
Cr4   O28   S    
C129  H32   S    
C25   H69   S    
C50   H47   S    
C102  H17   S    
C118  C121  A    
Cr1   O17   S    
Cr1   O1    S    
C53   O24   S    
C124  C125  A    
C113  H26   S    
C92   O12   A    
