data_mof_unit_68452.cif
_audit_creation_date              2012-12-10T16:55:46-0500
_audit_creation_method            fapswitch 2.2
_symmetry_space_group_name_H-M    P1
_symmetry_Int_Tables_number       1
_space_group_crystal_system       triclinic
_cell_length_a                    7.826381
_cell_length_b                    8.811011
_cell_length_c                    10.632749
_cell_angle_alpha                 92.610386
_cell_angle_beta                  84.399497
_cell_angle_gamma                 91.798146
_cell_volume                      728.691873397

loop_
_atom_site_label
_atom_site_type_symbol
_atom_type_description
_atom_site_fract_x
_atom_site_fract_y
_atom_site_fract_z
_atom_type_partial_charge
C1    C     C_R   0.543792 0.793494 0.493450 0.960873
C2    C     C_R   0.456208 0.206506 0.506550 0.960874
C3    C     C_R   0.499477 0.493418 0.741887 0.886560
C4    C     C_R   0.500523 0.506582 0.258113 0.886560
C5    C     C_3   0.400480 0.605782 0.964753 -0.060184
C6    C     C_3   0.599520 0.394218 0.035247 -0.060184
C7    C     C_3   0.559852 0.638011 0.036451 -0.066703
C8    C     C_3   0.440148 0.361989 0.963549 -0.066703
C9    C     C_3   0.499098 0.509462 0.123933 -0.139431
C10   C     C_3   0.500902 0.490538 0.876067 -0.139431
C11   C     C_3   0.339578 0.477069 0.052639 -0.032912
C12   C     C_3   0.660421 0.522931 0.947361 -0.032912
C13   C     C_2   0.565147 0.953071 0.475156 -0.109986
C14   C     C_2   0.434853 0.046929 0.524844 -0.109986
N1    N     N_2   0.950320 0.457950 0.465730 -0.157004
N2    N     N_2   0.049680 0.542050 0.534270 -0.157004
O1    O     O_R   0.389250 0.738570 0.508410 -0.667203
O2    O     O_R   0.610750 0.261430 0.491590 -0.667203
O3    O     O_R   0.678390 0.711620 0.486450 -0.621185
O4    O     O_R   0.321610 0.288380 0.513550 -0.621185
O5    O     O_R   0.355460 0.513510 0.697030 -0.622435
O6    O     O_R   0.644540 0.486490 0.302970 -0.622435
O7    O     O_R   0.644600 0.486560 0.675070 -0.631091
O8    O     O_R   0.355400 0.513440 0.324930 -0.631092
Zn1   Zn    Zn3+2 0.306940 0.517990 0.514670 0.946025
Zn2   Zn    Zn3+2 0.693060 0.482010 0.485330 0.946025
C15   C     C_1   0.609080 0.794711 0.068186 0.167757
N3    N     N_1   0.644030 0.920259 0.091377 -0.192881
C16   C     C_1   0.390920 0.205289 0.931814 0.167757
N4    N     N_1   0.355970 0.079741 0.908623 -0.192881
C17   C     C_1   0.281766 0.717986 0.927761 0.229311
N5    N     N_1   0.184416 0.803320 0.899626 -0.186599
C18   C     C_1   0.718233 0.282013 0.072239 0.229311
N6    N     N_1   0.815584 0.196680 0.100373 -0.186599
C19   C     C_1   0.160335 0.471896 0.107007 0.226888
N7    N     N_1   0.018794 0.474095 0.149364 -0.198859
C20   C     C_1   0.839665 0.528104 0.892992 0.226888
N8    N     N_1   0.981206 0.525905 0.850636 -0.198859
C21   C     C_1   0.026124 0.336712 0.396562 0.398157
N9    N     N_1   0.087711 0.235089 0.337899 -0.241114
C22   C     C_1   0.973876 0.663288 0.603438 0.398157
N10   N     N_1   0.912288 0.764911 0.662101 -0.241114
C23   C     C_3   0.730445 0.008891 0.395387 -0.377799
C24   C     C_3   0.851434 0.892995 0.324004 -0.758669
H1    H     H_    0.935736 0.844313 0.389053 0.248957
H2    H     H_    0.779859 0.800342 0.276496 0.268357
H3    H     H_    0.937059 0.950985 0.250522 0.257178
H4    H     H_    0.691023 0.082639 0.321981 0.240297
H5    H     H_    0.811984 0.074803 0.459294 0.233696
C25   C     C_3   0.269555 0.991109 0.604613 -0.377799
C26   C     C_3   0.148566 0.107005 0.675996 -0.758668
H6    H     H_    0.220141 0.199658 0.723504 0.268356
H7    H     H_    0.064264 0.155687 0.610947 0.248957
H8    H     H_    0.062941 0.049015 0.749479 0.257178
H9    H     H_    0.188016 0.925196 0.540706 0.233696
H10   H     H_    0.308977 0.917361 0.678019 0.240297

loop_
_geom_bond_atom_site_label_1
_geom_bond_atom_site_label_2
_ccdc_geom_bond_type
C23   C24   S    
C24   H3    S    
C3    O5    A    
C5    C11   S    
C16   N4    T    
N2    Zn1   S    
C2    O2    A    
C4    O6    A    
C23   H4    S    
C3    O7    A    
C17   N5    T    
O2    Zn2   S    
C6    C18   S    
C26   H8    S    
O1    Zn1   S    
C6    C9    S    
C11   C19   S    
C18   N6    T    
C5    C10   S    
C3    C10   S    
C12   C20   S    
C13   C14   D    
C24   H1    S    
C6    C12   S    
C9    C11   S    
N1    C21   S    
C14   C25   S    
C10   C12   S    
C8    C11   S    
C2    C14   S    
C8    C16   S    
C20   N8    T    
C24   H2    S    
C25   C26   S    
O6    Zn2   S    
C7    C12   S    
C4    O8    A    
C1    O3    A    
C1    C13   S    
O4    Zn1   S    
C2    O4    A    
C26   H6    S    
C21   N9    T    
C7    C9    S    
C13   C23   S    
C7    C15   S    
O8    Zn1   S    
C8    C10   S    
C22   N10   T    
O7    Zn2   S    
C15   N3    T    
C5    C7    S    
O3    Zn2   S    
O5    Zn1   S    
C23   H5    S    
N1    Zn2   S    
C6    C8    S    
C26   H7    S    
C4    C9    S    
C1    O1    A    
N2    C22   S    
N1    N2    D    
C25   H10   S    
C25   H9    S    
C5    C17   S    
C19   N7    T    
