data_mof_unit_24971.cif
_audit_creation_date              2012-12-11T15:09:39-0500
_audit_creation_method            fapswitch 2.2
_symmetry_space_group_name_H-M    P1
_symmetry_Int_Tables_number       1
_space_group_crystal_system       triclinic
_cell_length_a                    21.121039
_cell_length_b                    7.136582
_cell_length_c                    14.084283
_cell_angle_alpha                 90.000088
_cell_angle_beta                  98.956452
_cell_angle_gamma                 89.999974
_cell_volume                      2097.06726466

loop_
_atom_site_label
_atom_site_type_symbol
_atom_type_description
_atom_site_fract_x
_atom_site_fract_y
_atom_site_fract_z
_atom_type_partial_charge
O1    O     O_R   0.447130 0.507140 0.597350 -0.543911
O2    O     O_R   0.552870 0.007140 0.402650 -0.543912
O3    O     O_R   0.578910 0.181280 0.586990 -0.546322
O4    O     O_R   0.421090 0.681280 0.413010 -0.546321
C1    C     C_R   0.604419 0.344275 0.607532 0.715821
C2    C     C_R   0.395581 0.844275 0.392468 0.715820
O5    O     O_R   0.449230 0.177860 0.608640 -0.547568
O6    O     O_R   0.550770 0.677860 0.391360 -0.547569
O7    O     O_R   0.422260 0.000770 0.424450 -0.524088
O8    O     O_R   0.577740 0.500770 0.575550 -0.524087
C3    C     C_R   0.432608 0.347019 0.633425 0.698075
C4    C     C_R   0.567392 0.847019 0.366575 0.698075
O9    O     O_3   0.491310 0.336980 0.439550 -0.375297
O10   O     O_3   0.508690 0.836980 0.560450 -0.375295
V1    V     V_3+5 0.501610 0.064760 0.511210 1.429111
V2    V     V_3+5 0.498390 0.564760 0.488790 1.429112
C5    C     C_R   0.616145 0.917446 0.125610 0.055454
C6    C     C_R   0.383856 0.417445 0.874390 0.055445
H1    H     H_    0.529003 0.941248 0.185769 0.108796
H2    H     H_    0.470998 0.441241 0.814232 0.108802
C7    C     C_R   0.608410 0.861878 0.292686 -0.073793
C8    C     C_R   0.391590 0.361878 0.707314 -0.073794
C9    C     C_R   0.917273 0.914685 0.297003 -0.157067
C10   C     C_R   0.082726 0.414682 0.702997 -0.157068
C11   C     C_R   0.881266 0.963863 0.367150 -0.124586
C12   C     C_R   0.118733 0.463860 0.632849 -0.124586
C13   C     C_R   0.814925 0.959357 0.347246 -0.129551
C14   C     C_R   0.185075 0.459357 0.652753 -0.129551
C15   C     C_R   0.782377 0.890660 0.258830 0.077992
C16   C     C_R   0.217623 0.390663 0.741169 0.077990
C17   C     C_R   0.818668 0.856130 0.183148 -0.009807
C18   C     C_R   0.181332 0.356134 0.816852 -0.009804
C19   C     C_R   0.714113 0.871882 0.241682 0.006577
C20   C     C_R   0.285886 0.371886 0.758317 0.006577
C21   C     C_R   0.682426 0.871749 0.145223 0.010096
C22   C     C_R   0.317574 0.371754 0.854777 0.010096
C23   C     C_R   0.717046 0.818774 0.071639 -0.100229
C24   C     C_R   0.282954 0.318787 0.928361 -0.100224
C25   C     C_R   0.784534 0.813162 0.090344 -0.113477
C26   C     C_R   0.215466 0.313174 0.909657 -0.113475
C27   C     C_R   0.675741 0.848100 0.316030 -0.053458
C28   C     C_R   0.324259 0.348102 0.683969 -0.053458
C29   C     C_R   0.579916 0.910695 0.200088 -0.233332
C30   C     C_R   0.420085 0.410691 0.799912 -0.233333
C31   C     C_R   0.887451 0.867351 0.204352 -0.070587
C32   C     C_R   0.112549 0.367351 0.795647 -0.070583
H3    H     H_    0.969015 0.926689 0.313152 0.092840
H4    H     H_    0.030985 0.426683 0.686847 0.092839
H5    H     H_    0.789784 0.019738 0.400607 0.122371
H6    H     H_    0.210215 0.519737 0.599392 0.122371
H7    H     H_    0.904907 0.013292 0.436360 0.115155
H8    H     H_    0.095092 0.513286 0.563639 0.115155
C33   C     C_1   0.166035 0.854838 0.169903 -0.135749
C34   C     C_1   0.833965 0.354837 0.830096 -0.135749
C35   C     C_1   0.218797 0.851244 0.219977 0.021332
C36   C     C_1   0.781203 0.351243 0.780022 0.021332
C37   C     C_1   0.280856 0.850245 0.279173 0.012863
C38   C     C_1   0.719144 0.350245 0.720826 0.012859
C39   C     C_1   0.333228 0.849664 0.330366 -0.186071
C40   C     C_1   0.666772 0.349664 0.669634 -0.186073
O11   O     O_R   0.922300 0.202240 0.924350 -0.521713
O12   O     O_R   0.077700 0.702240 0.075650 -0.521714
O13   O     O_R   0.050780 0.535130 0.891350 -0.536698
O14   O     O_R   0.949220 0.035130 0.108650 -0.536697
C41   C     C_R   0.070265 0.369123 0.869351 0.693999
C42   C     C_R   0.929734 0.869123 0.130648 0.694004
O15   O     O_R   0.921100 0.531560 0.912990 -0.543138
O16   O     O_R   0.078900 0.031560 0.087010 -0.543135
O17   O     O_R   0.947120 0.708470 0.097370 -0.535009
O18   O     O_R   0.052880 0.208470 0.902630 -0.535006
C43   C     C_R   0.896613 0.362885 0.891600 0.769467
C44   C     C_R   0.103387 0.862886 0.108400 0.769470
O19   O     O_3   0.008710 0.375800 0.060400 -0.378179
O20   O     O_3   0.991290 0.875800 0.939600 -0.378177
V3    V     V_3+5 0.998380 0.648080 0.988790 1.489154
V4    V     V_3+5 0.001620 0.148080 0.011210 1.489158
C45   C     C_2   0.682354 0.737129 0.980217 0.799578
O21   O     O_2   0.694469 0.789810 0.902353 -0.550331
O22   O     O_R   0.635164 0.601274 0.984247 -0.670116
H9    H     H_    0.612722 0.563781 0.918109 0.281828
C46   C     C_2   0.317646 0.237145 0.019784 0.799579
O23   O     O_2   0.305533 0.289840 0.097648 -0.550327
O24   O     O_R   0.364832 0.101278 0.015756 -0.670122
H10   H     H_    0.387273 0.063782 0.081893 0.281823
C47   C     C_R   0.585039 0.982879 0.029230 0.054054
C48   C     C_R   0.615099 0.118930 0.979193 -0.101248
C49   C     C_R   0.591552 0.157947 0.882950 -0.102612
C50   C     C_R   0.537102 0.065465 0.836764 -0.120579
C51   C     C_R   0.505002 0.937369 0.887174 -0.103259
C52   C     C_R   0.528759 0.896812 0.983141 -0.103362
H11   H     H_    0.658263 0.188484 0.013433 0.145947
H12   H     H_    0.616002 0.257819 0.843792 0.118588
H13   H     H_    0.519844 0.093438 0.762049 0.134680
H14   H     H_    0.462500 0.866815 0.851439 0.130224
H15   H     H_    0.505267 0.791971 0.020020 0.148416
C53   C     C_R   0.414963 0.482874 0.970770 0.054055
C54   C     C_R   0.384906 0.618937 0.020805 -0.101261
C55   C     C_R   0.408454 0.657951 0.117049 -0.102611
C56   C     C_R   0.462898 0.565448 0.163238 -0.120562
C57   C     C_R   0.494994 0.437337 0.112830 -0.103249
C58   C     C_R   0.471238 0.396787 0.016862 -0.103346
H16   H     H_    0.341746 0.688504 0.986564 0.145952
H17   H     H_    0.384008 0.757838 0.156205 0.118578
H18   H     H_    0.480157 0.593419 0.237953 0.134679
H19   H     H_    0.537493 0.366768 0.148567 0.130216
H20   H     H_    0.494727 0.291936 0.979984 0.148419
C59   C     C_R   0.704082 0.789628 0.415079 0.066344
C60   C     C_R   0.699636 0.907325 0.493992 -0.151317
C61   C     C_R   0.732125 0.862033 0.585168 -0.103969
C62   C     C_R   0.769215 0.699533 0.598350 -0.084895
C63   C     C_R   0.772212 0.578470 0.521131 -0.134698
C64   C     C_R   0.739649 0.622864 0.429735 -0.102755
H21   H     H_    0.673810 0.038561 0.483952 0.118806
H22   H     H_    0.729735 0.954974 0.645203 0.134409
H23   H     H_    0.795793 0.668037 0.668476 0.113142
H24   H     H_    0.800511 0.451603 0.531840 0.105972
H25   H     H_    0.743548 0.530360 0.369942 0.114951
C65   C     C_R   0.295918 0.289627 0.584921 0.066344
C66   C     C_R   0.300363 0.407323 0.506008 -0.151317
C67   C     C_R   0.267874 0.362030 0.414832 -0.103970
C68   C     C_R   0.230784 0.199530 0.401651 -0.084897
C69   C     C_R   0.227787 0.078468 0.478870 -0.134698
C70   C     C_R   0.260351 0.122864 0.570266 -0.102754
H26   H     H_    0.326190 0.538559 0.516047 0.118807
H27   H     H_    0.270264 0.454969 0.354796 0.134411
H28   H     H_    0.204205 0.168033 0.331525 0.113140
H29   H     H_    0.199487 0.951602 0.468161 0.105972
H30   H     H_    0.256452 0.030361 0.630058 0.114951
C71   C     C_2   0.816551 0.742833 0.012936 0.794951
O25   O     O_2   0.823200 0.574125 0.005746 -0.564428
O26   O     O_R   0.832533 0.866704 0.943474 -0.642483
H31   H     H_    0.847009 0.800976 0.886933 0.294677
C72   C     C_2   0.183449 0.242847 0.987065 0.794941
O27   O     O_2   0.176797 0.074140 0.994252 -0.564427
O28   O     O_R   0.167470 0.366719 0.056530 -0.642481
H32   H     H_    0.152993 0.300993 0.113069 0.294675

loop_
_geom_bond_atom_site_label_1
_geom_bond_atom_site_label_2
_ccdc_geom_bond_type
C24   C26   A    
C49   C50   A    
O13   C41   A    
C9    C31   A    
C13   C15   A    
C6    C53   S    
C59   C64   A    
C33   C35   T    
C63   C64   A    
O1    C3    A    
O2    C4    A    
C2    O7    A    
C11   H7    S    
C54   C55   A    
C52   H15   S    
C45   O21   D    
O5    C3    A    
C57   H19   S    
O20   V4    S    
C5    C47   S    
C21   C23   A    
C10   C12   A    
C12   H8    S    
C48   H11   S    
C47   C48   A    
C64   H25   S    
C37   C39   T    
C42   O17   A    
C38   C40   T    
C55   H17   S    
C15   C19   A    
C69   H29   S    
C60   C61   A    
C51   H14   S    
C62   C63   A    
C46   O24   S    
C7    C29   A    
C14   H6    S    
C8    C30   A    
C34   C43   S    
O24   H10   S    
C36   C38   S    
C20   C28   A    
C59   C60   A    
C63   H24   S    
O15   C43   A    
C54   H16   S    
O16   C44   A    
O11   C43   A    
O5    V1    S    
C56   H18   S    
O6    V2    S    
C49   H12   S    
C65   C66   A    
O19   V3    S    
H2    C30   S    
H1    C29   S    
C46   O23   D    
C45   O22   S    
O11   V4    S    
C34   C36   T    
C9    H3    S    
O20   V3    S    
C16   C20   A    
C10   H4    S    
O28   H32   S    
C32   C41   S    
O4    C2    A    
C67   H27   S    
C28   C65   S    
C25   C71   S    
C66   H26   S    
C23   C45   S    
C4    C7    S    
O14   C42   A    
C60   H21   S    
O4    V2    S    
C5    C29   A    
C6    C30   A    
C41   O18   A    
C56   C57   A    
O6    C4    A    
C53   C54   A    
O14   V4    S    
O12   C44   A    
O1    V2    S    
C66   C67   A    
O2    V1    S    
C68   C69   A    
C61   H22   S    
C7    C27   A    
C35   C37   S    
C24   C46   S    
O18   V4    S    
C72   O27   D    
O19   V4    S    
O12   V3    S    
C11   C13   A    
O26   H31   S    
O3    V1    S    
C67   C68   A    
C71   O25   D    
C58   H20   S    
C50   H13   S    
C27   C59   S    
C1    C40   S    
C48   C49   A    
C18   C32   A    
C2    C39   S    
O3    C1    A    
C47   C52   A    
C69   C70   A    
O16   V4    S    
C26   C72   S    
C3    C8    S    
C12   C14   A    
C19   C27   A    
C22   C24   A    
O7    V1    S    
C10   C32   A    
C1    O8    A    
C23   C25   A    
O8    V2    S    
C61   C62   A    
C16   C18   A    
C70   H30   S    
C8    C28   A    
O13   V3    S    
C14   C16   A    
C57   C58   A    
C19   C21   A    
C17   C25   A    
O17   V3    S    
C20   C22   A    
C65   C70   A    
C18   C26   A    
O22   H9    S    
C68   H28   S    
C9    C11   A    
O15   V3    S    
C50   C51   A    
C15   C17   A    
C55   C56   A    
C17   C31   A    
O9    V2    S    
C31   C42   S    
C72   O28   S    
O10   V1    S    
C5    C21   A    
C51   C52   A    
C53   C58   A    
C33   C44   S    
C6    C22   A    
C62   H23   S    
C13   H5    S    
C71   O26   S    
