data_mof_unit_60129.cif
_audit_creation_date              2012-12-10T18:50:18-0500
_audit_creation_method            fapswitch 2.2
_symmetry_space_group_name_H-M    P1
_symmetry_Int_Tables_number       1
_space_group_crystal_system       triclinic
_cell_length_a                    15.874021
_cell_length_b                    19.403993
_cell_length_c                    18.133949
_cell_angle_alpha                 90.143245
_cell_angle_beta                  90.048084
_cell_angle_gamma                 90.214189
_cell_volume                      5585.54945575

loop_
_atom_site_label
_atom_site_type_symbol
_atom_type_description
_atom_site_fract_x
_atom_site_fract_y
_atom_site_fract_z
_atom_type_partial_charge
C1    C     C_R   0.499911 0.367386 0.499913 0.809681
C2    C     C_R   0.500089 0.632614 0.500087 0.809678
C3    C     C_R   0.500611 0.816856 0.434561 -0.141555
C4    C     C_R   0.499533 0.183143 0.565437 -0.141505
C5    C     C_R   0.498935 0.852718 0.501600 0.066116
C6    C     C_R   0.501082 0.147282 0.498393 0.066127
C7    C     C_R   0.498094 0.816447 0.568565 0.193836
C8    C     C_R   0.501792 0.183555 0.431427 0.193789
C9    C     C_R   0.498609 0.744583 0.567700 -0.197731
C10   C     C_R   0.501272 0.255418 0.432295 -0.197722
C11   C     C_R   0.499990 0.708369 0.500521 -0.079228
C12   C     C_R   0.500014 0.291632 0.499478 -0.079234
C13   C     C_R   0.574563 0.963527 0.511721 -0.188244
C14   C     C_R   0.425457 0.036472 0.488271 -0.188195
C15   C     C_R   0.576406 0.035345 0.511233 0.199636
C16   C     C_R   0.423614 0.964654 0.488757 0.199701
C17   C     C_R   0.501411 0.071949 0.499340 0.006826
C18   C     C_R   0.498609 0.928050 0.500651 0.006809
C19   C     C_R   0.446427 0.457299 0.720683 0.101908
C20   C     C_R   0.553487 0.542769 0.279319 0.101930
C21   C     C_R   0.445619 0.455927 0.798129 -0.191986
C22   C     C_R   0.554294 0.544144 0.201872 -0.191991
C23   C     C_R   0.339622 0.499955 0.499948 0.830860
C24   C     C_R   0.660378 0.500044 0.500052 0.830855
C25   C     C_R   0.500824 0.498461 0.838515 0.143546
C26   C     C_R   0.499169 0.501544 0.161484 0.143557
C27   C     C_R   0.554482 0.542759 0.799003 -0.247352
C28   C     C_R   0.445602 0.457174 0.200996 -0.247403
C29   C     C_R   0.553336 0.542539 0.721495 0.098198
C30   C     C_R   0.446750 0.457393 0.278505 0.098226
C31   C     C_R   0.488588 0.560466 0.959796 -0.225896
C32   C     C_R   0.511401 0.439540 0.040197 -0.225915
C33   C     C_R   0.487140 0.562576 0.037344 0.288047
C34   C     C_R   0.512839 0.437431 0.962649 0.288092
C35   C     C_R   0.499083 0.501700 0.078734 -0.011510
C36   C     C_R   0.500906 0.498307 0.921262 -0.011562
C37   C     C_3   0.971647 0.440533 0.529353 -0.212012
C38   C     C_3   0.028353 0.559467 0.470648 -0.212010
C39   C     C_3   0.027775 0.446354 0.459518 -0.218030
C40   C     C_3   0.972225 0.553645 0.540482 -0.218038
C41   C     C_1   0.249960 0.499960 0.499828 -0.139764
C42   C     C_1   0.750040 0.500039 0.500173 -0.139769
C43   C     C_3   0.027909 0.494234 0.568856 0.331252
C44   C     C_3   0.972091 0.505765 0.431144 0.331255
C45   C     C_3   0.082823 0.499996 0.499740 0.058632
C46   C     C_3   0.917176 0.500004 0.500260 0.058630
C47   C     C_1   0.174450 0.499976 0.499728 0.035208
C48   C     C_1   0.825550 0.500024 0.500272 0.035201
C49   C     C_R   0.501053 0.745111 0.433933 -0.163961
C50   C     C_R   0.499085 0.254888 0.566068 -0.163945
Cu1   Cu    Cu3+1 0.499980 0.500000 0.573360 0.970163
Cu2   Cu    Cu3+1 0.500020 0.500000 0.426640 0.970186
H1    H     H_    0.051500 0.402671 0.425889 0.181814
H2    H     H_    0.948500 0.597328 0.574111 0.181810
H3    H     H_    0.404012 0.424067 0.690147 0.133109
H4    H     H_    0.595836 0.576054 0.309854 0.133055
H5    H     H_    0.401792 0.422176 0.826290 0.172310
H6    H     H_    0.598057 0.577948 0.173718 0.172336
H7    H     H_    0.597543 0.576811 0.827908 0.156932
H8    H     H_    0.402612 0.423067 0.172095 0.156925
H9    H     H_    0.595289 0.576467 0.691585 0.128652
H10   H     H_    0.404868 0.423410 0.308413 0.128629
H11   H     H_    0.478431 0.607647 0.929288 0.190488
H12   H     H_    0.521559 0.392359 0.070703 0.190465
H13   H     H_    0.947450 0.392000 0.553910 0.185479
H14   H     H_    0.052550 0.607999 0.446091 0.185481
H15   H     H_    0.502215 0.718506 0.381378 0.172657
H16   H     H_    0.498025 0.281494 0.618627 0.172711
H17   H     H_    0.501448 0.844575 0.382771 0.172522
H18   H     H_    0.498799 0.155422 0.617228 0.172536
H19   H     H_    0.497667 0.717227 0.619668 0.175063
H20   H     H_    0.502109 0.282777 0.380325 0.175018
H21   H     H_    0.632336 0.935223 0.520712 0.178560
H22   H     H_    0.367683 0.064775 0.479279 0.178568
N1    N     N_R   0.499990 0.500020 0.683620 -0.180549
N2    N     N_R   0.500010 0.499980 0.316380 -0.180545
O1    O     O_R   0.499960 0.400180 0.561980 -0.586569
O2    O     O_R   0.500040 0.599820 0.438020 -0.586600
O3    O     O_R   0.500000 0.400190 0.438070 -0.588639
O4    O     O_R   0.500000 0.599810 0.561930 -0.588608
O5    O     O_R   0.379060 0.499990 0.561940 -0.571127
O6    O     O_R   0.620940 0.500010 0.438060 -0.571074
O7    O     O_R   0.379100 0.500000 0.438040 -0.578822
O8    O     O_R   0.620900 0.500000 0.561960 -0.578877
Br1   Br    Br    0.463000 0.649396 0.083494 -0.462074
Br2   Br    Br    0.536936 0.350607 0.916487 -0.462043
Br3   Br    Br    0.930692 0.514145 0.331124 -0.453089
Br4   Br    Br    0.069308 0.485854 0.668876 -0.453124
I1    I     I_    0.494386 0.867275 0.672234 -0.278832
I2    I     I_    0.505324 0.132731 0.327748 -0.278887
I3    I     I_    0.693933 0.085535 0.527223 -0.264578
I4    I     I_    0.306092 0.914461 0.472755 -0.264473

loop_
_geom_bond_atom_site_label_1
_geom_bond_atom_site_label_2
_ccdc_geom_bond_type
C27   C29   A    
C1    O1    A    
C20   H4    S    
C4    H18   S    
C3    C49   A    
C19   N1    A    
C24   C42   S    
C40   C46   S    
C23   O7    A    
C13   C18   A    
C11   C49   A    
C43   Br4   S    
C14   H22   S    
C19   C21   A    
Cu1   N1    S    
C7    I1    S    
C30   N2    A    
C20   N2    A    
C7    C9    A    
C34   Br2   S    
C33   Br1   S    
Cu1   O4    S    
C38   C45   S    
C24   O6    A    
C40   C43   S    
C38   H14   S    
C37   H13   S    
C31   C33   A    
C44   Br3   S    
C23   O5    A    
Cu1   O5    S    
C39   C45   S    
C45   C47   S    
C14   C17   A    
C1    C12   S    
Cu2   O2    S    
C2    C11   S    
C44   C46   S    
C46   C48   S    
C28   H8    S    
C29   H9    S    
Cu1   Cu2   S    
C32   C35   A    
C31   H11   S    
C32   H12   S    
C4    C6    A    
C5    C7    A    
C6    C8    A    
C5    C18   S    
Cu2   N2    S    
C4    C50   A    
C32   C34   A    
C37   C43   S    
Cu2   O7    S    
Cu1   O1    S    
C38   C44   S    
C2    O2    A    
C9    C11   A    
C41   C47   T    
C42   C48   T    
Cu2   O6    S    
C43   C45   S    
C10   C12   A    
C16   C18   A    
C20   C22   A    
C16   I4    S    
C40   H2    S    
C13   C15   A    
C1    O3    A    
C14   C16   A    
C8    I2    S    
Cu2   O3    S    
C19   H3    S    
C15   C17   A    
C6    C17   S    
C21   C25   A    
C49   H15   S    
C3    H17   S    
C9    H19   S    
C13   H21   S    
C3    C5    A    
C22   H6    S    
C12   C50   A    
C39   C44   S    
C29   N1    A    
C25   C27   A    
C21   H5    S    
C26   C28   A    
C23   C41   S    
C30   H10   S    
C24   O8    A    
C37   C39   S    
C27   H7    S    
C38   C40   S    
C39   H1    S    
C28   C30   A    
C33   C35   A    
C34   C36   A    
C2    O4    A    
C25   C36   S    
C15   I3    S    
C26   C35   S    
C8    C10   A    
C22   C26   A    
C31   C36   A    
C37   C46   S    
C50   H16   S    
Cu1   O8    S    
C10   H20   S    
