data_mof_unit_35430.cif
_audit_creation_date              2012-12-11T14:58:35-0500
_audit_creation_method            fapswitch 2.2
_symmetry_space_group_name_H-M    P1
_symmetry_Int_Tables_number       1
_space_group_crystal_system       triclinic
_cell_length_a                    10.937449
_cell_length_b                    10.883573
_cell_length_c                    18.806055
_cell_angle_alpha                 90.157042
_cell_angle_beta                  90.103556
_cell_angle_gamma                 60.0194
_cell_volume                      1939.09482896

loop_
_atom_site_label
_atom_site_type_symbol
_atom_type_description
_atom_site_fract_x
_atom_site_fract_y
_atom_site_fract_z
_atom_type_partial_charge
C1    C     C_R   0.358754 0.774471 0.398124 0.575408
C2    C     C_R   0.238656 0.436251 0.201413 0.436391
C3    C     C_R   0.242557 0.443623 0.275279 0.034500
C4    C     C_R   0.389640 0.356661 0.386520 0.622298
C5    C     C_R   0.883311 0.776206 0.386181 0.322304
C6    C     C_R   0.943537 0.636259 0.409576 0.421975
C7    C     C_R   0.053496 0.526296 0.371115 0.316509
C8    C     C_R   0.113940 0.557293 0.312473 0.025603
C9    C     C_R   0.368761 0.345745 0.310724 -0.018609
C10   C     C_R   0.904520 0.316005 0.307769 -0.017947
C11   C     C_R   0.950871 0.297619 0.238111 0.305387
C12   C     C_R   0.613540 0.127857 0.161769 0.108696
C13   C     C_R   0.852915 0.342470 0.182430 0.052127
C14   C     C_R   0.707794 0.416649 0.196498 0.294621
C15   C     C_R   0.661409 0.438621 0.266734 -0.118429
C16   C     C_R   0.712578 0.416158 0.394795 0.529778
C17   C     C_R   0.760131 0.387627 0.322071 -0.064553
C18   C     C_R   0.468319 0.799630 0.288416 -0.190941
C19   C     C_R   0.456288 0.824559 0.215453 -0.147938
C20   C     C_R   0.322497 0.890283 0.184706 0.017421
C21   C     C_R   0.201439 0.943903 0.227840 0.044281
C22   C     C_R   0.213044 0.922635 0.300147 0.421670
C23   C     C_R   0.355493 0.332440 0.162725 -0.012625
C24   C     C_R   0.346217 0.841160 0.329898 0.050956
C25   C     C_R   0.363346 0.204112 0.692870 0.362404
C26   C     C_R   0.350541 0.190491 0.764895 -0.145291
C27   C     C_R   0.300102 0.309504 0.809894 0.014481
C28   C     C_R   0.344953 0.768784 0.604856 0.593607
C29   C     C_R   0.252258 0.444403 0.782191 0.421968
C30   C     C_R   0.262735 0.458615 0.709730 -0.140152
C31   C     C_R   0.323561 0.337622 0.665497 -0.028240
C32   C     C_R   0.903734 0.396062 0.707046 -0.090954
C33   C     C_R   0.937756 0.380596 0.778317 0.309607
C34   C     C_R   0.489242 0.250947 0.271116 0.306721
C35   C     C_R   0.915042 0.287583 0.820646 0.014334
C36   C     C_R   0.861841 0.206191 0.789268 0.317635
C37   C     C_R   0.824571 0.224839 0.717546 -0.066089
C38   C     C_R   0.840528 0.324021 0.677029 -0.087081
C39   C     C_R   0.193005 0.859871 0.711084 0.346171
C40   C     C_R   0.368989 0.350847 0.595597 0.601477
C41   C     C_R   0.183150 0.869071 0.784195 -0.109203
C42   C     C_R   0.300713 0.842287 0.825472 -0.022439
C43   C     C_R   0.430984 0.799842 0.792898 0.346503
C44   C     C_R   0.441852 0.787859 0.719626 -0.116991
C45   C     C_R   0.484473 0.242109 0.197938 -0.040967
C46   C     C_R   0.323387 0.816599 0.678222 -0.018658
C47   C     C_R   0.906480 0.318022 0.110716 0.635122
C48   C     C_R   0.328484 0.295099 0.092198 0.583472
C49   C     C_R   0.299696 0.912880 0.108826 0.601372
C50   C     C_R   0.946361 0.281409 0.896643 0.585118
C51   C     C_R   0.294234 0.286727 0.884718 0.586790
C52   C     C_R   0.768184 0.373616 0.609141 0.565583
C53   C     C_R   0.276212 0.892510 0.898247 0.587161
C54   C     C_R   0.846452 0.907841 0.090475 -0.050077
C55   C     C_R   0.786160 0.047202 0.066063 -0.090444
C56   C     C_R   0.053092 0.699877 0.290297 0.314279
C57   C     C_R   0.671765 0.157200 0.101992 -0.062281
C58   C     C_R   0.936762 0.807518 0.326040 -0.088325
C59   C     C_R   0.674372 0.986412 0.185293 -0.059878
C60   C     C_R   0.790464 0.877467 0.150047 -0.093985
Cr1   Cr    Cr6+3 0.601770 0.606860 0.505860 1.161717
Cr2   Cr    Cr6+3 0.291380 0.601660 0.495070 1.124806
Cr3   Cr    Cr6+3 0.606880 0.291510 0.499120 1.204673
Cr4   Cr    Cr6+3 0.062440 0.063090 0.008210 1.057794
Cr5   Cr    Cr6+3 0.062880 0.375170 0.998920 1.182735
Cr6   Cr    Cr6+3 0.374700 0.061720 0.992470 1.103668
F1    F     F_    0.616677 0.168946 0.303072 -0.607703
F2    F     F_    0.983452 0.464981 0.806793 -0.570368
F3    F     F_    0.835724 0.117243 0.828426 -0.594511
F4    F     F_    0.075628 0.890339 0.672930 -0.573052
F5    F     F_    0.546816 0.772267 0.831679 -0.564003
F6    F     F_    0.107948 0.735563 0.234791 -0.607501
F7    F     F_    0.114541 0.523934 0.168017 -0.578810
F8    F     F_    0.774830 0.882169 0.422658 -0.539233
F9    F     F_    0.899620 0.608002 0.471581 -0.529756
F10   F     F_    0.108457 0.391047 0.394506 -0.597824
F11   F     F_    0.090747 0.241429 0.224809 -0.650434
F12   F     F_    0.612277 0.471646 0.142903 -0.653173
F13   F     F_    0.094341 0.973336 0.340209 -0.614891
F14   F     F_    0.419603 0.087106 0.650625 -0.586727
F15   F     F_    0.201066 0.560095 0.825164 -0.573500
H1    H     H_    0.081259 0.903471 0.808165 0.246977
H2    H     H_    0.232629 0.562813 0.689139 0.189536
H3    H     H_    0.917513 0.472729 0.676626 0.206483
H4    H     H_    0.774694 0.168978 0.695172 0.210404
H5    H     H_    0.890416 0.916204 0.308145 0.245147
H6    H     H_    0.544463 0.751107 0.695733 0.207948
H7    H     H_    0.827306 0.069767 0.018772 0.177373
H8    H     H_    0.624966 0.263895 0.081401 0.183189
H9    H     H_    0.630717 0.960116 0.230498 0.154449
H10   H     H_    0.935531 0.823213 0.062756 0.172415
H11   H     H_    0.980526 0.276676 0.350656 0.253823
H12   H     H_    0.549283 0.496563 0.278056 0.123031
H13   H     H_    0.572912 0.738209 0.311128 0.149509
H14   H     H_    0.550159 0.786027 0.183002 0.154653
H15   H     H_    0.096210 0.000461 0.205348 0.190624
H16   H     H_    0.835929 0.769234 0.168509 0.176236
H17   H     H_    0.382717 0.086099 0.785868 0.180156
O1    O     O_R   0.748800 0.497470 0.428000 -0.434225
O2    O     O_R   0.417600 0.174890 0.067840 -0.537020
O3    O     O_R   0.375320 0.946260 0.070860 -0.487727
O4    O     O_R   0.476420 0.724060 0.429470 -0.517346
O5    O     O_R   0.160600 0.919630 0.926660 -0.507246
O6    O     O_R   0.933060 0.190520 0.936020 -0.473593
O7    O     O_R   0.908880 0.403460 0.925020 -0.416940
O8    O     O_R   0.179600 0.361450 0.918490 -0.434325
O9    O     O_R   0.391510 0.170860 0.907530 -0.512120
O10   O     O_R   0.351130 0.942530 0.922260 -0.447823
O11   O     O_3   0.166667 0.166667 0.999870 -0.339598
O12   O     O_R   0.300070 0.471040 0.567100 -0.504449
O13   O     O_R   0.264580 0.744340 0.416750 -0.465293
O14   O     O_R   0.309380 0.472470 0.418200 -0.522786
O15   O     O_R   0.501710 0.260430 0.414300 -0.392058
O16   O     O_R   0.728090 0.305600 0.428960 -0.426960
O17   O     O_R   0.738760 0.495930 0.588610 -0.469921
O18   O     O_R   0.467110 0.722640 0.578360 -0.496147
O19   O     O_R   0.254530 0.742800 0.577360 -0.433513
O20   O     O_R   0.491670 0.258900 0.574910 -0.437325
O21   O     O_R   0.718780 0.304180 0.577850 -0.492715
O22   O     O_3   0.500010 0.500010 0.500020 -0.358146
O23   O     O_R   0.186690 0.923650 0.086970 -0.501917
O24   O     O_R   0.957250 0.194250 0.084630 -0.532770
O25   O     O_R   0.934970 0.407490 0.085330 -0.451110
O26   O     O_R   0.203780 0.365190 0.067090 -0.414423

loop_
_geom_bond_atom_site_label_1
_geom_bond_atom_site_label_2
_ccdc_geom_bond_type
C25   C31   A    
Cr4   O5    S    
C40   O20   A    
C50   O6    A    
C23   C45   A    
C27   C29   A    
C25   F14   S    
C41   C42   A    
C35   C36   A    
Cr6   O9    S    
C8    C56   A    
C6    F9    S    
C39   C41   A    
C54   C60   A    
C28   C46   S    
C26   C27   A    
C37   C38   A    
C57   H8    S    
C5    C58   A    
C18   C24   A    
C37   H4    S    
C36   C37   A    
C22   F13   S    
C28   O19   A    
C42   C53   S    
C49   O3    A    
C30   C31   A    
C38   C52   S    
C10   C17   A    
Cr4   O23   S    
C55   H7    S    
C31   C40   S    
C15   C17   A    
C18   C19   A    
Cr5   O26   S    
Cr6   O2    S    
C30   H2    S    
C5    F8    S    
Cr2   O19   S    
C11   F11   S    
C12   C59   A    
Cr2   O13   S    
C19   C20   A    
C27   C51   S    
C16   C17   S    
C56   F6    S    
Cr1   O17   S    
C50   O7    A    
C32   C38   A    
C29   C30   A    
C28   O18   A    
Cr2   O22   S    
Cr5   O25   S    
C4    O14   A    
C10   H11   S    
C59   C60   A    
C21   C22   A    
Cr1   O22   S    
Cr3   O16   S    
Cr6   O3    S    
Cr1   O1    S    
C35   C50   S    
C48   O2    A    
C58   H5    S    
Cr5   O7    S    
C44   C46   A    
C32   H3    S    
C4    O15   A    
C7    C8    A    
C3    C8    S    
C13   C47   S    
Cr3   O20   S    
C47   O24   A    
C40   O12   A    
C25   C26   A    
C59   H9    S    
C43   C44   A    
C29   F15   S    
C20   C49   S    
C3    C9    A    
Cr3   O21   S    
C47   O25   A    
Cr2   O12   S    
C49   O23   A    
Cr1   O18   S    
C34   C45   A    
Cr5   O11   S    
C6    C7    A    
C2    F7    S    
C26   H17   S    
C39   C46   A    
C12   C57   A    
C60   H16   S    
C55   C57   A    
C9    C34   A    
C18   H13   S    
C22   C24   A    
C42   C43   A    
C44   H6    S    
Cr5   O8    S    
C19   H14   S    
C36   F3    S    
C52   O17   A    
Cr4   O6    S    
C54   C55   A    
C43   F5    S    
C23   C48   S    
Cr6   O10   S    
C12   C45   S    
C16   O16   A    
C34   F1    S    
C15   H12   S    
C16   O1    A    
C7    F10   S    
C21   H15   S    
C32   C33   A    
Cr1   O4    S    
C54   H10   S    
C1    O13   A    
Cr3   O22   S    
C11   C13   A    
C53   O10   A    
Cr4   O11   S    
C5    C6    A    
C53   O5    A    
C51   O8    A    
Cr4   O24   S    
C41   H1    S    
C33   C35   A    
C39   F4    S    
C56   C58   A    
C2    C3    A    
C14   F12   S    
Cr6   O11   S    
C10   C11   A    
Cr3   O15   S    
C52   O21   A    
Cr2   O14   S    
C20   C21   A    
C1    C24   S    
C51   O9    A    
C48   O26   A    
C2    C23   A    
C14   C15   A    
C4    C9    S    
C13   C14   A    
C1    O4    A    
C33   F2    S    
