data_mof_unit_5364.cif
_audit_creation_date              2012-12-10T17:02:11-0500
_audit_creation_method            fapswitch 2.2
_symmetry_space_group_name_H-M    P1
_symmetry_Int_Tables_number       1
_space_group_crystal_system       triclinic
_cell_length_a                    10.612698
_cell_length_b                    10.693562
_cell_length_c                    10.024115
_cell_angle_alpha                 89.893817
_cell_angle_beta                  89.948823
_cell_angle_gamma                 90.580939
_cell_volume                      1137.55129021

loop_
_atom_site_label
_atom_site_type_symbol
_atom_type_description
_atom_site_fract_x
_atom_site_fract_y
_atom_site_fract_z
_atom_type_partial_charge
C1    C     C_R   0.495520 0.261965 0.500314 0.764027
C2    C     C_2   0.484421 0.127940 0.499210 0.325882
C3    C     C_2   0.578300 0.568202 0.923586 0.509963
C4    C     C_R   0.260455 0.498306 0.500037 0.871959
C5    C     C_2   0.561509 0.581477 0.074243 -0.296426
C6    C     C_R   0.509153 0.736980 0.499829 0.916409
C7    C     C_R   0.739390 0.499461 0.499828 0.866288
C8    C     C_R   0.127650 0.271343 0.575306 -0.221074
C9    C     C_R   0.060593 0.163244 0.610078 -0.140333
C10   C     C_R   0.928756 0.162551 0.609926 0.227399
C11   C     C_R   0.864957 0.271984 0.575262 -0.229126
C12   C     C_R   0.063956 0.381603 0.539365 0.076575
C13   C     C_R   0.932134 0.381887 0.539236 0.059761
C14   C     C_3   0.416850 0.090076 0.716988 0.083359
C15   C     C_3   0.362737 0.982646 0.799684 -0.841576
C16   C     C_3   0.783562 0.645619 0.928556 0.074683
C17   C     C_3   0.891690 0.674624 0.833363 -0.796056
C18   C     C_3   0.856425 0.045172 0.646107 -0.432355
C19   C     C_3   0.868560 0.946206 0.537465 -0.876497
C20   C     C_R   0.127980 0.491712 0.499824 -0.079498
C21   C     C_R   0.065503 0.597994 0.456710 -0.203140
C22   C     C_R   0.936641 0.598033 0.455890 -0.230322
C23   C     C_R   0.871384 0.492160 0.499111 -0.082168
C24   C     C_2   0.533909 0.933989 0.388397 -0.142163
C25   C     C_2   0.538317 0.866860 0.500090 -0.256450
C26   C     C_2   0.541531 0.068253 0.398510 -0.255503
H1    H     H_    0.116801 0.681176 0.425108 0.150212
H2    H     H_    0.563130 0.909124 0.594988 0.177705
H3    H     H_    0.595844 0.118085 0.322881 0.137677
H4    H     H_    0.366693 0.176393 0.746573 0.170216
H5    H     H_    0.518988 0.099522 0.741754 0.130572
H6    H     H_    0.411878 0.894295 0.776012 0.268178
H7    H     H_    0.375235 0.003008 0.907481 0.209268
H8    H     H_    0.260684 0.970357 0.778826 0.251242
H9    H     H_    0.805834 0.556432 0.981065 0.140065
H10   H     H_    0.778109 0.723219 0.001891 0.134556
H11   H     H_    0.872920 0.762364 0.777943 0.254741
H12   H     H_    0.425723 0.459793 0.899342 0.103871
H13   H     H_    0.980708 0.686140 0.890363 0.205642
H14   H     H_    0.902933 0.596792 0.761462 0.266639
H15   H     H_    0.834070 0.983267 0.440687 0.266738
H16   H     H_    0.968168 0.917029 0.526459 0.260431
H17   H     H_    0.810932 0.862787 0.564569 0.247858
H18   H     H_    0.892318 0.007588 0.742109 0.202223
H19   H     H_    0.754761 0.065569 0.660226 0.195698
H20   H     H_    0.606157 0.660114 0.124009 0.166834
H21   H     H_    0.468392 0.421489 0.102242 0.156369
H22   H     H_    0.229256 0.267382 0.574685 0.162371
H23   H     H_    0.111532 0.079573 0.636202 0.167043
H24   H     H_    0.763071 0.269688 0.574052 0.128538
H25   H     H_    0.887466 0.681025 0.423274 0.146319
H26   H     H_    0.520580 0.891884 0.290802 0.165302
N1    N     N_2   0.501340 0.501330 0.852150 -0.217003
N2    N     N_2   0.501380 0.501360 0.147810 -0.197508
O1    O     O_R   0.499980 0.319060 0.613040 -0.651404
O2    O     O_3   0.669915 0.637192 0.855470 -0.569567
O3    O     O_R   0.500020 0.319100 0.386900 -0.619405
O4    O     O_R   0.316750 0.499980 0.613090 -0.620161
O5    O     O_R   0.316790 0.500020 0.386950 -0.598741
O6    O     O_R   0.499980 0.680900 0.613100 -0.580478
O7    O     O_R   0.500020 0.680940 0.386960 -0.617747
O8    O     O_R   0.683210 0.499980 0.613050 -0.568577
O9    O     O_R   0.683250 0.500020 0.386910 -0.613516
O10   O     O_3   0.396456 0.065543 0.579972 -0.615983
Zn1   Zn    Zn3+2 0.499970 0.499970 0.650990 0.968455
Zn2   Zn    Zn3+2 0.500030 0.500030 0.349010 0.941706

loop_
_geom_bond_atom_site_label_1
_geom_bond_atom_site_label_2
_ccdc_geom_bond_type
C24   H26   S    
C16   O2    S    
C7    O8    A    
N2    Zn2   S    
C18   H18   S    
C8    C9    A    
C19   H17   S    
N1    Zn1   S    
C9    C10   A    
O3    Zn2   S    
C15   H8    S    
C19   H16   S    
C14   H5    S    
C8    C12   A    
C14   O10   S    
C12   C20   A    
C8    H22   S    
C21   H1    S    
O9    Zn2   S    
C15   H6    S    
C2    C26   D    
C11   H24   S    
C17   H11   S    
C21   C22   A    
C16   H10   S    
C25   H2    S    
C12   C13   A    
C3    N1    D    
C7    O9    A    
H12   N1    S    
C14   H4    S    
H21   N2    S    
C7    C23   S    
C6    O7    A    
C16   H9    S    
O1    Zn1   S    
C13   C23   A    
C24   C26   S    
O6    Zn1   S    
C1    C2    S    
C1    O3    A    
O5    Zn2   S    
C1    O1    A    
C10   C18   S    
C6    C25   S    
C10   C11   A    
C4    C20   S    
C18   H19   S    
C6    O6    A    
C5    N2    D    
C11   C13   A    
C9    H23   S    
C24   C25   D    
C4    O5    A    
C26   H3    S    
C18   C19   S    
C3    O2    S    
C4    O4    A    
C17   H13   S    
C14   C15   S    
C16   C17   S    
O4    Zn1   S    
O8    Zn1   S    
C3    C5    S    
C20   C21   A    
C22   C23   A    
O7    Zn2   S    
C15   H7    S    
C19   H15   S    
C2    O10   S    
C22   H25   S    
C5    H20   S    
C17   H14   S    
