data_mof_unit_36351.cif
_audit_creation_date              2013-03-05T16:36:37-0500
_audit_creation_method            fapswitch 2.2
_symmetry_space_group_name_H-M    P1
_symmetry_Int_Tables_number       1
_space_group_crystal_system       triclinic
_cell_length_a                    17.824599
_cell_length_b                    9.081025
_cell_length_c                    7.908858
_cell_angle_alpha                 89.980874
_cell_angle_beta                  89.892048
_cell_angle_gamma                 90.092562
_cell_volume                      1280.16826048

loop_
_atom_site_label
_atom_site_type_symbol
_atom_site_description
_atom_site_fract_x
_atom_site_fract_y
_atom_site_fract_z
_atom_type_partial_charge
O1    O     O_R   0.500000 0.288390 0.642760 -0.574973
O2    O     O_R   0.500000 0.711610 0.357240 -0.574962
O3    O     O_R   0.500000 0.711610 0.642760 -0.575658
O4    O     O_R   0.500000 0.288390 0.357240 -0.573372
C1    C     C_R   0.499879 0.220526 0.500017 0.833615
C2    C     C_R   0.499856 0.779474 0.499985 0.831901
O5    O     O_R   0.391250 0.500000 0.642840 -0.580273
O6    O     O_R   0.608750 0.500000 0.357160 -0.582531
O7    O     O_R   0.608750 0.500000 0.642840 -0.582541
O8    O     O_R   0.391250 0.500000 0.357160 -0.572950
C3    C     C_1   0.499709 0.065507 0.500025 -0.172380
C4    C     C_1   0.499700 0.934492 0.499982 -0.172085
C5    C     C_R   0.356235 0.501161 0.500196 0.817151
C6    C     C_R   0.645179 0.500396 0.499831 0.806204
Cu1   Cu    Cu3+1 0.500000 0.500000 0.669080 0.993150
Cu2   Cu    Cu3+1 0.500000 0.500000 0.330920 0.995753
C7    C     C_R   0.849557 0.497820 0.650443 -0.002479
C8    C     C_R   0.156242 0.368480 0.463871 0.008472
C9    C     C_R   0.156130 0.631767 0.539138 -0.004531
C10   C     C_R   0.849479 0.509079 0.346993 -0.013204
C11   C     C_R   0.771060 0.477961 0.650757 0.055634
C12   C     C_R   0.235474 0.368851 0.463895 0.048742
C13   C     C_R   0.235378 0.631822 0.542221 0.105468
C14   C     C_R   0.770867 0.526838 0.347599 0.053876
C15   C     C_R   0.729684 0.501570 0.499365 -0.068218
C16   C     C_R   0.274180 0.500930 0.501014 -0.047540
C17   C     C_R   0.888677 0.503441 0.498470 -0.024944
C18   C     C_R   0.117385 0.499686 0.503576 -0.060263
C19   C     C_1   0.969587 0.502672 0.498193 0.162581
C20   C     C_1   0.036787 0.501366 0.499572 0.095976
N1    N     N_1   0.500000 0.500000 0.076820 -0.050938
N2    N     N_1   0.500000 0.500000 0.923180 -0.051054
C21   C     C_2   0.890559 0.525088 0.807638 0.349211
H1    H     H_    0.868642 0.606052 0.894813 0.088457
O9    O     O_2   0.949172 0.460760 0.837968 -0.494139
C22   C     C_2   0.114250 0.233235 0.414197 0.458454
H2    H     H_    0.134522 0.164896 0.311391 0.102607
O10   O     O_2   0.057186 0.195970 0.488535 -0.495805
C23   C     C_2   0.112294 0.769058 0.566770 0.408707
H3    H     H_    0.062378 0.766971 0.645586 0.089815
O11   O     O_2   0.128938 0.882973 0.493691 -0.530731
C24   C     C_2   0.890718 0.484892 0.189274 0.376103
H4    H     H_    0.869773 0.403259 0.101762 0.092691
O12   O     O_2   0.948568 0.552417 0.159131 -0.508138
C25   C     C_3   0.733354 0.423128 0.809224 -0.839315
H5    H     H_    0.773715 0.385349 0.905943 0.212817
H6    H     H_    0.698921 0.513231 0.862032 0.253266
H7    H     H_    0.697851 0.325812 0.780085 0.251097
C26   C     C_3   0.280268 0.228869 0.433262 -0.849751
H8    H     H_    0.321414 0.212990 0.536943 0.227107
H9    H     H_    0.245969 0.127243 0.431029 0.243615
H10   H     H_    0.310973 0.237659 0.311416 0.244519
C27   C     C_3   0.279904 0.767931 0.592542 -0.788809
H11   H     H_    0.245240 0.858679 0.643159 0.261297
H12   H     H_    0.319603 0.740370 0.695629 0.228387
H13   H     H_    0.312085 0.809421 0.481935 0.220568
C28   C     C_3   0.732784 0.581384 0.189872 -0.842840
H14   H     H_    0.772874 0.620679 0.092899 0.211450
H15   H     H_    0.698786 0.490645 0.136894 0.254711
H16   H     H_    0.696782 0.677600 0.220019 0.251020

loop_
_geom_bond_atom_site_label_1
_geom_bond_atom_site_label_2
_geom_bond_distance
_ccdc_geom_bond_type
O4    Cu2   1.932809 S    
C9    C13   1.412811 A    
O7    C6    1.303116 A    
C24   O12   1.221913 D    
C1    C3    1.407730 S    
C19   C20   1.197952 T    
O1    Cu1   1.932947 S    
C10   C17   1.388974 A    
C17   C19   1.442218 S    
C8    C12   1.412285 A    
O2    Cu2   1.932947 S    
C27   H12   1.109372 S    
C10   C24   1.463483 S    
N1    N2    1.215118 T    
C3    C4    1.189749 T    
C26   H10   1.110125 S    
O3    C2    1.286245 A    
O5    Cu1   1.949891 S    
C21   H1    1.081104 S    
O7    Cu1   1.949114 S    
C8    C18   1.414238 A    
Cu1   N2    2.009640 S    
C23   O11   1.220720 D    
O8    Cu2   1.949114 S    
C27   H11   1.105477 S    
Cu2   N1    2.009640 S    
C9    C18   1.411727 A    
C28   H14   1.105940 S    
O2    C2    1.286384 A    
C7    C21   1.464282 S    
C12   C26   1.521464 S    
O1    C1    1.286375 A    
C9    C23   1.488402 S    
C18   C20   1.437141 S    
C22   H2    1.084781 S    
C21   O9    1.221936 D    
C13   C27   1.521303 S    
C11   C25   1.505232 S    
C25   H6    1.105210 S    
C6    C15   1.506282 S    
C2    C4    1.407726 S    
C5    C16   1.462596 S    
C28   H15   1.105158 S    
C24   H4    1.080912 S    
C22   O10   1.221172 D    
C7    C17   1.389304 A    
C10   C14   1.410720 A    
O5    C5    1.290364 A    
O3    Cu1   1.932808 S    
C14   C15   1.424142 A    
O6    Cu2   1.949891 S    
C26   H8    1.110680 S    
C12   C16   1.413893 A    
C27   H13   1.110591 S    
C23   H3    1.085539 S    
C13   C16   1.414033 A    
C11   C15   1.423794 A    
C14   C28   1.505360 S    
C28   H16   1.110614 S    
O6    C6    1.302930 A    
C25   H7    1.110605 S    
C25   H5    1.105930 S    
C8    C22   1.490444 S    
C7    C11   1.410454 A    
Cu1   Cu2   2.674460 S    
O4    C1    1.286243 A    
C26   H9    1.106340 S    
O8    C5    1.291022 A    
