data_mof_unit_40444.cif
_audit_creation_date              2012-12-11T16:04:38-0500
_audit_creation_method            fapswitch 2.2
_symmetry_space_group_name_H-M    P1
_symmetry_Int_Tables_number       1
_space_group_crystal_system       triclinic
_cell_length_a                    19.953156
_cell_length_b                    19.985035
_cell_length_c                    19.936077
_cell_angle_alpha                 106.953045
_cell_angle_beta                  110.513819
_cell_angle_gamma                 110.842459
_cell_volume                      6121.17547362

loop_
_atom_site_label
_atom_site_type_symbol
_atom_type_description
_atom_site_fract_x
_atom_site_fract_y
_atom_site_fract_z
_atom_type_partial_charge
C1    C     C_R   0.067928 0.340723 0.070291 -0.170303
C2    C     C_R   0.069320 0.499141 0.227645 -0.080611
C3    C     C_R   0.206587 0.735617 0.166958 -0.040512
C4    C     C_R   0.930766 0.462206 0.764015 0.536100
C5    C     C_R   0.790744 0.455114 0.027073 -0.157280
C6    C     C_R   0.230893 0.741824 0.243259 0.060582
C7    C     C_R   0.752683 0.493226 0.996646 0.070551
C8    C     C_R   0.999637 0.456088 0.229723 0.079180
C9    C     C_R   0.000655 0.743045 0.017351 0.050996
C10   C     C_3   0.540504 0.565216 0.001732 0.032638
C11   C     C_3   0.479289 0.512895 0.020380 -0.255520
C12   C     C_R   0.000519 0.471844 0.758590 -0.152231
C13   C     C_1   0.363084 0.579889 0.077013 0.109858
C14   C     C_1   0.703317 0.516982 0.021276 -0.045571
C15   C     C_3   0.561922 0.643245 0.070153 0.564107
C16   C     C_R   0.772030 0.272261 0.843463 -0.120106
C17   C     C_3   0.501376 0.591800 0.089355 -0.009201
C18   C     C_3   0.633080 0.641010 0.132407 -0.252690
C19   C     C_3   0.609886 0.562076 0.063320 0.087029
C20   C     C_3   0.570555 0.588535 0.151417 -0.187245
C21   C     C_3   0.549260 0.509846 0.082332 -0.103139
C22   C     C_1   0.430370 0.593115 0.089917 0.066388
C23   C     C_R   0.724736 0.271147 0.773797 0.031962
C24   C     C_1   0.662963 0.538922 0.042626 -0.011293
C25   C     C_3   0.917102 0.405348 0.486226 0.015222
C26   C     C_3   0.019616 0.355568 0.512744 -0.620025
C27   C     C_3   0.025537 0.355380 0.436654 0.508514
C28   C     C_R   0.231609 0.576673 0.006445 0.443651
C29   C     C_1   0.999675 0.432332 0.289396 0.036527
C30   C     C_3   0.003895 0.424390 0.550245 -0.001100
C31   C     C_3   0.916871 0.398159 0.406642 -0.545572
C32   C     C_3   0.003526 0.418044 0.417000 -0.109682
C33   C     C_3   0.068266 0.506191 0.489870 0.184220
C34   C     C_R   0.278395 0.552747 0.051015 -0.146711
C35   C     C_3   0.076782 0.506526 0.570213 0.165794
C36   C     C_1   0.000993 0.419579 0.344223 0.220650
C37   C     C_1   0.004675 0.431293 0.624822 0.068222
C38   C     C_1   0.003181 0.446231 0.686313 0.169010
C39   C     C_3   0.403322 0.935191 0.521613 -0.566010
C40   C     C_R   0.768839 0.342403 0.775173 -0.060040
C41   C     C_3   0.356098 0.019535 0.466916 0.251212
C42   C     C_3   0.431710 0.102171 0.543036 0.164610
C43   C     C_1   0.641295 0.212152 0.715226 -0.023694
C44   C     C_3   0.384429 0.955137 0.449513 0.064143
C45   C     C_R   0.201461 0.665043 0.236088 -0.140128
C46   C     C_3   0.467090 0.014261 0.603550 0.013957
C47   C     C_3   0.503183 0.087185 0.586794 0.080312
C48   C     C_3   0.535354 0.067152 0.527049 -0.516408
C49   C     C_3   0.466458 0.988893 0.446412 -0.028622
C50   C     C_1   0.574565 0.158360 0.660076 0.090490
C51   C     C_1   0.322060 0.878610 0.376659 0.040954
C52   C     C_R   0.231886 0.506370 0.074710 0.073130
C53   C     C_1   0.278272 0.815264 0.316104 0.002063
C54   C     C_3   0.093257 0.105020 0.124837 0.261571
C55   C     C_3   0.952695 0.017664 0.986941 0.380194
C56   C     C_R   0.780316 0.514088 0.946991 0.133188
C57   C     C_3   0.962200 0.943802 0.984468 -0.481824
C58   C     C_1   0.001129 0.816416 0.044323 0.002434
C59   C     C_3   0.998067 0.083612 0.078838 0.082686
C60   C     C_3   0.090633 0.026156 0.126230 -0.430425
C61   C     C_3   0.000471 0.952270 0.071113 0.231070
C62   C     C_3   0.947783 0.965703 0.109120 -0.372992
C63   C     C_3   0.947149 0.044460 0.115069 -0.349011
C64   C     C_R   0.069652 0.523745 0.835050 -0.077443
C65   C     C_1   0.001109 0.878397 0.061835 -0.019364
C66   C     C_1   0.996371 0.155126 0.079100 -0.027233
C67   C     C_R   0.930270 0.429965 0.158332 -0.145156
C68   C     C_1   0.996615 0.209896 0.067160 0.028618
C69   C     C_R   0.929212 0.271842 0.999351 -0.078801
C70   C     C_R   0.997775 0.269655 0.043547 0.084170
C71   C     C_3   0.731386 0.522565 0.876076 -0.497527
C72   C     C_3   0.644444 0.446276 0.817211 -0.213663
C73   C     C_3   0.595968 0.453594 0.743923 -0.807640
C74   C     C_3   0.525794 0.548787 0.916348 -0.414171
C75   C     C_3   0.445111 0.543685 0.863436 -0.212747
C76   C     C_3   0.430727 0.524762 0.778046 -0.813082
C77   C     C_3   0.841154 0.329090 0.469185 -0.342802
C78   C     C_R   0.069702 0.735991 0.033036 -0.051169
C79   C     C_3   0.758136 0.323628 0.421733 -0.261225
C80   C     C_3   0.684875 0.247878 0.405094 -0.829719
C81   C     C_3   0.458190 0.001829 0.371369 -0.315318
C82   C     C_3   0.532569 0.011330 0.359622 -0.356667
C83   C     C_3   0.521707 0.020936 0.283945 -0.787246
C84   C     C_3   0.528754 0.003279 0.667072 -0.352608
C85   C     C_3   0.596589 0.995090 0.652072 -0.345497
C86   C     C_3   0.639617 0.965675 0.706342 -0.722789
C87   C     C_3   0.136591 0.127534 0.074919 -0.481706
C88   C     C_3   0.231894 0.163858 0.117459 -0.263368
C89   C     C_R   0.930787 0.666912 0.967722 -0.098317
C90   C     C_3   0.263472 0.170990 0.058846 -0.866163
C91   C     C_3   0.150168 0.179824 0.213793 -0.427095
C92   C     C_3   0.121175 0.182428 0.275933 -0.273511
C93   C     C_3   0.193233 0.244809 0.362658 -0.723489
C94   C     C_3   0.269275 0.495349 0.147531 -0.376762
C95   C     C_3   0.285324 0.424701 0.124676 -0.270812
C96   C     C_3   0.318613 0.409608 0.196811 -0.911639
H1    H     H_    0.129392 0.360971 0.116482 0.120596
H2    H     H_    0.581746 0.598670 0.213070 0.151661
H3    H     H_    0.376538 0.465705 0.249302 0.270951
H4    H     H_    0.271442 0.390243 0.215152 0.256378
H5    H     H_    0.333174 0.360803 0.179391 0.254851
H6    H     H_    0.227044 0.368122 0.073218 0.200103
H7    H     H_    0.331835 0.439160 0.104779 0.200760
H8    H     H_    0.329245 0.552276 0.195673 0.188721
H9    H     H_    0.228503 0.486425 0.174062 0.179784
H10   H     H_    0.697344 0.693056 0.177527 0.172054
H11   H     H_    0.868597 0.336823 0.354159 0.252931
H12   H     H_    0.078821 0.365473 0.558485 0.173808
H13   H     H_    0.970042 0.295779 0.497298 0.243199
H14   H     H_    0.090946 0.375500 0.452948 0.108454
H15   H     H_    0.751228 0.230982 0.866381 0.112657
H16   H     H_    0.135710 0.508158 0.603632 0.136803
H17   H     H_    0.042371 0.545557 0.479230 0.123675
H18   H     H_    0.909289 0.457518 0.510951 0.194798
H19   H     H_    0.866914 0.385041 0.136267 0.107533
H20   H     H_    0.899542 0.441006 0.390901 0.151226
H21   H     H_    0.430714 0.026255 0.631654 0.181852
H22   H     H_    0.345076 0.903462 0.522204 0.192958
H23   H     H_    0.307926 0.994838 0.482851 0.115046
H24   H     H_    0.457062 0.146366 0.522788 0.117056
H25   H     H_    0.485834 0.942599 0.442703 0.141683
H26   H     H_    0.590128 0.060745 0.553486 0.174972
H27   H     H_    0.426562 0.892103 0.513536 0.202437
H28   H     H_    0.558802 0.119842 0.515666 0.181357
H29   H     H_    0.131427 0.012118 0.105706 0.173339
H30   H     H_    0.132786 0.785189 0.063177 0.122570
H31   H     H_    0.741450 0.365161 0.737676 0.196283
H32   H     H_    0.982260 0.043258 0.955567 0.017509
H33   H     H_    0.002673 0.939080 0.958784 0.147451
H34   H     H_    0.901244 0.885840 0.942842 0.232388
H35   H     H_    0.967672 0.085179 0.177690 0.159967
H36   H     H_    0.881983 0.029904 0.082028 0.238199
H37   H     H_    0.973937 0.970642 0.170834 0.175042
H38   H     H_    0.115084 0.033976 0.189110 0.200479
H39   H     H_    0.882914 0.912842 0.071231 0.212251
H40   H     H_    0.133354 0.544748 0.850368 0.187579
H41   H     H_    0.867983 0.654264 0.942857 0.111856
H42   H     H_    0.865257 0.230748 0.979528 0.127947
H43   H     H_    0.211867 0.648797 0.284430 0.114584
H44   H     H_    0.588019 0.506834 0.764118 0.251825
H45   H     H_    0.629209 0.460621 0.709643 0.280225
H46   H     H_    0.533423 0.397755 0.702743 0.264957
H47   H     H_    0.650217 0.391816 0.795418 0.215488
H48   H     H_    0.608475 0.437093 0.848734 0.203068
H49   H     H_    0.725378 0.576647 0.899227 0.199005
H50   H     H_    0.764617 0.530585 0.841931 0.235061
H51   H     H_    0.482954 0.573296 0.781018 0.268886
H52   H     H_    0.132490 0.517073 0.268612 0.114403
H53   H     H_    0.425542 0.465356 0.747878 0.257325
H54   H     H_    0.372021 0.521488 0.740974 0.267672
H55   H     H_    0.391361 0.495062 0.858595 0.196014
H56   H     H_    0.448269 0.602317 0.891248 0.268733
H57   H     H_    0.579742 0.597882 0.921933 0.227765
H58   H     H_    0.522206 0.490121 0.886818 0.196068
H59   H     H_    0.817412 0.488978 0.596797 0.371101
H60   H     H_    0.629615 0.809185 0.021752 0.394227
H61   H     H_    0.681975 0.192165 0.368027 0.259926
H62   H     H_    0.691108 0.249219 0.463117 0.287929
H63   H     H_    0.227249 0.785081 0.153592 0.127454
H64   H     H_    0.625841 0.245525 0.370968 0.246301
H65   H     H_    0.758632 0.378337 0.457307 0.215893
H66   H     H_    0.748773 0.321045 0.362545 0.200289
H67   H     H_    0.838468 0.272678 0.434489 0.233688
H68   H     H_    0.847300 0.331140 0.527365 0.226084
H69   H     H_    0.932295 0.198758 0.226038 0.368609
H70   H     H_    0.986130 0.607349 0.563562 0.330730
H71   H     H_    0.219032 0.628721 0.447840 0.366656
H72   H     H_    0.183142 0.986555 0.373147 0.347158
H73   H     H_    0.376271 0.220846 0.547570 0.351289
H74   H     H_    0.780092 0.427642 0.064436 0.118342
H75   H     H_    0.384576 0.786636 0.080372 0.394032
H76   H     H_    0.465050 0.966121 0.228648 0.268385
H77   H     H_    0.516277 0.075429 0.289225 0.255690
H78   H     H_    0.576587 0.028476 0.277403 0.260035
H79   H     H_    0.591137 0.065641 0.413450 0.217190
H80   H     H_    0.538365 0.956747 0.352775 0.222752
H81   H     H_    0.400999 0.948918 0.315075 0.221845
H82   H     H_    0.453722 0.056857 0.378338 0.248308
H83   H     H_    0.667896 0.008559 0.771546 0.274004
H84   H     H_    0.594315 0.904114 0.691941 0.264810
H85   H     H_    0.415428 0.460209 0.974726 0.145854
H86   H     H_    0.689719 0.962371 0.695839 0.249182
H87   H     H_    0.569762 0.951462 0.587584 0.210535
H88   H     H_    0.644989 0.055477 0.667425 0.205669
H89   H     H_    0.559641 0.055504 0.728530 0.185331
H90   H     H_    0.491223 0.948258 0.669340 0.213281
H91   H     H_    0.332196 0.199001 0.091551 0.251462
H92   H     H_    0.235376 0.109870 0.007588 0.270620
H93   H     H_    0.247674 0.210017 0.034380 0.257417
H94   H     H_    0.264260 0.225986 0.168806 0.199234
H95   H     H_    0.249452 0.125460 0.141615 0.218103
H96   H     H_    0.544878 0.454470 0.086693 0.131533
H97   H     H_    0.109902 0.072508 0.017401 0.199651
H98   H     H_    0.123971 0.171894 0.058098 0.188706
H99   H     H_    0.848727 0.986759 0.817792 0.335592
H100  H     H_    0.240936 0.227055 0.380426 0.267915
H101  H     H_    0.222383 0.306117 0.367436 0.247374
H102  H     H_    0.169631 0.247789 0.405651 0.276872
H103  H     H_    0.074949 0.202307 0.263381 0.245486
H104  H     H_    0.094591 0.122244 0.273823 0.225817
H105  H     H_    0.210690 0.182520 0.241523 0.215195
H106  H     H_    0.163433 0.237085 0.209743 0.185283
N1    N     N_R   0.043550 0.386750 0.043430 -0.041931
N2    N     N_R   0.843320 0.343600 0.886740 -0.053255
N3    N     N_R   0.156920 0.543410 0.000250 -0.122208
N4    N     N_R   0.843210 0.386780 0.843560 -0.069705
N5    N     N_R   0.157030 0.500230 0.043430 -0.088832
N6    N     N_R   0.043140 0.543420 0.886740 -0.060945
N7    N     N_R   0.957090 0.343580 0.000250 -0.052681
N8    N     N_R   0.156790 0.613220 0.156440 -0.054491
N9    N     N_R   0.842970 0.499770 0.956570 -0.065069
N10   N     N_R   0.956860 0.456580 0.113260 -0.041293
N11   N     N_R   0.042910 0.656420 0.999750 -0.038739
N12   N     N_R   0.956450 0.613250 0.956570 -0.048762
N13   N     N_R   0.043310 0.499740 0.156440 -0.051313
N14   N     N_R   0.156680 0.656400 0.113260 -0.045614
N15   N     N_R   0.843080 0.456590 0.999750 -0.054646
N16   N     N_R   0.956690 0.500260 0.843560 -0.109890
Ni1   Ni    Ni4+2 0.099270 0.499990 0.099040 0.193363
Ni2   Ni    Ni4+2 0.900730 0.500010 0.900960 0.263282
Ni3   Ni    Ni4+2 0.900990 0.400990 0.000000 0.201663
Ni4   Ni    Ni4+2 0.099010 0.599010 0.000000 0.320797
O1    O     O_2   0.781056 0.356592 0.629698 -0.362399
O2    O     O_2   0.127210 0.612691 0.723406 -0.205082
O3    O     O_2   0.147719 0.671295 0.636164 -0.199200
O4    O     O_3   0.998745 0.597788 0.611389 -0.488521
O5    O     O_2   0.237743 0.608726 0.584012 -0.210458
O6    O     O_2   0.187370 0.491379 0.457362 -0.331695
O7    O     O_3   0.166108 0.609554 0.448213 -0.529715
O8    O     O_2   0.360122 0.110468 0.386298 -0.301482
O9    O     O_2   0.269084 0.963460 0.300899 -0.330995
O10   O     O_3   0.223316 0.041358 0.385585 -0.456981
O11   O     O_2   0.348899 0.091862 0.627481 -0.261568
O12   O     O_2   0.800305 0.484184 0.721456 -0.342262
O13   O     O_2   0.473068 0.223448 0.684850 -0.312895
O14   O     O_3   0.339464 0.180527 0.556752 -0.429681
O15   O     O_2   0.296787 0.649603 0.933858 -0.247167
O16   O     O_2   0.214683 0.695853 0.980319 -0.306708
O17   O     O_3   0.362396 0.738974 0.088977 -0.514973
O18   O     O_2   0.788386 0.922503 0.937120 -0.250643
O19   O     O_2   0.829094 0.054898 0.940968 -0.317556
O20   O     O_3   0.817587 0.941407 0.825607 -0.495703
O21   O     O_3   0.867764 0.490149 0.631901 -0.496318
O22   O     O_2   0.487406 0.722354 0.020330 -0.249551
O23   O     O_2   0.616626 0.801940 0.152789 -0.266782
O24   O     O_3   0.627349 0.759022 0.022250 -0.542700
O25   O     O_2   0.003249 0.204880 0.376749 -0.285386
O26   O     O_2   0.876671 0.212476 0.330877 -0.305520
O27   O     O_3   0.970598 0.255677 0.270392 -0.568473
S1    S     S_3+6 0.840730 0.446242 0.685618 -0.071195
S2    S     S_3+6 0.572104 0.734550 0.067267 -0.027583
S3    S     S_3+6 0.966097 0.253396 0.352426 -0.058102
S4    S     S_3+6 0.089474 0.599845 0.637693 0.033140
S5    S     S_3+6 0.168828 0.553543 0.496723 -0.028347
S6    S     S_3+6 0.303218 0.033625 0.381660 -0.048957
S7    S     S_3+6 0.399157 0.150170 0.607117 -0.017694
S8    S     S_3+6 0.275190 0.666534 0.999592 -0.025009
S9    S     S_3+6 0.843903 0.984703 0.923830 -0.039973

loop_
_geom_bond_atom_site_label_1
_geom_bond_atom_site_label_2
_ccdc_geom_bond_type
C44   C49   S    
C77   H67   S    
C88   H95   S    
C66   C68   T    
C87   C88   S    
C64   H40   S    
C94   H9    S    
C25   C31   S    
O22   S2    D    
C55   C59   S    
N2    Ni3   S    
C15   C18   S    
C52   N5    A    
N7    Ni3   S    
C41   C42   S    
C88   C90   S    
C84   H90   S    
C95   C96   S    
C11   H85   S    
C27   S3    S    
C3    C6    A    
O12   S1    D    
O7    S5    S    
C80   H61   S    
C23   C43   S    
C69   H42   S    
C73   H45   S    
N11   N12   A    
H69   O27   S    
C88   H94   S    
N9    Ni2   S    
C64   N6    A    
C29   C36   T    
C26   C27   S    
C62   C63   S    
C14   C24   T    
C30   C35   S    
C25   C77   S    
C8    C29   S    
C32   C36   S    
C62   H37   S    
C57   H33   S    
C33   S5    S    
H73   O14   S    
O13   S7    D    
C18   C19   S    
C10   C15   S    
C59   C66   S    
C48   H26   S    
C54   C87   S    
C12   C64   A    
C80   H64   S    
C90   H91   S    
C2    H52   S    
C23   C40   A    
C96   H3    S    
N3    Ni4   S    
C45   H43   S    
C17   C20   S    
C39   H27   S    
C74   H58   S    
O16   S8    D    
C72   H48   S    
C9    C58   S    
C31   H11   S    
C49   C81   S    
C4    N16   A    
C67   H19   S    
C92   C93   S    
C34   C52   A    
O11   S7    D    
C33   C35   S    
N16   Ni2   S    
O4    S4    S    
C5    N15   A    
C47   C48   S    
C76   H51   S    
C75   H55   S    
C5    H74   S    
C52   C94   S    
C17   C22   S    
C63   H35   S    
C4    C12   A    
C92   H103  S    
O9    S6    D    
C75   H56   S    
C54   C59   S    
C95   H6    S    
O24   S2    S    
C77   H68   S    
C28   S8    S    
O23   S2    D    
C94   H8    S    
C2    N13   A    
C85   H87   S    
O21   S1    S    
C96   H5    S    
N15   Ni3   S    
C28   N3    A    
O20   S9    S    
C84   H89   S    
C61   C62   S    
O10   S6    S    
C41   H23   S    
C7    C56   A    
C79   H65   S    
C78   N11   A    
C95   H7    S    
O2    S4    D    
H71   O7    S    
C47   C50   S    
N10   Ni3   S    
C77   C79   S    
N6    N16   A    
N9    N15   A    
C40   N4    A    
C74   C75   S    
C6    C45   A    
C57   H34   S    
C84   C85   S    
C27   H14   S    
C56   N9    A    
O8    S6    D    
O19   S9    D    
C1    H1    S    
C91   C92   S    
C5    C7    A    
C21   H96   S    
C54   C60   S    
C81   C82   S    
N4    Ni2   S    
C3    N14   A    
O25   S3    D    
C40   H31   S    
C73   H46   S    
C11   C21   S    
C7    C14   S    
N8    Ni1   S    
C46   H21   S    
C60   C61   S    
C51   C53   T    
C62   H39   S    
C93   H101  S    
C75   C76   S    
C18   H10   S    
C48   H28   S    
C37   C38   T    
N13   Ni1   S    
H72   O10   S    
N11   Ni4   S    
C58   C65   T    
C80   H62   S    
C31   C32   S    
N10   N13   A    
C76   H54   S    
C10   C19   S    
H70   O4    S    
C56   C71   S    
C49   H25   S    
C83   H76   S    
C86   H84   S    
C20   H2    S    
C67   N10   A    
C3    H63   S    
C63   H36   S    
O14   S7    S    
C26   H13   S    
C87   H97   S    
C85   C86   S    
C91   H105  S    
C16   N2    A    
C39   C46   S    
C46   C84   S    
O1    S1    D    
C68   C70   S    
C48   C49   S    
C90   H92   S    
H99   O20   S    
N2    N4    A    
C26   C30   S    
C16   C23   A    
C89   H41   S    
C55   C57   S    
O15   S8    D    
C41   C44   S    
O6    S5    D    
C59   C63   S    
C93   H100  S    
C69   N7    A    
C79   H66   S    
C9    C89   A    
C78   H30   S    
C60   H38   S    
C31   H20   S    
C44   C51   S    
C35   S4    S    
C25   C30   S    
C15   C17   S    
C46   C47   S    
C60   H29   S    
O27   S3    S    
C71   H49   S    
C27   C32   S    
N5    Ni1   S    
O17   S8    S    
C2    C8    A    
C1    C70   A    
C87   H98   S    
C82   H80   S    
C72   C73   S    
C11   C17   S    
C81   H82   S    
C43   C50   T    
C57   C61   S    
C39   C44   S    
C73   H44   S    
C85   H88   S    
C39   H22   S    
C41   S6    S    
C33   H17   S    
C45   N8    A    
N1    Ni1   S    
C55   S9    S    
C32   C33   S    
C55   H32   S    
C83   H77   S    
C93   H102  S    
C4    S1    S    
C13   C34   S    
H60   O24   S    
O5    S5    D    
C10   C74   S    
C42   H24   S    
C42   S7    S    
C72   H47   S    
C15   S2    S    
C76   H53   S    
N8    N14   A    
C96   H4    S    
C86   H83   S    
H75   O17   S    
C13   C22   T    
C19   C24   S    
C18   C20   S    
C42   C47   S    
C28   C34   A    
C12   C38   S    
C69   C70   A    
N14   Ni4   S    
C91   H106  S    
C10   C11   S    
C81   H81   S    
C79   C80   S    
C61   C65   S    
C54   C91   S    
C71   H50   S    
C71   C72   S    
C20   C21   S    
C74   H57   S    
C8    C67   A    
O3    S4    D    
C82   C83   S    
C9    C78   A    
C83   H78   S    
C92   H104  S    
C86   H86   S    
C30   C37   S    
N1    N7    A    
N12   Ni2   S    
C82   H79   S    
C6    C53   S    
O18   S9    D    
C25   H18   S    
N3    N5    A    
N6    Ni4   S    
C94   C95   S    
C26   H12   S    
C35   H16   S    
O26   S3    D    
C16   H15   S    
H59   O21   S    
C89   N12   A    
C19   C21   S    
C90   H93   S    
C1    N1    A    
