data_mof_unit_44562.cif
_audit_creation_date              2012-12-10T17:19:24-0500
_audit_creation_method            fapswitch 2.2
_symmetry_space_group_name_H-M    P1
_symmetry_Int_Tables_number       1
_space_group_crystal_system       triclinic
_cell_length_a                    15.051269
_cell_length_b                    10.799309
_cell_length_c                    9.602027
_cell_angle_alpha                 87.170507
_cell_angle_beta                  89.21309
_cell_angle_gamma                 94.467898
_cell_volume                      1553.86311785

loop_
_atom_site_label
_atom_site_type_symbol
_atom_type_description
_atom_site_fract_x
_atom_site_fract_y
_atom_site_fract_z
_atom_type_partial_charge
C1    C     C_R   0.494202 0.261380 0.503978 0.836629
C2    C     C_R   0.910864 0.564433 0.381643 0.080438
C3    C     C_R   0.947914 0.430969 0.739504 -0.217139
C4    C     C_R   0.040439 0.435482 0.740805 -0.201250
C5    C     C_R   0.090470 0.481644 0.622820 0.108134
C6    C     C_R   0.047767 0.525089 0.502007 0.034126
C7    C     C_R   0.098370 0.573108 0.383170 0.077615
C8    C     C_R   0.054441 0.626656 0.267699 0.083580
C9    C     C_R   0.960846 0.618601 0.267183 -0.247283
C10   C     C_R   0.182671 0.483092 0.623612 -0.184526
C11   C     C_R   0.232823 0.517363 0.502393 -0.073119
C12   C     C_R   0.329040 0.505193 0.500584 0.850829
C13   C     C_R   0.191137 0.565062 0.383864 -0.283993
C14   C     C_R   0.328747 0.081564 0.552645 0.356022
C15   C     C_R   0.251719 0.015867 0.506079 -0.154255
C16   C     C_R   0.257836 0.902825 0.444572 -0.211423
C17   C     C_R   0.340106 0.852581 0.436977 -0.176732
C18   C     C_R   0.418308 0.922759 0.474967 0.072997
C19   C     C_R   0.413141 0.046975 0.510148 -0.046594
C20   C     C_R   0.493259 0.125636 0.513714 -0.053482
C21   C     C_R   0.575601 0.073930 0.511099 -0.169143
C22   C     C_R   0.578940 0.946075 0.505698 -0.219559
C23   C     C_R   0.503985 0.737577 0.496212 0.742868
C24   C     C_R   0.500705 0.870874 0.486834 -0.044264
C25   C     C_R   0.619872 0.666801 0.133961 -0.147498
C26   C     C_R   0.680262 0.747454 0.056922 -0.215259
C27   C     C_R   0.681720 0.746742 0.913219 -0.199320
C28   C     C_R   0.622593 0.665717 0.845556 -0.130587
C29   C     C_R   0.560172 0.581255 0.919907 0.202626
C30   C     C_R   0.559514 0.581630 0.069509 0.205949
C31   C     C_R   0.442261 0.423621 0.079524 -0.053959
C32   C     C_R   0.441985 0.424312 0.931836 -0.016912
C33   C     C_R   0.671299 0.501863 0.499084 0.773795
C34   C     C_R   0.817746 0.555957 0.380197 -0.242129
C35   C     C_R   0.768385 0.507039 0.498060 -0.064914
C36   C     C_R   0.811947 0.466627 0.617856 -0.246141
C37   C     C_R   0.904545 0.472631 0.620108 0.115676
C38   C     C_R   0.954426 0.520918 0.501150 0.061205
Cu1   Cu    Cu3+1 0.499990 0.499990 0.640660 0.986238
Cu2   Cu    Cu3+1 0.500010 0.500010 0.359340 0.939278
H1    H     H_    0.783801 0.589543 0.288641 0.150985
H2    H     H_    0.186397 0.043961 0.533084 0.174076
H3    H     H_    0.197930 0.848965 0.415564 0.157982
H4    H     H_    0.342214 0.759808 0.400707 0.146142
H5    H     H_    0.642578 0.905894 0.513265 0.123087
H6    H     H_    0.394827 0.360933 0.139081 0.154709
H7    H     H_    0.622762 0.675015 0.243681 0.191475
H8    H     H_    0.726030 0.811291 0.109330 0.148823
H9    H     H_    0.728657 0.810125 0.853325 0.150473
H10   H     H_    0.628539 0.674205 0.735033 0.188607
H11   H     H_    0.773704 0.429287 0.709128 0.160864
H12   H     H_    0.393867 0.363223 0.881914 0.230092
H13   H     H_    0.910272 0.394170 0.831444 0.148165
H14   H     H_    0.072919 0.401083 0.833368 0.155675
H15   H     H_    0.214836 0.454529 0.718541 0.190492
H16   H     H_    0.231813 0.595473 0.293101 0.164902
H17   H     H_    0.926841 0.656923 0.178000 0.145920
H18   H     H_    0.637173 0.132552 0.516139 0.135530
N1    N     N_R   0.500860 0.501210 0.147910 -0.205457
N2    N     N_R   0.500890 0.501290 0.852040 -0.210753
O1    O     O_R   0.499990 0.319640 0.618810 -0.506185
O2    O     O_R   0.500000 0.319660 0.381240 -0.582218
O3    O     O_R   0.370250 0.499960 0.618800 -0.548481
O4    O     O_R   0.370260 0.499980 0.381230 -0.598659
O5    O     O_R   0.500000 0.680340 0.618760 -0.591720
O6    O     O_R   0.500010 0.680360 0.381190 -0.605898
O7    O     O_R   0.629740 0.500020 0.618770 -0.607582
O8    O     O_R   0.629750 0.500040 0.381200 -0.597171
S1    S     S_3+6 0.318019 0.145488 0.716313 -0.036640
O9    O     O_2   0.296912 0.277309 0.694135 -0.336508
O10   O     O_2   0.242802 0.075989 0.799178 -0.304075
O11   O     O_3   0.412488 0.138330 0.806991 -0.535297
H19   H     H_    0.419094 0.048350 0.824270 0.352188
C39   C     C_3   0.104539 0.702717 0.150577 -0.400766
C40   C     C_3   0.133202 0.621653 0.034233 -0.374554
C41   C     C_3   0.191838 0.699063 0.925947 -0.769072
H20   H     H_    0.214151 0.638808 0.844533 0.235148
H21   H     H_    0.154030 0.772941 0.875613 0.269894
H22   H     H_    0.251930 0.742544 0.975684 0.259344
H23   H     H_    0.170869 0.544464 0.077347 0.223635
H24   H     H_    0.072912 0.580719 0.982916 0.225800
H25   H     H_    0.061734 0.773326 0.105147 0.201991
H26   H     H_    0.163189 0.756715 0.192400 0.196514

loop_
_geom_bond_atom_site_label_1
_geom_bond_atom_site_label_2
_ccdc_geom_bond_type
C8    C9    A    
C3    H13   S    
C35   C36   A    
C41   H22   S    
C39   H26   S    
C1    O2    A    
C7    C8    A    
C26   C27   A    
C29   C30   A    
C18   C24   A    
C23   O6    A    
C28   C29   A    
C41   H21   S    
C34   C35   A    
C5    C6    A    
C12   O4    A    
C15   C16   A    
Cu2   O2    S    
C18   C19   A    
C31   N1    A    
S1    O10   D    
C32   H12   S    
C28   H10   S    
C19   C20   A    
C16   C17   A    
C31   H6    S    
C23   C24   S    
C6    C38   A    
C40   H23   S    
C25   H7    S    
C26   H8    S    
C13   H16   S    
C2    C34   A    
Cu2   N1    S    
Cu2   O6    S    
C21   C22   A    
Cu1   O5    S    
C34   H1    S    
C39   H25   S    
Cu1   O1    S    
C39   C40   S    
C41   H20   S    
Cu1   Cu2   S    
C12   O3    A    
C4    C5    A    
C25   C26   A    
S1    O11   S    
C40   C41   S    
C37   C38   A    
C2    C38   A    
C31   C32   A    
C29   N2    A    
C7    C13   A    
C30   N1    A    
C8    C39   S    
C17   C18   A    
C10   H15   S    
C16   H3    S    
C36   H11   S    
C14   S1    S    
C22   C24   A    
C32   N2    A    
C3    C4    A    
C33   O7    A    
C25   C30   A    
C36   C37   A    
C1    C20   S    
C4    H14   S    
Cu1   O7    S    
C14   C19   A    
C40   H24   S    
C15   H2    S    
O11   H19   S    
C1    O1    A    
C11   C12   S    
C6    C7    A    
Cu1   O3    S    
Cu2   O4    S    
C23   O5    A    
C17   H4    S    
C21   H18   S    
C11   C13   A    
Cu1   N2    S    
C33   C35   S    
C9    H17   S    
S1    O9    D    
C10   C11   A    
C5    C10   A    
C22   H5    S    
C20   C21   A    
C3    C37   A    
Cu2   O8    S    
C27   C28   A    
C14   C15   A    
C2    C9    A    
C27   H9    S    
C33   O8    A    
