data_mof_unit_32415.cif
_audit_creation_date              2012-12-10T17:52:02-0500
_audit_creation_method            fapswitch 2.2
_symmetry_space_group_name_H-M    P1
_symmetry_Int_Tables_number       1
_space_group_crystal_system       triclinic
_cell_length_a                    14.891976
_cell_length_b                    14.736616
_cell_length_c                    19.253139
_cell_angle_alpha                 72.261025
_cell_angle_beta                  101.729449
_cell_angle_gamma                 115.999361
_cell_volume                      3605.06309524

loop_
_atom_site_label
_atom_site_type_symbol
_atom_type_description
_atom_site_fract_x
_atom_site_fract_y
_atom_site_fract_z
_atom_type_partial_charge
C1    C     C_R   0.880981 0.311617 0.509238 0.869828
C2    C     C_R   0.119465 0.689070 0.488196 0.887246
C3    C     C_R   0.813971 0.201005 0.512161 -0.245464
C4    C     C_R   0.187898 0.800272 0.482509 -0.180350
C5    C     C_R   0.780910 0.020949 0.518744 0.430434
C6    C     C_R   0.224550 0.980911 0.478053 0.369855
C7    C     C_R   0.848973 0.125287 0.513801 0.290348
C8    C     C_R   0.154805 0.880478 0.471538 0.274654
C9    C     C_R   0.711703 0.171419 0.514020 -0.201588
C10   C     C_R   0.290536 0.824876 0.491175 -0.215180
C11   C     C_R   0.641295 0.069886 0.514063 -0.015950
C12   C     C_R   0.362017 0.924849 0.493706 -0.018723
C13   C     C_R   0.675614 0.995758 0.509481 -0.102321
C14   C     C_R   0.328361 0.000254 0.496326 -0.080852
C15   C     C_R   0.536897 0.043448 0.513571 0.068609
C16   C     C_R   0.466395 0.948889 0.497693 0.068862
C17   C     C_R   0.501985 0.882910 0.482766 -0.285285
C18   C     C_R   0.501053 0.108139 0.530065 -0.288742
C19   C     C_R   0.604200 0.903318 0.490233 0.463508
C20   C     C_R   0.398933 0.089058 0.520502 0.469023
C21   C     C_R   0.681954 0.586294 0.349634 -0.197928
C22   C     C_R   0.318237 0.413937 0.650263 -0.193009
C23   C     C_R   0.998346 0.497342 0.632461 0.918861
C24   C     C_R   0.001847 0.502955 0.367565 0.878020
C25   C     C_R   0.778780 0.600441 0.380578 0.022341
C26   C     C_R   0.221349 0.399591 0.619394 0.040097
C27   C     C_R   0.719006 0.522288 0.500108 0.538714
C28   C     C_R   0.280937 0.477760 0.499825 0.529205
C29   C     C_R   0.626676 0.532615 0.471068 -0.146308
C30   C     C_R   0.373385 0.467808 0.528756 -0.139402
C31   C     C_R   0.603645 0.544311 0.395067 0.048681
C32   C     C_R   0.396496 0.456106 0.604761 0.037458
C33   C     C_R   0.550767 0.517048 0.514218 0.048193
C34   C     C_R   0.449273 0.483598 0.485510 0.065648
C35   C     C_R   0.426911 0.464295 0.415430 -0.143780
C36   C     C_R   0.573167 0.536332 0.584298 -0.154683
C37   C     C_R   0.502710 0.505547 0.367276 0.428976
C38   C     C_R   0.497440 0.494940 0.632507 0.447022
C39   C     C_R   0.984398 0.407826 0.766784 0.415719
C40   C     C_R   0.018611 0.596321 0.234163 0.375428
C41   C     C_R   0.982499 0.413694 0.837404 -0.229369
C42   C     C_R   0.020600 0.592434 0.162996 -0.254488
C43   C     C_R   0.989818 0.504864 0.851039 -0.139959
C44   C     C_R   0.011938 0.501674 0.147852 -0.117280
C45   C     C_R   0.997710 0.592661 0.791912 0.456362
C46   C     C_R   0.003541 0.412674 0.206027 0.468596
C47   C     C_R   0.002756 0.587895 0.721605 -0.187770
C48   C     C_R   0.998385 0.415494 0.276815 -0.175320
C49   C     C_R   0.996611 0.496891 0.708274 -0.230680
C50   C     C_R   0.004881 0.505705 0.291533 -0.189692
C51   C     C_R   0.007375 0.501752 0.070874 0.408087
C52   C     C_R   0.993177 0.505936 0.927604 0.414385
Cu1   Cu    Cu3+1 0.081740 0.475680 0.518680 1.067024
Cu2   Cu    Cu3+1 0.918260 0.524320 0.481320 1.071816
H1    H     H_    0.162307 0.369316 0.655023 0.214039
H2    H     H_    0.837852 0.630555 0.344964 0.219750
H3    H     H_    0.668148 0.604129 0.290610 0.215194
H4    H     H_    0.332124 0.396089 0.709281 0.220742
H5    H     H_    0.350245 0.423054 0.396497 0.205498
H6    H     H_    0.649920 0.577225 0.603254 0.210137
H7    H     H_    0.976548 0.346541 0.882629 0.218406
H8    H     H_    0.027543 0.660747 0.118608 0.205228
H9    H     H_    0.009695 0.655551 0.676548 0.194061
H10   H     H_    0.990690 0.346815 0.321090 0.174860
H11   H     H_    0.314193 0.762475 0.500878 0.201332
H12   H     H_    0.687171 0.231535 0.510170 0.207064
H13   H     H_    0.451679 0.816624 0.461433 0.180509
H14   H     H_    0.551113 0.172725 0.553262 0.182069
N1    N     N_R   0.058355 0.589990 0.953068 -0.189266
N2    N     N_R   0.942025 0.417839 0.045355 -0.193407
N3    N     N_R   0.064764 0.588181 0.023361 -0.192018
N4    N     N_R   0.935609 0.419651 0.975091 -0.195866
N5    N     N_R   0.795420 0.560800 0.453240 -0.240478
N6    N     N_R   0.204580 0.439200 0.546760 -0.243193
O1    O     O_R   0.977910 0.338110 0.524620 -0.557028
O2    O     O_R   0.022090 0.661890 0.475380 -0.559464
O3    O     O_R   0.839850 0.379180 0.493080 -0.549972
O4    O     O_R   0.160150 0.620820 0.506920 -0.559728
O5    O     O_R   0.069040 0.479450 0.615630 -0.591094
O6    O     O_R   0.930960 0.520550 0.384370 -0.596724
O7    O     O_R   0.930990 0.520520 0.584090 -0.498694
O8    O     O_R   0.069010 0.479480 0.415910 -0.511895
S1    S     S_3+6 0.969262 0.286651 0.756075 0.040492
O9    O     O_2   0.070088 0.281653 0.769103 -0.294178
O10   O     O_2   0.902243 0.199972 0.811780 -0.235931
O11   O     O_3   0.918171 0.270335 0.672338 -0.520317
H15   H     H_    0.914471 0.201659 0.672084 0.386391
S2    S     S_3+6 0.035899 0.717258 0.246938 0.036482
O12   O     O_2   0.075650 0.726307 0.323734 -0.275405
O13   O     O_2   0.108947 0.804744 0.195385 -0.232141
O14   O     O_3   0.925664 0.728913 0.228202 -0.533911
H16   H     H_    0.904805 0.724192 0.176735 0.353896
O15   O     O_3   0.479793 0.503013 0.294470 -0.705316
H17   H     H_    0.405904 0.474267 0.284081 0.354300
O16   O     O_3   0.520425 0.497365 0.705332 -0.699055
H18   H     H_    0.594325 0.526258 0.715665 0.350538
S3    S     S_3+6 0.281330 0.564454 0.409187 -0.000656
O17   O     O_2   0.229854 0.500144 0.353981 -0.315667
O18   O     O_2   0.232778 0.637535 0.400074 -0.244528
O19   O     O_3   0.399508 0.643423 0.387348 -0.586291
H19   H     H_    0.394100 0.671168 0.333610 0.395305
S4    S     S_3+6 0.718760 0.435719 0.590870 0.002832
O20   O     O_2   0.613141 0.366223 0.610596 -0.338623
O21   O     O_2   0.767747 0.363007 0.600061 -0.242754
O22   O     O_3   0.776838 0.508238 0.652263 -0.551640
H20   H     H_    0.763558 0.458105 0.700692 0.380485
O23   O     O_3   0.998574 0.683141 0.799616 -0.669056
H21   H     H_    0.967494 0.667648 0.844952 0.345253
O24   O     O_3   0.002056 0.322718 0.196848 -0.671710
H22   H     H_    0.034283 0.339578 0.151771 0.345336
O25   O     O_3   0.634946 0.839415 0.470418 -0.643905
H23   H     H_    0.576122 0.776717 0.460855 0.348244
O26   O     O_3   0.366986 0.150973 0.541628 -0.638124
H24   H     H_    0.425547 0.210837 0.555422 0.349108
O27   O     O_3   0.054660 0.861593 0.457535 -0.636248
H25   H     H_    0.029697 0.829998 0.415011 0.371934
O28   O     O_3   0.948478 0.151489 0.507791 -0.590595
H26   H     H_    0.971044 0.214273 0.466804 0.336345
S5    S     S_3+6 0.831479 0.925012 0.540056 0.134882
O29   O     O_2   0.764050 0.825058 0.587226 -0.264221
O30   O     O_2   0.841444 0.905839 0.470194 -0.180215
O31   O     O_3   0.945272 0.965794 0.585803 -0.411378
H27   H     H_    0.971894 0.913891 0.588167 0.396992
S6    S     S_3+6 0.180680 0.082573 0.454324 0.121368
O32   O     O_2   0.160824 0.096747 0.522952 -0.148793
O33   O     O_2   0.258001 0.183183 0.415420 -0.279446
O34   O     O_3   0.073865 0.054717 0.399226 -0.410775
H28   H     H_    0.093251 0.056287 0.352467 0.361750

loop_
_geom_bond_atom_site_label_1
_geom_bond_atom_site_label_2
_ccdc_geom_bond_type
C28   S3    S    
C15   C18   A    
O15   H17   S    
C27   C29   A    
O16   H18   S    
C1    O3    A    
C7    O28   S    
Cu1   N6    S    
C25   H2    S    
C41   H7    S    
C4    C8    A    
C28   N6    A    
C26   H1    S    
S3    O17   D    
C39   C41   A    
Cu1   Cu2   S    
C21   C31   A    
C22   C32   A    
C5    S5    S    
C3    C9    A    
C35   C37   A    
C3    C7    A    
C47   H9    S    
C20   O26   S    
C43   C52   S    
C23   C49   S    
C18   H14   S    
C15   C16   A    
C29   C33   A    
C33   C36   A    
S4    O22   S    
C35   H5    S    
C34   C35   A    
C45   C47   A    
N1    N3    A    
C24   O8    A    
C9    H12   S    
C52   N1    A    
C8    O27   S    
C26   N6    A    
C11   C15   A    
C24   O6    A    
C12   C16   A    
C16   C17   A    
C38   O16   S    
O23   H21   S    
C51   N2    A    
C32   C38   A    
C42   H8    S    
C5    C13   A    
Cu2   O3    S    
C40   C42   A    
C41   C43   A    
Cu1   O1    S    
C42   C44   A    
S3    O18   D    
C51   N3    A    
C44   C46   A    
Cu2   O6    S    
S5    O30   D    
C24   C50   S    
C46   C48   A    
C17   H13   S    
C30   C34   A    
C1    O1    A    
C14   C20   A    
C47   C49   A    
O14   H16   S    
C5    C7    A    
C13   C19   A    
O11   H15   S    
C6    C8    A    
C31   C37   A    
Cu1   O8    S    
C1    C3    S    
C2    C4    S    
C21   H3    S    
C52   N4    A    
C6    C14   A    
Cu2   N5    S    
C43   C45   A    
S1    O9    D    
S2    O14   S    
C33   C34   A    
C37   O15   S    
S4    O21   D    
C48   C50   A    
C9    C11   A    
C10   C12   A    
S6    O34   S    
Cu2   O2    S    
C44   C51   S    
S1    O10   D    
S2    O13   D    
C4    C10   A    
O34   H28   S    
S3    O19   S    
C2    O2    A    
C2    O4    A    
S6    O33   D    
O26   H24   S    
C10   H11   S    
C21   C25   A    
C6    S6    S    
C23   O7    A    
O25   H23   S    
Cu1   O5    S    
S5    O31   S    
C12   C14   A    
C36   H6    S    
C22   H4    S    
C18   C20   A    
S5    O29   D    
C39   C49   A    
C19   O25   S    
O22   H20   S    
C27   S4    S    
O28   H26   S    
C40   S2    S    
C28   C30   A    
Cu1   O4    S    
C39   S1    S    
C29   C31   A    
O24   H22   S    
C30   C32   A    
C11   C13   A    
O27   H25   S    
C40   C50   A    
C36   C38   A    
O19   H19   S    
C17   C19   A    
C25   N5    A    
S4    O20   D    
C48   H10   S    
S1    O11   S    
S2    O12   D    
C22   C26   A    
C46   O24   S    
N2    N4    A    
C23   O5    A    
O31   H27   S    
C27   N5    A    
Cu2   O7    S    
C45   O23   S    
S6    O32   D    
