data_mof_unit_18103.cif
_audit_creation_date              2012-12-11T16:16:55-0500
_audit_creation_method            fapswitch 2.2
_symmetry_space_group_name_H-M    P1
_symmetry_Int_Tables_number       1
_space_group_crystal_system       triclinic
_cell_length_a                    13.360483
_cell_length_b                    13.431411
_cell_length_c                    28.462549
_cell_angle_alpha                 90.329683
_cell_angle_beta                  89.684975
_cell_angle_gamma                 120.039321
_cell_volume                      4421.47150664

loop_
_atom_site_label
_atom_site_type_symbol
_atom_type_description
_atom_site_fract_x
_atom_site_fract_y
_atom_site_fract_z
_atom_type_partial_charge
C1    C     C_R   0.438226 0.551388 0.316564 0.533355
C2    C     C_R   0.549793 0.438960 0.683773 0.533155
C3    C     C_3   0.537755 0.222148 0.521771 0.040314
C4    C     C_3   0.620521 0.296975 0.560348 -0.247117
C5    C     C_3   0.724115 0.403159 0.539483 -0.492438
C6    C     C_3   0.908311 0.233231 0.938159 -0.018449
C7    C     C_3   0.844479 0.164958 0.894454 -0.239274
C8    C     C_3   0.905726 0.106450 0.871922 -0.489965
C9    C     C_3   0.771497 0.708314 0.565562 0.014526
C10   C     C_3   0.816592 0.773242 0.611937 -0.262640
C11   C     C_3   0.919834 0.765402 0.629924 -0.451475
C12   C     C_3   0.181675 0.740083 0.572304 -0.127794
C13   C     C_R   0.561245 0.111198 0.816320 0.536787
C14   C     C_3   0.678913 0.897147 0.953559 -0.095539
C15   C     C_3   0.263815 0.334657 0.561695 -0.082770
C16   C     C_3   0.101914 0.781811 0.955762 -0.095808
C17   C     C_3   0.465133 0.755578 0.582422 -0.074109
C18   C     C_3   0.216525 0.320403 0.955880 -0.095809
C19   C     C_3   0.506080 0.765005 0.050047 -0.140729
C20   C     C_3   0.992737 0.702268 0.447835 -0.119284
C21   C     C_3   0.258540 0.493003 0.052108 -0.140526
C22   C     C_3   0.679792 0.962414 0.451651 -0.054305
C23   C     C_3   0.234796 0.740703 0.051213 -0.139937
C24   C     C_R   0.888945 0.449458 0.683675 0.530084
C25   C     C_3   0.423373 0.296353 0.413801 -0.155416
C26   C     C_1   0.069661 0.529034 0.363095 0.002716
C27   C     C_1   0.471871 0.946136 0.139809 -0.015385
C28   C     C_1   0.474528 0.542283 0.362260 -0.021512
C29   C     C_1   0.053298 0.524512 0.139880 -0.015389
C30   C     C_1   0.452104 0.919182 0.365445 0.007818
C31   C     C_1   0.475946 0.528821 0.139841 -0.015517
C32   C     C_1   0.527102 0.061329 0.861855 -0.003289
C33   C     C_R   0.109835 0.560844 0.184167 0.531185
C34   C     C_1   0.947229 0.463532 0.639794 -0.026159
C35   C     C_1   0.532631 0.472236 0.861793 -0.002168
C36   C     C_1   0.519618 0.050138 0.640988 -0.010052
C37   C     C_1   0.938399 0.467134 0.861892 -0.002612
C38   C     C_1   0.534440 0.477490 0.639021 -0.024268
C39   C     C_R   0.014641 0.395164 0.476096 0.200765
C40   C     C_R   0.466187 0.070989 0.029368 0.260992
C41   C     C_R   0.597063 0.623456 0.477186 0.269852
C42   C     C_R   0.928010 0.394776 0.028855 0.260910
C43   C     C_R   0.386953 0.991837 0.479454 0.242004
C44   C     C_R   0.448224 0.885756 0.317348 0.534741
C45   C     C_R   0.606601 0.535772 0.028519 0.260327
C46   C     C_R   0.462783 0.076681 0.980274 0.251863
C47   C     C_R   0.003193 0.385895 0.525679 0.209926
C48   C     C_R   0.614557 0.538654 0.979388 0.251265
C49   C     C_R   0.418247 0.028287 0.526660 0.191176
C50   C     C_R   0.922384 0.386550 0.979710 0.252061
C51   C     C_R   0.598991 0.616679 0.526378 0.241822
C52   C     C_R   0.051949 0.587031 0.530021 0.234076
C53   C     C_R   0.538778 0.944947 0.972803 0.254301
C54   C     C_R   0.435615 0.420120 0.522935 0.239758
C55   C     C_R   0.439449 0.548931 0.184193 0.532697
C56   C     C_R   0.054094 0.594287 0.973541 0.255730
C57   C     C_R   0.498690 0.902150 0.533951 0.225899
C58   C     C_R   0.405438 0.460640 0.973566 0.254143
C59   C     C_R   0.538855 0.937243 0.022406 0.211309
C60   C     C_R   0.058669 0.594054 0.481035 0.245541
C61   C     C_R   0.398738 0.460870 0.023206 0.211938
C62   C     C_R   0.502883 0.898469 0.484897 0.249363
C63   C     C_R   0.061686 0.601225 0.023174 0.212307
C64   C     C_R   0.441249 0.422832 0.473716 0.227426
C65   C     C_R   0.037472 0.497793 0.454244 -0.037722
C66   C     C_R   0.112220 0.561878 0.316529 0.534010
C67   C     C_R   0.502865 0.000586 0.050215 -0.033485
C68   C     C_R   0.516347 0.527370 0.451209 -0.061252
C69   C     C_R   0.998345 0.501483 0.050358 -0.031952
C70   C     C_R   0.442756 0.938597 0.457670 -0.024117
C71   C     C_R   0.499245 0.497919 0.050178 -0.033018
C72   C     C_R   0.498493 0.013138 0.952217 -0.022718
C73   C     C_R   0.019729 0.482084 0.552190 -0.037516
C74   C     C_R   0.514044 0.501700 0.952181 -0.023734
C75   C     C_R   0.462417 0.973651 0.554656 -0.066356
C76   C     C_R   0.985976 0.486226 0.952287 -0.021506
C77   C     C_R   0.451302 0.890203 0.184153 0.533638
C78   C     C_R   0.517320 0.515076 0.549286 -0.071754
C79   C     C_1   0.985605 0.470701 0.600820 0.009541
C80   C     C_1   0.509916 0.032861 0.902369 0.039871
C81   C     C_1   0.525531 0.500528 0.599004 -0.023871
C82   C     C_1   0.966625 0.478460 0.902433 0.040795
C83   C     C_1   0.491016 0.009877 0.602455 0.009841
C84   C     C_1   0.521456 0.489691 0.902336 0.039443
C85   C     C_1   0.489271 0.979470 0.099920 0.000942
C86   C     C_1   0.049333 0.509575 0.404161 0.025268
C87   C     C_1   0.492243 0.511587 0.099896 0.001459
C88   C     C_R   0.549334 0.438457 0.816265 0.535748
C89   C     C_1   0.447250 0.931978 0.407158 0.041029
C90   C     C_1   0.019553 0.508468 0.100030 0.001629
C91   C     C_1   0.498688 0.538276 0.402386 0.005687
C92   C     C_3   0.098129 0.297453 0.444138 0.040493
C93   C     C_3   0.096140 0.237664 0.397942 -0.230442
C94   C     C_3   0.993516 0.115243 0.395302 -0.428970
C95   C     C_3   0.327784 0.088988 0.069747 0.000418
C96   C     C_3   0.296598 0.182138 0.078625 -0.212596
C97   C     C_3   0.168487 0.131998 0.088950 -0.484866
C98   C     C_3   0.756288 0.728547 0.429799 -0.003640
C99   C     C_R   0.560868 0.110239 0.684140 0.531413
C100  C     C_3   0.770105 0.788187 0.382543 -0.249929
C101  C     C_3   0.867196 0.791400 0.352951 -0.486865
C102  C     C_3   0.911281 0.239239 0.068149 -0.000112
C103  C     C_3   0.818542 0.114245 0.075756 -0.211784
C104  C     C_3   0.870035 0.037796 0.085171 -0.485821
C105  C     C_3   0.246062 0.052524 0.475643 0.036836
C106  C     C_3   0.163070 0.970200 0.513135 -0.266229
C107  C     C_3   0.057888 0.985620 0.518965 -0.489761
C108  C     C_3   0.761638 0.674591 0.068811 -0.001785
C109  C     C_3   0.885992 0.706921 0.079216 -0.214482
C110  C     C_R   0.888582 0.450453 0.816316 0.538093
C111  C     C_3   0.961563 0.834094 0.090575 -0.485835
C112  C     C_3   0.323345 0.092043 0.939565 -0.017674
C113  C     C_3   0.319845 0.155916 0.895952 -0.239265
C114  C     C_3   0.200311 0.095232 0.873355 -0.489493
C115  C     C_3   0.878629 0.193079 0.538506 0.018338
C116  C     C_3   0.849024 0.099191 0.574860 -0.278199
C117  C     C_3   0.840389 0.139495 0.624081 -0.360970
C118  C     C_3   0.768014 0.677815 0.937756 -0.017573
C119  C     C_3   0.837101 0.682446 0.894090 -0.239597
C120  C     C_3   0.895934 0.801747 0.871872 -0.490802
Cr1   Cr    Cr6+3 0.505050 0.756260 0.250000 1.016429
Cr2   Cr    Cr6+3 0.251210 0.494950 0.250000 1.014949
Cr3   Cr    Cr6+3 0.243740 0.748790 0.250000 1.030531
Cr4   Cr    Cr6+3 0.756260 0.505050 0.750000 1.004400
Cr5   Cr    Cr6+3 0.494950 0.251210 0.750000 1.024469
Cr6   Cr    Cr6+3 0.748790 0.243740 0.750000 1.001851
H1    H     H_    0.104074 0.247457 0.473877 0.164943
H2    H     H_    0.348071 0.237378 0.108523 0.192866
H3    H     H_    0.242765 0.262108 0.972411 0.124010
H4    H     H_    0.170932 0.278988 0.922809 0.112410
H5    H     H_    0.153787 0.328752 0.978831 0.142142
H6    H     H_    0.460079 0.723602 0.016815 0.139435
H7    H     H_    0.444810 0.755271 0.078439 0.107807
H8    H     H_    0.552025 0.720301 0.061549 0.124943
H9    H     H_    0.938879 0.691114 0.479504 0.113114
H10   H     H_    0.940606 0.637058 0.420690 0.105170
H11   H     H_    0.020243 0.788256 0.433033 0.142728
H12   H     H_    0.261138 0.537415 0.018829 0.137791
H13   H     H_    0.318925 0.235793 0.046658 0.219658
H14   H     H_    0.311157 0.555229 0.079879 0.108083
H15   H     H_    0.168173 0.447133 0.064633 0.126873
H16   H     H_    0.694726 0.044866 0.467671 0.051984
H17   H     H_    0.684647 0.972402 0.412905 0.112627
H18   H     H_    0.752069 0.950262 0.463239 0.168045
H19   H     H_    0.276264 0.737116 0.017697 0.139343
H20   H     H_    0.244805 0.688957 0.079005 0.107346
H21   H     H_    0.279563 0.830915 0.063377 0.127034
H22   H     H_    0.518471 0.336633 0.419260 0.087777
H23   H     H_    0.405421 0.318419 0.378582 0.136326
H24   H     H_    0.117417 0.082908 0.057922 0.125938
H25   H     H_    0.388298 0.202729 0.412904 0.172603
H26   H     H_    0.150260 0.202745 0.096155 0.184718
H27   H     H_    0.142628 0.074916 0.120109 0.144746
H28   H     H_    0.744592 0.641210 0.423324 0.090477
H29   H     H_    0.836707 0.779619 0.450169 0.117826
H30   H     H_    0.688219 0.742508 0.362534 0.193214
H31   H     H_    0.789555 0.877723 0.388550 0.154439
H32   H     H_    0.951979 0.847307 0.369922 0.144494
H33   H     H_    0.177596 0.384342 0.443775 0.135474
H34   H     H_    0.868434 0.827634 0.317845 0.150930
H35   H     H_    0.853806 0.703418 0.348149 0.151428
H36   H     H_    0.959729 0.274732 0.101425 0.135362
H37   H     H_    0.972901 0.242640 0.040685 0.101182
H38   H     H_    0.761947 0.108295 0.105661 0.193852
H39   H     H_    0.765515 0.083472 0.043502 0.217810
H40   H     H_    0.920151 0.037574 0.054008 0.124256
H41   H     H_    0.799455 0.948343 0.091646 0.184937
H42   H     H_    0.926841 0.068772 0.116530 0.145240
H43   H     H_    0.193728 0.063417 0.448074 0.152401
H44   H     H_    0.092112 0.288373 0.368020 0.176785
H45   H     H_    0.299952 0.139206 0.490656 0.250412
H46   H     H_    0.134327 0.880183 0.503585 0.237831
H47   H     H_    0.207537 0.988214 0.547538 0.182913
H48   H     H_    0.085108 0.078026 0.522861 0.158345
H49   H     H_    0.008660 0.940247 0.550729 0.146324
H50   H     H_    0.000262 0.949619 0.488069 0.130705
H51   H     H_    0.721886 0.686443 0.101217 0.134477
H52   H     H_    0.761948 0.733176 0.041086 0.103638
H53   H     H_    0.887904 0.654865 0.109060 0.193005
H54   H     H_    0.921082 0.686724 0.047595 0.220956
H55   H     H_    0.177228 0.234381 0.394515 0.158932
H56   H     H_    0.965796 0.885843 0.059625 0.127742
H57   H     H_    0.050514 0.852917 0.098853 0.181193
H58   H     H_    0.926448 0.857988 0.121344 0.145082
H59   H     H_    0.258382 0.087065 0.965377 0.116278
H60   H     H_    0.298108 0.002764 0.928517 0.110292
H61   H     H_    0.343707 0.245174 0.905443 0.194993
H62   H     H_    0.384215 0.160806 0.870001 0.202472
H63   H     H_    0.179193 0.008594 0.860556 0.147968
H64   H     H_    0.199175 0.146347 0.843055 0.163373
H65   H     H_    0.133373 0.085924 0.899069 0.120795
H66   H     H_    0.910829 0.116061 0.395816 0.176281
H67   H     H_    0.881414 0.156226 0.503937 0.165108
H68   H     H_    0.808585 0.215294 0.538308 0.119357
H69   H     H_    0.765093 0.022705 0.565482 0.190226
H70   H     H_    0.916237 0.073549 0.574425 0.152958
H71   H     H_    0.926779 0.207507 0.636341 0.181159
H72   H     H_    0.806958 0.065957 0.648796 0.144311
H73   H     H_    0.780808 0.174531 0.623907 0.173791
H74   H     H_    0.826796 0.743097 0.963522 0.116133
H75   H     H_    0.702500 0.701109 0.926670 0.110782
H76   H     H_    0.903006 0.658958 0.903392 0.196070
H77   H     H_    0.994979 0.063598 0.425262 0.128434
H78   H     H_    0.778332 0.618745 0.867999 0.203936
H79   H     H_    0.830086 0.822777 0.859365 0.147145
H80   H     H_    0.949116 0.803561 0.841423 0.162468
H81   H     H_    0.953010 0.867922 0.897726 0.121742
H82   H     H_    0.515383 0.275314 0.499711 0.179977
H83   H     H_    0.585488 0.192711 0.498290 0.085590
H84   H     H_    0.574477 0.323729 0.585337 0.205425
H85   H     H_    0.651990 0.246877 0.579980 0.147316
H86   H     H_    0.774205 0.377611 0.516070 0.140161
H87   H     H_    0.781018 0.457751 0.568244 0.158326
H88   H     H_    0.998179 0.073879 0.362118 0.130238
H89   H     H_    0.695238 0.454016 0.518820 0.120681
H90   H     H_    0.913964 0.174282 0.963814 0.116596
H91   H     H_    0.997788 0.298011 0.927116 0.111449
H92   H     H_    0.754697 0.099429 0.903804 0.195218
H93   H     H_    0.839803 0.223669 0.868535 0.203890
H94   H     H_    0.993058 0.171959 0.859393 0.148214
H95   H     H_    0.854779 0.053852 0.841449 0.162688
H96   H     H_    0.914561 0.049385 0.897591 0.121172
H97   H     H_    0.838986 0.749188 0.537984 0.140360
H98   H     H_    0.753792 0.618926 0.570913 0.118559
H99   H     H_    0.314391 0.039493 0.102627 0.135139
H100  H     H_    0.842070 0.864999 0.607166 0.162858
H101  H     H_    0.746411 0.735551 0.638677 0.176658
H102  H     H_    0.896445 0.674115 0.633548 0.200583
H103  H     H_    0.946517 0.808057 0.664780 0.141596
H104  H     H_    0.994060 0.808304 0.605402 0.175932
H105  H     H_    0.244514 0.768305 0.542658 0.133240
H106  H     H_    0.198048 0.686439 0.597266 0.108204
H107  H     H_    0.196006 0.818128 0.591557 0.130404
H108  H     H_    0.738346 0.982179 0.969763 0.121507
H109  H     H_    0.719053 0.891890 0.920160 0.113233
H110  H     H_    0.269028 0.029059 0.042182 0.102105
H111  H     H_    0.671379 0.827242 0.976475 0.143801
H112  H     H_    0.230075 0.368372 0.534076 0.123074
H113  H     H_    0.290896 0.392607 0.592793 0.118023
H114  H     H_    0.191748 0.249928 0.572986 0.155876
H115  H     H_    0.016337 0.755353 0.972063 0.123692
H116  H     H_    0.107146 0.827500 0.922740 0.112414
H117  H     H_    0.172206 0.844112 0.978891 0.143280
H118  H     H_    0.409191 0.689745 0.556052 0.116157
H119  H     H_    0.411889 0.774979 0.606861 0.074514
H120  H     H_    0.507159 0.718255 0.603881 0.170286
O1    O     O_R   0.530190 0.870330 0.301660 -0.513569
O2    O     O_R   0.870330 0.530190 0.698340 -0.517066
O3    O     O_R   0.469810 0.340140 0.801660 -0.516329
O4    O     O_R   0.659860 0.129670 0.698340 -0.528218
O5    O     O_R   0.494300 0.651190 0.297490 -0.497659
O6    O     O_R   0.156890 0.505700 0.202510 -0.497702
O7    O     O_R   0.348810 0.843110 0.297490 -0.484073
O8    O     O_R   0.494300 0.651190 0.202510 -0.498654
O9    O     O_R   0.156890 0.505700 0.297490 -0.499439
O10   O     O_R   0.348810 0.843110 0.202510 -0.498087
O11   O     O_R   0.651190 0.494300 0.797490 -0.503269
O12   O     O_R   0.340140 0.469810 0.198340 -0.502288
O13   O     O_R   0.505700 0.156890 0.702510 -0.483238
O14   O     O_R   0.843110 0.348810 0.797490 -0.502256
O15   O     O_R   0.651190 0.494300 0.702510 -0.500035
O16   O     O_R   0.505700 0.156890 0.797490 -0.504178
O17   O     O_R   0.843110 0.348810 0.702510 -0.499136
O18   O     O_3   0.333333 0.666667 0.250000 -0.244498
O19   O     O_3   0.666667 0.333333 0.750000 -0.236766
O20   O     O_3   0.995307 0.302462 0.448326 -0.584859
O21   O     O_3   0.445579 0.144075 0.056714 -0.510173
O22   O     O_3   0.665146 0.728190 0.455431 -0.486587
O23   O     O_R   0.129670 0.659860 0.301660 -0.500496
O24   O     O_3   0.854977 0.300435 0.055658 -0.510413
O25   O     O_3   0.313757 0.013385 0.451834 -0.581449
O26   O     O_3   0.701775 0.557856 0.055035 -0.510399
O27   O     O_3   0.434702 0.153148 0.960025 -0.520232
O28   O     O_3   0.987686 0.288976 0.549124 -0.576928
O29   O     O_3   0.719280 0.567253 0.958242 -0.520360
O30   O     O_3   0.433798 0.132971 0.541851 -0.550600
O31   O     O_3   0.846124 0.282267 0.958801 -0.520441
O32   O     O_3   0.672680 0.713667 0.552079 -0.509481
O33   O     O_3   0.067004 0.681043 0.555813 -0.577884
O34   O     O_R   0.530190 0.870330 0.198340 -0.503694
O35   O     O_3   0.568037 0.880189 0.943421 -0.556191
O36   O     O_3   0.355192 0.319862 0.544963 -0.534554
O37   O     O_3   0.119134 0.688761 0.944735 -0.556820
O38   O     O_3   0.551808 0.855723 0.560321 -0.512016
O39   O     O_3   0.310243 0.430356 0.944904 -0.557190
O40   O     O_3   0.589107 0.881242 0.043988 -0.592495
O41   O     O_3   0.092699 0.697950 0.459425 -0.537044
O42   O     O_3   0.292676 0.410728 0.045639 -0.592436
O43   O     O_3   0.573513 0.863667 0.463906 -0.472858
O44   O     O_3   0.117918 0.706888 0.045475 -0.592529
O45   O     O_R   0.340140 0.469810 0.301660 -0.515254
O46   O     O_3   0.365104 0.324295 0.448817 -0.591365
O47   O     O_R   0.129670 0.659860 0.198340 -0.504086
O48   O     O_R   0.870330 0.530190 0.801660 -0.514530
O49   O     O_R   0.469810 0.340140 0.698340 -0.495727
O50   O     O_R   0.659860 0.129670 0.801660 -0.514902

loop_
_geom_bond_atom_site_label_1
_geom_bond_atom_site_label_2
_ccdc_geom_bond_type
C54   O36   S    
C45   O26   S    
C98   H28   S    
C3    H83   S    
C93   C94   S    
C56   C76   A    
C29   C33   S    
C45   C71   A    
C13   C32   S    
C95   C96   S    
C115  O28   S    
Cr1   O34   S    
C69   C90   S    
C23   O44   S    
C118  H74   S    
C96   H13   S    
C53   C59   A    
C39   O20   S    
C8    H96   S    
Cr1   O8    S    
C18   O39   S    
C108  C109  S    
C19   H8    S    
C40   C46   A    
C23   H19   S    
C15   H112  S    
C1    O45   A    
C103  H38   S    
C4    H85   S    
C105  H43   S    
C92   H33   S    
C114  H64   S    
C120  H79   S    
C64   C68   A    
C77   O34   A    
C92   C93   S    
Cr4   O2    S    
C99   O4    A    
Cr1   O18   S    
C112  H60   S    
C51   O32   S    
C57   O38   S    
C44   O7    A    
Cr1   O5    S    
C2    O15   A    
C104  H42   S    
C107  H50   S    
C36   C83   T    
C105  O25   S    
C113  H61   S    
C15   H113  S    
Cr4   O19   S    
C68   C91   S    
C4    H84   S    
C116  C117  S    
C62   C70   A    
C25   H23   S    
C28   C91   T    
C61   O42   S    
C116  H70   S    
C27   C85   T    
C22   O43   S    
C109  H53   S    
C118  C119  S    
C29   C90   T    
C8    H95   S    
C52   C60   A    
C44   O1    A    
C59   C67   A    
C17   O38   S    
C93   H55   S    
C100  H31   S    
Cr2   O12   S    
C63   C69   A    
C49   O30   S    
C98   O22   S    
C102  H37   S    
C40   C67   A    
Cr5   O16   S    
C108  H51   S    
C1    C28   S    
C97   H24   S    
C49   C75   A    
Cr6   O19   S    
Cr2   O6    S    
C97   H27   S    
C25   H22   S    
C105  H45   S    
C9    C10   S    
C53   C72   A    
C46   C72   A    
C117  H73   S    
C55   O8    A    
C26   C86   T    
C92   O20   S    
C16   H115  S    
C61   C71   A    
C58   C61   A    
C115  H67   S    
C11   H103  S    
C114  H63   S    
C17   H120  S    
C39   C65   A    
C30   C44   S    
C18   H5    S    
C119  H76   S    
C106  H46   S    
C21   H12   S    
C30   C89   T    
Cr4   O48   S    
C118  O29   S    
C59   O40   S    
C3    O30   S    
C12   H106  S    
C41   C68   A    
Cr6   O50   S    
Cr2   O18   S    
C14   O35   S    
C12   H107  S    
C9    H98   S    
C23   H20   S    
C93   H44   S    
C94   H88   S    
C62   O43   S    
C67   C85   S    
C119  H78   S    
C25   O46   S    
C48   O29   S    
C46   O27   S    
C75   C83   S    
C48   C74   A    
C65   C86   S    
C31   C87   T    
C112  O27   S    
C101  H34   S    
C52   C73   A    
C76   C82   S    
Cr2   O9    S    
C77   O10   A    
C11   H102  S    
C57   C62   A    
C19   O40   S    
C23   H21   S    
C15   H114  S    
C42   C69   A    
C24   C34   S    
C17   H118  S    
C22   H17   S    
C60   C65   A    
C20   O41   S    
C26   C66   S    
C20   H11   S    
C42   O24   S    
C33   O6    A    
C95   H99   S    
C106  H47   S    
C110  O14   A    
C8    H94   S    
C24   O2    A    
C50   C76   A    
C34   C79   T    
C32   C80   T    
C96   H2    S    
C110  O48   A    
C35   C88   S    
C9    H97   S    
C95   O21   S    
Cr3   O10   S    
C50   O31   S    
C17   H119  S    
Cr3   O18   S    
C102  H36   S    
C5    H87   S    
C96   C97   S    
C22   H16   S    
C111  H57   S    
C73   C79   S    
C56   C63   A    
C108  H52   S    
C106  C107  S    
C20   H10   S    
C119  C120  S    
C12   O33   S    
C47   C73   A    
C37   C110  S    
Cr5   O49   S    
C88   O11   A    
C42   C50   A    
C52   O33   S    
C71   C87   S    
C15   O36   S    
C115  H68   S    
Cr4   O11   S    
C103  H39   S    
C43   C70   A    
C98   C100  S    
C56   O37   S    
C38   C81   T    
C25   H25   S    
C10   H101  S    
C37   C82   T    
C18   H4    S    
C118  H75   S    
C19   H7    S    
C100  H30   S    
C3    H82   S    
C22   H18   S    
C3    C4    S    
Cr3   O47   S    
C92   H1    S    
C10   H100  S    
C14   H108  S    
C112  H59   S    
C117  H71   S    
C58   C74   A    
C12   H105  S    
C39   C47   A    
C113  C114  S    
C13   O16   A    
C45   C48   A    
C19   H6    S    
C5    H86   S    
C98   H29   S    
C13   O50   A    
C114  H65   S    
C102  O24   S    
Cr5   O19   S    
C120  H81   S    
C43   O25   S    
C2    O49   A    
C99   O13   A    
C43   C49   A    
Cr2   O45   S    
C74   C84   S    
C4    C5    S    
C41   O22   S    
C101  H32   S    
C14   H111  S    
C35   C84   T    
C7    H92   S    
C53   O35   S    
C6    C7    S    
C107  H48   S    
C11   H104  S    
C105  C106  S    
Cr5   O13   S    
C60   O41   S    
Cr6   O14   S    
C16   H117  S    
C64   O46   S    
C55   O12   A    
C120  H80   S    
C2    C38   S    
C57   C75   A    
C16   O37   S    
Cr5   O3    S    
C103  C104  S    
C51   C78   A    
C47   O28   S    
C72   C80   S    
C66   O23   A    
C104  H41   S    
C113  H62   S    
C78   C81   S    
Cr3   O23   S    
C63   O44   S    
C107  H49   S    
Cr4   O15   S    
C109  H54   S    
C109  C111  S    
C24   O17   A    
C101  H35   S    
C111  H58   S    
C97   H26   S    
Cr6   O17   S    
C36   C99   S    
C112  C113  S    
C111  H56   S    
C20   H9    S    
C102  C103  S    
C9    O32   S    
C21   O42   S    
C94   H66   S    
Cr3   O7    S    
C7    C8    S    
C10   C11   S    
C117  H72   S    
C104  H40   S    
C70   C89   S    
C40   O21   S    
Cr1   O1    S    
C6    H90   S    
C66   O9    A    
C54   C64   A    
C21   H15   S    
Cr6   O4    S    
C95   H110  S    
C14   H109  S    
C7    H93   S    
C116  H69   S    
C27   C77   S    
C6    H91   S    
C18   H3    S    
C100  C101  S    
C94   H77   S    
C21   H14   S    
C31   C55   S    
C6    O31   S    
C108  O26   S    
C41   C51   A    
C33   O47   A    
C1    O5    A    
C115  C116  S    
C16   H116  S    
C88   O3    A    
C54   C78   A    
C58   O39   S    
C5    H89   S    
