data_mof_unit_54440.cif
_audit_creation_date              2012-12-10T17:23:32-0500
_audit_creation_method            fapswitch 2.2
_symmetry_space_group_name_H-M    P1
_symmetry_Int_Tables_number       1
_space_group_crystal_system       triclinic
_cell_length_a                    10.187554
_cell_length_b                    10.688509
_cell_length_c                    15.766004
_cell_angle_alpha                 89.954771
_cell_angle_beta                  80.970774
_cell_angle_gamma                 95.271843
_cell_volume                      1688.10924689

loop_
_atom_site_label
_atom_site_type_symbol
_atom_type_description
_atom_site_fract_x
_atom_site_fract_y
_atom_site_fract_z
_atom_type_partial_charge
C1    C     C_R   0.556248 0.733564 0.491572 0.879100
C2    C     C_3   0.512978 0.387052 0.970731 0.083514
C3    C     C_3   0.602600 0.580038 0.961497 0.044111
C4    C     C_3   0.399692 0.425719 0.038229 0.068492
C5    C     C_1   0.500187 0.500623 0.750356 -0.198930
C6    C     C_1   0.500268 0.500792 0.249524 -0.183843
C7    C     C_3   0.384022 0.542318 0.984036 0.049715
C8    C     C_3   0.618071 0.463189 0.015641 0.017428
C9    C     C_3   0.499055 0.503054 0.916033 0.065090
C10   C     C_3   0.502425 0.502062 0.083631 0.049804
C11   C     C_1   0.500101 0.501547 0.825371 -0.043091
C12   C     C_R   0.443759 0.266443 0.502843 0.879988
C13   C     C_1   0.500852 0.501512 0.174429 -0.029191
C14   C     C_2   0.588676 0.867826 0.475925 -0.080496
C15   C     C_2   0.411373 0.132213 0.493680 -0.075951
C16   C     C_3   0.744956 0.417490 0.040754 -0.409529
C17   C     C_3   0.848640 0.392544 0.962670 -0.337391
C18   C     C_3   0.962108 0.326198 0.989720 -0.910006
C19   C     C_3   0.248422 0.578181 0.966970 -0.417824
C20   C     C_3   0.259643 0.700474 0.914520 -0.304735
C21   C     C_3   0.125123 0.724300 0.889587 -0.904230
C22   C     C_2   0.493186 0.932404 0.452409 -0.157801
C23   C     C_2   0.507029 0.067711 0.450982 -0.158245
C24   C     C_2   0.927689 0.510301 0.506187 -0.007445
C25   C     C_2   0.072478 0.490368 0.493361 -0.006362
C26   C     C_R   0.500000 0.499994 0.661814 0.907207
C27   C     C_R   0.500019 0.500042 0.338156 0.902217
C28   C     C_3   0.488599 0.618259 0.029346 0.089098
H1    H     H_    0.603643 0.114085 0.422949 0.177599
H2    H     H_    0.558100 0.764221 0.097280 0.185863
H3    H     H_    0.550579 0.205358 0.984868 0.193715
H4    H     H_    0.592932 0.262905 0.883943 0.175803
H5    H     H_    0.010479 0.383748 0.036838 0.255837
H6    H     H_    0.923564 0.232925 0.019178 0.266693
H7    H     H_    0.037707 0.311900 0.932557 0.248129
H8    H     H_    0.802076 0.332788 0.915991 0.221426
H9    H     H_    0.891044 0.482834 0.930338 0.218734
H10   H     H_    0.789350 0.489618 0.081306 0.200359
H11   H     H_    0.715976 0.329950 0.079942 0.210066
H12   H     H_    0.396645 0.886061 0.443816 0.186286
H13   H     H_    0.090904 0.647519 0.848467 0.256623
H14   H     H_    0.049187 0.730118 0.947946 0.260947
H15   H     H_    0.135110 0.814418 0.853041 0.251929
H16   H     H_    0.293192 0.780663 0.952978 0.227734
H17   H     H_    0.333430 0.695808 0.855030 0.228132
H18   H     H_    0.203139 0.500237 0.931421 0.210846
H19   H     H_    0.182902 0.588175 0.029460 0.203145
H20   H     H_    0.220710 0.136854 0.558501 0.196690
H21   H     H_    0.298465 0.012980 0.581384 0.183812
H22   H     H_    0.779004 0.863056 0.502651 0.196825
H23   H     H_    0.110176 0.421866 0.447288 0.159032
H24   H     H_    0.701110 0.986931 0.540971 0.188118
H25   H     H_    0.165132 0.724997 0.575410 0.203182
H26   H     H_    0.135930 0.613402 0.652777 0.201853
H27   H     H_    0.834612 0.273870 0.426840 0.202739
H28   H     H_    0.863211 0.383379 0.348104 0.202262
H29   H     H_    0.890178 0.579507 0.551768 0.152573
H30   H     H_    0.774288 0.692629 0.961918 0.181423
H31   H     H_    0.762974 0.620595 0.868142 0.185131
H32   H     H_    0.239720 0.298917 0.034915 0.195576
H33   H     H_    0.226029 0.391878 0.121113 0.180429
H34   H     H_    0.494592 0.806937 0.011277 0.187503
N1    N     N_2   0.842700 0.448880 0.465440 -0.090132
N2    N     N_3   0.889047 0.359367 0.407166 -0.423274
N3    N     N_2   0.157300 0.551120 0.534560 -0.090928
N4    N     N_3   0.709630 0.668187 0.918068 -0.465414
N5    N     N_3   0.291637 0.338829 0.081850 -0.445798
N6    N     N_3   0.478431 0.744204 0.063503 -0.451368
N7    N     N_3   0.519171 0.259856 0.938155 -0.452999
N8    N     N_3   0.283305 0.070737 0.530902 -0.457921
N9    N     N_3   0.716604 0.929228 0.487473 -0.457020
N10   N     N_3   0.110572 0.639126 0.593915 -0.430391
O1    O     O_R   0.431060 0.692470 0.506960 -0.622922
O2    O     O_R   0.568940 0.307530 0.493040 -0.622706
O3    O     O_R   0.651120 0.659650 0.484770 -0.612516
O4    O     O_R   0.348880 0.340350 0.515230 -0.613499
O5    O     O_R   0.389990 0.516420 0.634310 -0.610250
O6    O     O_R   0.610010 0.483580 0.365690 -0.615027
O7    O     O_R   0.610050 0.483600 0.612130 -0.612369
O8    O     O_R   0.389950 0.516400 0.387870 -0.609901
Zn1   Zn    Zn3+2 0.353060 0.521920 0.514810 0.939230
Zn2   Zn    Zn3+2 0.646940 0.478080 0.485190 0.937496

loop_
_geom_bond_atom_site_label_1
_geom_bond_atom_site_label_2
_ccdc_geom_bond_type
C12   O2    A    
C14   N9    S    
C19   C20   S    
C27   O6    A    
C19   H18   S    
C23   H1    S    
C3    C28   S    
C28   N6    S    
C5    C11   T    
H31   N4    S    
C19   H19   S    
O6    Zn2   S    
C21   H15   S    
H30   N4    S    
H32   N5    S    
C16   C17   S    
H28   N2    S    
C17   H8    S    
C2    N7    S    
C18   H7    S    
C20   H17   S    
C15   C23   D    
C8    C16   S    
O2    Zn2   S    
C4    C7    S    
O1    Zn1   S    
C20   H16   S    
C26   O5    A    
N1    Zn2   S    
C1    O3    A    
C25   N3    D    
C24   C25   S    
C27   O8    A    
C24   H29   S    
C7    C28   S    
C5    C26   S    
C2    C4    S    
H22   N9    S    
C25   H23   S    
C3    C9    S    
C4    N5    S    
C9    C11   S    
H33   N5    S    
N3    Zn1   S    
C6    C27   S    
C12   C15   S    
O5    Zn1   S    
C22   H12   S    
H27   N2    S    
C17   C18   S    
C17   H9    S    
C18   H6    S    
C21   H13   S    
C3    C8    S    
C24   N1    D    
C7    C19   S    
H21   N8    S    
C12   O4    A    
C3    N4    S    
C4    C10   S    
C10   C28   S    
C7    C9    S    
C15   N8    S    
C21   H14   S    
C2    C8    S    
H20   N8    S    
O8    Zn1   S    
C10   C13   S    
O4    Zn1   S    
O7    Zn2   S    
O3    Zn2   S    
H4    N7    S    
N3    N10   S    
C26   O7    A    
H34   N6    S    
C1    O1    A    
C14   C22   D    
H24   N9    S    
C6    C13   T    
H25   N10   S    
C18   H5    S    
C16   H11   S    
N1    N2    S    
H3    N7    S    
H26   N10   S    
C20   C21   S    
C8    C10   S    
C22   C23   S    
C1    C14   S    
C2    C9    S    
H2    N6    S    
C16   H10   S    
