data_mof_unit_27165.cif
_audit_creation_date              2012-12-10T20:28:47-0500
_audit_creation_method            fapswitch 2.2
_symmetry_space_group_name_H-M    P1
_symmetry_Int_Tables_number       1
_space_group_crystal_system       triclinic
_cell_length_a                    10.689313
_cell_length_b                    10.718366
_cell_length_c                    9.851659
_cell_angle_alpha                 90.311715
_cell_angle_beta                  89.977441
_cell_angle_gamma                 88.367271
_cell_volume                      1128.24884297

loop_
_atom_site_label
_atom_site_type_symbol
_atom_type_description
_atom_site_fract_x
_atom_site_fract_y
_atom_site_fract_z
_atom_type_partial_charge
C1    C     C_R   0.506204 0.260175 0.499485 0.927817
C2    C     C_R   0.547745 0.931812 0.381796 -0.254528
C3    C     C_R   0.509828 0.870829 0.499300 -0.090687
C4    C     C_R   0.260176 0.511816 0.500218 0.860863
C5    C     C_R   0.465448 0.938234 0.610777 0.105974
C6    C     C_3   0.499298 0.928712 0.757369 -0.498504
C7    C     C_3   0.502929 0.070284 0.758210 0.007301
C8    C     C_R   0.437133 0.411146 0.070730 0.215903
C9    C     C_R   0.571066 0.580305 0.072459 -0.116848
C10   C     C_R   0.571143 0.580256 0.928374 -0.106744
C11   C     C_R   0.436877 0.411549 0.928040 0.207017
C12   C     C_R   0.054953 0.630593 0.538158 0.041017
C13   C     C_3   0.299805 0.390743 0.921642 -0.534646
C14   C     C_3   0.299819 0.389800 0.075879 -0.051316
C15   C     C_R   0.507488 0.739190 0.500164 0.842641
C16   C     C_R   0.739572 0.496179 0.499974 0.863321
C17   C     C_R   0.105099 0.749764 0.570636 0.062196
C18   C     C_R   0.026650 0.850894 0.607203 -0.070535
C19   C     C_R   0.898468 0.838825 0.611674 -0.186428
C20   C     C_R   0.847106 0.725751 0.578091 -0.193159
C21   C     C_R   0.923615 0.621291 0.540126 0.088825
C22   C     C_R   0.126594 0.520831 0.499881 -0.106967
C23   C     C_R   0.069737 0.411141 0.459755 -0.167157
C24   C     C_R   0.942165 0.405087 0.458878 -0.191278
C25   C     C_R   0.870721 0.508090 0.500514 -0.074531
C26   C     C_R   0.467708 0.065079 0.610635 0.021109
C27   C     C_R   0.511956 0.127874 0.497700 -0.082156
C28   C     C_R   0.550508 0.060859 0.380279 0.102152
H1    H     H_    0.124902 0.328824 0.430463 0.175055
H2    H     H_    0.838390 0.917837 0.639375 0.181272
H3    H     H_    0.746675 0.721894 0.581111 0.145008
H4    H     H_    0.898847 0.319117 0.428073 0.156507
H5    H     H_    0.580021 0.879739 0.293198 0.166189
H6    H     H_    0.421556 0.892077 0.819132 0.196872
H7    H     H_    0.265863 0.750726 0.466490 0.191270
H8    H     H_    0.278916 0.724590 0.640282 0.221158
H9    H     H_    0.546545 0.096300 0.178815 0.223210
H10   H     H_    0.691241 0.089248 0.247753 0.191455
H11   H     H_    0.591683 0.880772 0.773485 0.214521
H12   H     H_    0.427525 0.114421 0.821354 0.159627
H13   H     H_    0.626437 0.646824 0.127280 0.151100
H14   H     H_    0.626635 0.646657 0.874256 0.147995
H15   H     H_    0.246480 0.471864 0.878615 0.209263
H16   H     H_    0.278788 0.299487 0.874121 0.223482
H17   H     H_    0.245764 0.469725 0.121418 0.171051
H18   H     H_    0.065915 0.940427 0.631426 0.158599
I1    I     I_    0.687247 0.136666 0.799407 -0.412056
I2    I     I_    0.259985 0.211050 0.158964 -0.402702
N1    N     N_R   0.499160 0.499140 0.142800 -0.124887
N2    N     N_R   0.499160 0.499180 0.857150 -0.104382
N3    N     N_3   0.234123 0.774987 0.563515 -0.473717
N4    N     N_3   0.599269 0.122093 0.263284 -0.409452
O1    O     O_R   0.500020 0.316790 0.614690 -0.601732
O2    O     O_R   0.500000 0.316760 0.385350 -0.576607
O3    O     O_R   0.316770 0.500020 0.614690 -0.625746
O4    O     O_R   0.316760 0.499980 0.385350 -0.609317
O5    O     O_R   0.500000 0.683240 0.614650 -0.642123
O6    O     O_R   0.499980 0.683210 0.385310 -0.629015
O7    O     O_R   0.683240 0.500020 0.614650 -0.605907
O8    O     O_R   0.683230 0.499980 0.385310 -0.615054
Zn1   Zn    Zn3+2 0.500010 0.500020 0.653130 0.957087
Zn2   Zn    Zn3+2 0.499990 0.499980 0.346870 0.971322

loop_
_geom_bond_atom_site_label_1
_geom_bond_atom_site_label_2
_ccdc_geom_bond_type
C12   C17   A    
O6    Zn2   S    
C2    C28   A    
C23   C24   A    
C24   H4    S    
O5    Zn1   S    
C6    C7    S    
C16   C25   S    
C12   C22   A    
C10   H14   S    
C15   O5    A    
C9    C10   A    
C9    H13   S    
C19   C20   A    
C7    H12   S    
C17   N3    S    
C2    C3    A    
C3    C15   S    
C11   N2    A    
C13   C14   S    
C24   C25   A    
C1    O1    A    
C28   N4    S    
C26   C27   A    
H8    N3    S    
C7    C26   S    
C8    C14   S    
C1    O2    A    
O3    Zn1   S    
C2    H5    S    
C17   C18   A    
C14   H17   S    
C8    C11   A    
C4    O3    A    
H7    N3    S    
C5    C6    S    
C15   O6    A    
O4    Zn2   S    
O7    Zn1   S    
C11   C13   S    
H10   N4    S    
H9    N4    S    
N2    Zn1   S    
C5    C26   A    
C18   H18   S    
C23   H1    S    
C13   H15   S    
C9    N1    A    
C20   C21   A    
O8    Zn2   S    
C18   C19   A    
C16   O8    A    
C27   C28   A    
C1    C27   S    
C4    C22   S    
C21   C25   A    
C22   C23   A    
C14   I2    S    
N1    Zn2   S    
O2    Zn2   S    
C8    N1    A    
C6    H11   S    
C19   H2    S    
O1    Zn1   S    
C12   C21   A    
C20   H3    S    
C13   H16   S    
C4    O4    A    
C6    H6    S    
C7    I1    S    
C3    C5    A    
C16   O7    A    
C10   N2    A    
