data_mof_unit_22712.cif
_audit_creation_date              2012-12-10T20:26:25-0500
_audit_creation_method            fapswitch 2.2
_symmetry_space_group_name_H-M    P1
_symmetry_Int_Tables_number       1
_space_group_crystal_system       triclinic
_cell_length_a                    10.722228
_cell_length_b                    10.619901
_cell_length_c                    9.85326
_cell_angle_alpha                 90.190461
_cell_angle_beta                  90.844158
_cell_angle_gamma                 89.843952
_cell_volume                      1121.84887714

loop_
_atom_site_label
_atom_site_type_symbol
_atom_type_description
_atom_site_fract_x
_atom_site_fract_y
_atom_site_fract_z
_atom_type_partial_charge
C1    C     C_R   0.496308 0.259418 0.499619 0.880964
C2    C     C_R   0.471012 0.128041 0.497210 -0.095240
C3    C     C_R   0.462865 0.063687 0.373014 -0.217918
C4    C     C_R   0.455757 0.933908 0.373503 -0.186081
C5    C     C_R   0.455513 0.870188 0.498322 -0.150501
C6    C     C_R   0.427348 0.937260 0.617072 0.014034
C7    C     C_3   0.474596 0.928075 0.762373 0.301454
C8    C     C_3   0.500887 0.068785 0.754471 -0.486353
C9    C     C_R   0.427583 0.416764 0.069744 0.206168
C10   C     C_R   0.579661 0.574100 0.074076 -0.268993
C11   C     C_R   0.582984 0.572094 0.928534 0.509444
C12   C     C_R   0.262544 0.497764 0.498996 0.916757
C13   C     C_R   0.427307 0.417072 0.927273 0.121598
C14   C     C_3   0.288812 0.407694 0.918959 -0.501856
C15   C     C_3   0.288890 0.407693 0.072968 -0.488624
C16   C     C_R   0.488682 0.739796 0.500134 0.870238
C17   C     C_R   0.737489 0.504988 0.500802 0.945955
C18   C     C_2   0.931809 0.522045 0.386697 -0.160032
C19   C     C_2   0.868876 0.522172 0.502638 -0.341089
C20   C     C_2   0.065948 0.528664 0.388574 -0.161197
C21   C     C_2   0.130822 0.488683 0.496640 -0.338291
C22   C     C_R   0.442728 0.064913 0.616284 0.067092
H1    H     H_    0.885130 0.515878 0.288265 0.166546
H2    H     H_    0.639494 0.636486 0.132137 0.169219
H3    H     H_    0.244284 0.493003 0.874314 0.206440
H4    H     H_    0.257754 0.316866 0.873586 0.206470
H5    H     H_    0.244762 0.493247 0.116471 0.204867
H6    H     H_    0.257334 0.317082 0.116769 0.205380
H7    H     H_    0.088299 0.447924 0.585426 0.149113
H8    H     H_    0.473255 0.111385 0.276817 0.174954
H9    H     H_    0.559853 0.869889 0.777810 0.149579
H10   H     H_    0.445956 0.127455 0.825894 0.227836
N1    N     N_R   0.499170 0.499140 0.142800 -0.125326
N2    N     N_R   0.499170 0.499180 0.857150 -0.149322
O1    O     O_R   0.500020 0.316790 0.614690 -0.615233
O2    O     O_R   0.500000 0.316760 0.385350 -0.621138
O3    O     O_R   0.319080 0.500020 0.614640 -0.637069
O4    O     O_R   0.319070 0.499980 0.385300 -0.613802
O5    O     O_R   0.500000 0.683240 0.614650 -0.613973
O6    O     O_R   0.499980 0.683210 0.385310 -0.618688
O7    O     O_R   0.680930 0.500020 0.614700 -0.586369
O8    O     O_R   0.680920 0.499980 0.385360 -0.618625
Zn1   Zn    Zn3+2 0.500010 0.500020 0.653130 0.960625
Zn2   Zn    Zn3+2 0.499990 0.499980 0.346870 0.939717
H11   H     H_    0.602146 0.091006 0.751960 0.156317
O9    O     O_3   0.661440 0.649966 0.855810 -0.623897
C23   C     C_3   0.784185 0.653328 0.911155 0.058341
H12   H     H_    0.849985 0.638311 0.826710 0.159396
H13   H     H_    0.805345 0.576284 0.984875 0.118087
C24   C     C_3   0.810264 0.783300 0.973380 -0.356802
H14   H     H_    0.825097 0.852269 0.890574 0.214839
H15   H     H_    0.728813 0.815902 0.032522 0.226550
C25   C     C_3   0.924946 0.780838 0.067013 -0.963118
H16   H     H_    0.906391 0.722261 0.157592 0.262777
H17   H     H_    0.947175 0.877989 0.101378 0.268515
H18   H     H_    0.006715 0.741615 0.013481 0.266287
H19   H     H_    0.913020 0.537924 0.600943 0.147621
H20   H     H_    0.111408 0.564541 0.298891 0.162117
H21   H     H_    0.463996 0.884563 0.277605 0.180458
O10   O     O_3   0.382229 0.908782 0.862501 -0.631764
C26   C     C_3   0.301281 0.807144 0.832835 0.121427
H22   H     H_    0.288751 0.752302 0.927479 0.137704
H23   H     H_    0.338193 0.739891 0.757764 0.175746
C27   C     C_3   0.173788 0.858013 0.786410 -0.357376
H24   H     H_    0.124997 0.899133 0.874919 0.224958
H25   H     H_    0.185826 0.934032 0.710591 0.236612
C28   C     C_3   0.093516 0.754837 0.722307 -0.979846
H26   H     H_    0.135005 0.724015 0.625204 0.276898
H27   H     H_    0.998422 0.791965 0.700653 0.269303
H28   H     H_    0.086546 0.672785 0.791309 0.250120

loop_
_geom_bond_atom_site_label_1
_geom_bond_atom_site_label_2
_ccdc_geom_bond_type
C2    C22   A    
C26   C27   S    
C8    C22   S    
O4    Zn2   S    
C6    C7    S    
C12   C21   S    
C3    H8    S    
C17   O8    A    
O1    Zn1   S    
C15   H5    S    
C23   H12   S    
C25   H16   S    
C28   H28   S    
C27   H24   S    
C24   H14   S    
C9    C15   S    
C8    H11   S    
C5    C16   S    
C7    C8    S    
C23   H13   S    
C13   C14   S    
C14   H4    S    
C9    N1    A    
O7    Zn1   S    
C15   H6    S    
C5    C6    A    
C24   H15   S    
O8    Zn2   S    
C16   O6    A    
C18   H1    S    
C4    C5    A    
C1    C2    S    
C4    H21   S    
C17   C19   S    
C2    C3    A    
C23   C24   S    
C18   C20   S    
C25   H17   S    
C14   H3    S    
C12   O4    A    
C26   H22   S    
C17   O7    A    
O3    Zn1   S    
O2    Zn2   S    
C24   C25   S    
C7    H9    S    
C10   C11   A    
C16   O5    A    
C20   H20   S    
C28   H26   S    
C6    C22   A    
C27   C28   S    
C7    O10   S    
O6    Zn2   S    
C20   C21   D    
C1    O1    A    
C10   N1    A    
C25   H18   S    
C12   O3    A    
C26   H23   S    
C8    H10   S    
C9    C13   A    
O9    C23   S    
C18   C19   D    
C11   O9    S    
C13   N2    A    
C10   H2    S    
C14   C15   S    
N1    Zn2   S    
C21   H7    S    
O5    Zn1   S    
C11   N2    A    
C19   H19   S    
N2    Zn1   S    
C3    C4    A    
C1    O2    A    
O10   C26   S    
C28   H27   S    
C27   H25   S    
