data_mof_unit_47445.cif
_audit_creation_date              2012-12-11T14:56:24-0500
_audit_creation_method            fapswitch 2.2
_symmetry_space_group_name_H-M    P1
_symmetry_Int_Tables_number       1
_space_group_crystal_system       triclinic
_cell_length_a                    10.51673
_cell_length_b                    10.651987
_cell_length_c                    17.098205
_cell_angle_alpha                 79.958429
_cell_angle_beta                  90.049175
_cell_angle_gamma                 119.105292
_cell_volume                      1640.04548728

loop_
_atom_site_label
_atom_site_type_symbol
_atom_type_description
_atom_site_fract_x
_atom_site_fract_y
_atom_site_fract_z
_atom_type_partial_charge
C1    C     C_R   0.221810 0.853562 0.128680 0.543261
C2    C     C_1   0.685353 0.403136 0.709830 -0.068881
C3    C     C_R   0.609160 0.711665 0.804181 -0.152478
C4    C     C_R   0.637641 0.281657 0.086280 0.554319
C5    C     C_R   0.593931 0.699164 0.725867 -0.144335
C6    C     C_R   0.670914 0.822956 0.665358 0.003647
C7    C     C_R   0.770027 0.957905 0.683914 -0.069123
C8    C     C_R   0.783358 0.972816 0.762809 0.081148
C9    C     C_R   0.692932 0.850043 0.823541 0.029944
C10   C     C_R   0.233314 0.970653 0.756131 0.051280
C11   C     C_R   0.226833 0.957049 0.677732 -0.144660
C12   C     C_R   0.825025 0.455480 0.253897 -0.149566
C13   C     C_R   0.173818 0.820213 0.657875 -0.005625
C14   C     C_R   0.153906 0.698454 0.716123 0.079121
C15   C     C_R   0.162646 0.711002 0.796001 0.096958
C16   C     C_R   0.601138 0.881690 0.130883 0.561704
C17   C     C_R   0.197629 0.846051 0.816556 0.070407
C18   C     C_R   0.683323 0.813255 0.358487 0.547300
C19   C     C_R   0.727328 0.460350 0.383077 0.568874
C20   C     C_R   0.104465 0.810637 0.359274 0.546353
C21   C     C_R   0.677984 0.799699 0.585688 0.538707
C22   C     C_R   0.717669 0.446662 0.625844 0.563571
C23   C     C_R   0.804183 0.418551 0.179485 -0.153396
C24   C     C_R   0.104030 0.802770 0.584528 0.546120
C25   C     C_R   0.227623 0.866425 0.897492 0.593545
C26   C     C_R   0.640297 0.291136 0.861874 0.548200
C27   C     C_R   0.648034 0.866859 0.899439 0.554776
C28   C     C_R   0.550281 0.360874 0.195212 0.085656
C29   C     C_R   0.573189 0.400765 0.269681 -0.113898
C30   C     C_R   0.707632 0.438641 0.301185 0.002693
C31   C     C_R   0.664578 0.361171 0.151824 0.064859
C32   C     C_1   0.634823 0.871247 0.211105 -0.035316
C33   C     C_1   0.661642 0.855625 0.278821 -0.036148
C34   C     C_1   0.180556 0.825235 0.211337 -0.046687
C35   C     C_1   0.151819 0.820085 0.279871 -0.048205
C36   C     C_1   0.662316 0.359087 0.780417 -0.060589
Cr1   Cr    Cr6+3 0.402240 0.783890 0.019450 1.033304
Cr2   Cr    Cr6+3 0.382360 0.097900 0.991800 1.055573
Cr3   Cr    Cr6+3 0.715380 0.118170 0.988700 1.018389
Cr4   Cr    Cr6+3 0.936650 0.882420 0.465510 1.023063
Cr5   Cr    Cr6+3 0.605770 0.565620 0.493360 1.016142
Cr6   Cr    Cr6+3 0.921340 0.550490 0.496380 1.009565
H1    H     H_    0.250457 0.053002 0.632721 0.152711
H2    H     H_    0.192470 0.580717 0.646877 0.251026
H3    H     H_    0.013947 0.504328 0.685200 0.270167
H4    H     H_    0.205331 0.549798 0.845490 0.257533
H5    H     H_    0.025870 0.501569 0.852576 0.255554
H6    H     H_    0.946255 0.098896 0.825160 0.249029
H7    H     H_    0.831699 0.165285 0.793821 0.278627
H8    H     H_    0.198702 0.142566 0.752090 0.238299
H9    H     H_    0.376364 0.187932 0.741638 0.234950
H10   H     H_    0.483156 0.394382 0.304197 0.141064
H11   H     H_    0.931450 0.491244 0.275931 0.138149
H12   H     H_    0.895632 0.425336 0.146165 0.147823
H13   H     H_    0.544473 0.614279 0.849616 0.143470
H14   H     H_    0.524770 0.591193 0.712973 0.147561
H15   H     H_    0.838102 0.051444 0.637048 0.154524
H16   H     H_    0.385172 0.398428 0.162911 0.235805
H17   H     H_    0.331865 0.223637 0.208041 0.237584
N1    N     N_3   0.409393 0.313460 0.166280 -0.589934
N2    N     N_3   0.123067 0.561226 0.696691 -0.629550
N3    N     N_3   0.131532 0.585370 0.856637 -0.594368
N4    N     N_3   0.887330 0.113180 0.778464 -0.630294
N5    N     N_3   0.275108 0.112152 0.773290 -0.578397
O1    O     O_R   0.521780 0.757110 0.108900 -0.507767
O2    O     O_R   0.805020 0.410040 0.421340 -0.500883
O3    O     O_R   0.049240 0.685450 0.403290 -0.518795
O4    O     O_R   0.275160 0.783810 0.101120 -0.517139
O5    O     O_R   0.077520 0.903010 0.551800 -0.516318
O6    O     O_R   0.802980 0.872780 0.546830 -0.502804
O7    O     O_R   0.578090 0.681300 0.569920 -0.526931
O8    O     O_R   0.608530 0.436370 0.586530 -0.492592
O9    O     O_R   0.798770 0.401880 0.597100 -0.506652
O10   O     O_R   0.043450 0.677890 0.566230 -0.525539
O11   O     O_3   0.821250 0.666180 0.485090 -0.291914
O12   O     O_R   0.513330 0.228330 0.898660 -0.481609
O13   O     O_R   0.237900 0.972600 0.090980 -0.496485
O14   O     O_R   0.511190 0.220540 0.061620 -0.464454
O15   O     O_R   0.736920 0.257720 0.063840 -0.536361
O16   O     O_R   0.710450 0.984050 0.081720 -0.486530
O17   O     O_R   0.524090 0.765520 0.933110 -0.512097
O18   O     O_R   0.277300 0.791600 0.938160 -0.474047
O19   O     O_R   0.240210 0.981010 0.915190 -0.481719
O20   O     O_R   0.739230 0.266130 0.888050 -0.533829
O21   O     O_R   0.712580 0.991850 0.918770 -0.504991
O22   O     O_3   0.499990 0.999980 0.999980 -0.282009
O23   O     O_R   0.083770 0.911170 0.376030 -0.502552
O24   O     O_R   0.808770 0.880340 0.383890 -0.489893
O25   O     O_R   0.584340 0.689460 0.394160 -0.519795
O26   O     O_R   0.614320 0.443940 0.423590 -0.497200

loop_
_geom_bond_atom_site_label_1
_geom_bond_atom_site_label_2
_ccdc_geom_bond_type
Cr5   O25   S    
Cr1   O4    S    
H7    N4    S    
Cr2   O19   S    
C1    O13   A    
C5    H14   S    
H5    N3    S    
C7    C8    A    
Cr2   O12   S    
C12   C23   A    
Cr6   O11   S    
Cr4   O6    S    
C21   O7    A    
Cr4   O23   S    
C28   C29   A    
Cr3   O20   S    
C5    C6    A    
C10   C17   A    
H16   N1    S    
C20   O23   A    
C11   C13   A    
C1    O4    A    
H8    N5    S    
C19   O2    A    
C34   C35   T    
C27   O21   A    
C20   O3    A    
C20   C35   S    
C3    H13   S    
C8    C9    A    
Cr1   O1    S    
C1    C34   S    
C26   O12   A    
C11   H1    S    
Cr2   O22   S    
C12   H11   S    
Cr5   O7    S    
Cr5   O26   S    
H17   N1    S    
C13   C14   A    
Cr1   O17   S    
C22   O8    A    
C24   O5    A    
C28   N1    S    
Cr6   O10   S    
Cr4   O5    S    
Cr1   O22   S    
C27   O17   A    
C4    O15   A    
H6    N4    S    
Cr2   O14   S    
C6    C21   S    
C18   O24   A    
C13   C24   S    
C16   O16   A    
C23   C31   A    
C4    O14   A    
C29   C30   A    
C3    C9    A    
Cr5   O11   S    
Cr5   O8    S    
C26   C36   S    
H4    N3    S    
C25   O18   A    
Cr1   O18   S    
Cr3   O21   S    
C9    C27   S    
C23   H12   S    
C25   O19   A    
C2    C36   T    
C15   C17   A    
Cr6   O9    S    
C26   O20   A    
C12   C30   A    
C18   O25   A    
C28   C31   A    
C10   N5    S    
H9    N5    S    
C3    C5    A    
C6    C7    A    
Cr2   O13   S    
H2    N2    S    
C16   C32   S    
Cr3   O22   S    
Cr4   O11   S    
C21   O6    A    
C17   C25   S    
C32   C33   T    
Cr4   O24   S    
C19   O26   A    
C2    C22   S    
Cr3   O16   S    
C14   N2    S    
C24   O10   A    
Cr6   O3    S    
H3    N2    S    
C15   N3    S    
C18   C33   S    
C4    C31   S    
C10   C11   A    
C8    N4    S    
Cr6   O2    S    
C14   C15   A    
C16   O1    A    
C22   O9    A    
C19   C30   S    
C7    H15   S    
Cr3   O15   S    
C29   H10   S    
