data_mof_unit_20805.cif
_audit_creation_date              2012-12-10T16:59:58-0500
_audit_creation_method            fapswitch 2.2
_symmetry_space_group_name_H-M    P1
_symmetry_Int_Tables_number       1
_space_group_crystal_system       triclinic
_cell_length_a                    23.386125
_cell_length_b                    10.994282
_cell_length_c                    9.764434
_cell_angle_alpha                 88.027336
_cell_angle_beta                  90.759722
_cell_angle_gamma                 91.147875
_cell_volume                      2508.37942939

loop_
_atom_site_label
_atom_site_type_symbol
_atom_type_description
_atom_site_fract_x
_atom_site_fract_y
_atom_site_fract_z
_atom_type_partial_charge
C1    C     C_R   0.498454 0.265213 0.501948 0.741792
C2    C     C_R   0.966616 0.250665 0.424557 0.333220
C3    C     C_R   0.026550 0.251463 0.423116 0.466475
C4    C     C_R   0.058318 0.345767 0.486091 -0.183792
C5    C     C_R   0.029502 0.432067 0.562620 -0.137021
C6    C     C_R   0.060898 0.523186 0.631617 -0.170517
C7    C     C_R   0.031561 0.605990 0.712094 0.387314
C8    C     C_R   0.972242 0.591878 0.731796 0.394790
C9    C     C_R   0.118210 0.357216 0.473994 0.640128
C10   C     C_R   0.120899 0.528097 0.618412 0.678894
C11   C     C_R   0.232251 0.551179 0.439169 0.449916
C12   C     C_R   0.390977 0.498798 0.499126 0.823597
C13   C     C_R   0.291706 0.565962 0.428238 0.245410
C14   C     C_R   0.328187 0.481963 0.498495 -0.370056
C15   C     C_R   0.303816 0.381757 0.574720 0.267398
C16   C     C_R   0.244038 0.372920 0.591172 0.401600
C17   C     C_R   0.208742 0.457595 0.523397 0.052397
C18   C     C_R   0.757167 0.382681 0.439021 0.379537
C19   C     C_R   0.696558 0.389198 0.444826 0.310949
C20   C     C_R   0.671447 0.490819 0.501912 -0.303393
C21   C     C_R   0.706410 0.587767 0.547441 0.208316
C22   C     C_R   0.766302 0.574042 0.552593 0.419738
C23   C     C_R   0.501945 0.733661 0.497700 0.688125
C24   C     C_R   0.790460 0.459941 0.524229 0.039494
C25   C     C_2   0.476124 0.934848 0.408710 0.325203
C26   C     C_2   0.510502 0.864671 0.489978 0.175035
C27   C     C_2   0.487867 0.066693 0.393882 0.511566
C28   C     C_2   0.491436 0.132187 0.508577 0.122304
C29   C     C_2   0.464868 0.431136 0.922610 0.561189
C30   C     C_2   0.466271 0.427968 0.081069 0.627349
C31   C     C_R   0.608805 0.498634 0.500692 0.852555
C32   C     C_R   0.880028 0.500083 0.657363 0.699734
C33   C     C_R   0.877762 0.333155 0.516705 0.638451
C34   C     C_R   0.937601 0.336468 0.501909 -0.171881
C35   C     C_R   0.969210 0.426781 0.570854 -0.128234
C36   C     C_R   0.940388 0.506784 0.655026 -0.172264
Cu1   Cu    Cu3+1 0.500010 0.500020 0.638630 1.020973
Cu2   Cu    Cu3+1 0.499990 0.499980 0.361370 1.041637
N1    N     N_R   0.850254 0.432686 0.562984 -0.426947
N2    N     N_R   0.147746 0.447491 0.538831 -0.420364
N3    N     N_2   0.499380 0.498660 0.846910 -0.021471
N4    N     N_2   0.499370 0.498630 0.153040 -0.045829
O1    O     O_R   0.500010 0.321960 0.617040 -0.586481
O2    O     O_2   0.848792 0.227501 0.500339 -0.510062
O3    O     O_2   0.147004 0.280285 0.396597 -0.480146
O4    O     O_2   0.152589 0.611740 0.685095 -0.467707
O5    O     O_R   0.499990 0.321920 0.382900 -0.487334
O6    O     O_R   0.417890 0.499980 0.617100 -0.507282
O7    O     O_R   0.417870 0.499940 0.382950 -0.581551
O8    O     O_R   0.500010 0.678080 0.617100 -0.596326
O9    O     O_R   0.499990 0.678040 0.382960 -0.594875
O10   O     O_R   0.582130 0.500060 0.617050 -0.579502
O11   O     O_R   0.582110 0.500020 0.382900 -0.544402
O12   O     O_2   0.851758 0.554317 0.757272 -0.453800
O13   O     O_3   0.938217 0.167727 0.343909 -0.669973
H1    H     H_    0.904821 0.208571 0.300773 0.356212
O14   O     O_3   0.661507 0.300770 0.388363 -0.575579
C37   C     C_3   0.646651 0.214184 0.492758 -0.303571
H2    H     H_    0.621790 0.138976 0.445963 0.205505
H3    H     H_    0.619304 0.254362 0.570934 0.162091
H4    H     H_    0.685055 0.174075 0.543870 0.165724
O15   O     O_3   0.684126 0.697214 0.585106 -0.735407
H5    H     H_    0.644185 0.703876 0.551913 0.307640
O16   O     O_3   0.802525 0.673810 0.569238 -0.661273
H6    H     H_    0.780423 0.748531 0.580429 0.384746
O17   O     O_3   0.429242 0.890092 0.337063 -0.701206
H7    H     H_    0.414267 0.816064 0.385585 0.324134
O18   O     O_3   0.558018 0.915915 0.553719 -0.755850
H8    H     H_    0.577420 0.851917 0.609945 0.323585
O19   O     O_3   0.488067 0.124054 0.264568 -0.544526
C38   C     C_3   0.522489 0.060576 0.174512 -0.255949
H9    H     H_    0.499598 0.978096 0.137883 0.200571
H10   H     H_    0.564449 0.036099 0.222226 0.137017
H11   H     H_    0.531656 0.120750 0.083725 0.176375
O20   O     O_3   0.485014 0.073007 0.634947 -0.734435
H12   H     H_    0.508710 0.117073 0.702489 0.335005
O21   O     O_3   0.423422 0.362702 0.855905 -0.585038
C39   C     C_3   0.434061 0.237414 0.878802 -0.198077
H13   H     H_    0.480399 0.216913 0.889253 0.111030
H14   H     H_    0.411165 0.200289 0.970062 0.206123
H15   H     H_    0.416611 0.187341 0.790717 0.238319
O22   O     O_3   0.551795 0.517707 0.903271 -0.517826
C40   C     C_3   0.569414 0.639195 0.871345 0.011541
H16   H     H_    0.533187 0.703458 0.863731 0.160449
H17   H     H_    0.595336 0.646687 0.777996 0.165014
H18   H     H_    0.597933 0.670477 0.955284 0.125030
O23   O     O_3   0.430812 0.345972 0.151601 -0.567069
C41   C     C_3   0.373664 0.385819 0.140899 -0.246994
H19   H     H_    0.369932 0.486493 0.146463 0.163382
H20   H     H_    0.349190 0.343904 0.227534 0.194301
H21   H     H_    0.352639 0.355254 0.045364 0.191365
O24   O     O_3   0.053493 0.164540 0.349281 -0.505986
C42   C     C_3   0.060008 0.059398 0.434614 -0.161838
H22   H     H_    0.085797 0.079322 0.528201 0.150981
H23   H     H_    0.083258 0.990817 0.377338 0.195146
H24   H     H_    0.017836 0.018252 0.463647 0.158285
O25   O     O_3   0.503845 0.612355 0.100206 -0.679958
H25   H     H_    0.532184 0.653973 0.159159 0.365472
O26   O     O_3   0.060720 0.698775 0.777149 -0.534153
C43   C     C_3   0.056966 0.805900 0.693921 -0.181450
H26   H     H_    0.075385 0.793536 0.590829 0.151992
H27   H     H_    0.082151 0.879304 0.743244 0.193466
H28   H     H_    0.012040 0.836680 0.683503 0.169361
O27   O     O_3   0.945029 0.670927 0.815585 -0.526613
C44   C     C_3   0.951562 0.628278 0.952759 -0.149648
H29   H     H_    0.934247 0.533692 0.967698 0.151662
H30   H     H_    0.926957 0.687493 0.019239 0.193809
H31   H     H_    0.997052 0.633104 0.987141 0.165676
O28   O     O_3   0.196600 0.634741 0.374744 -0.527332
C45   C     C_3   0.184798 0.596577 0.240731 -0.200586
H32   H     H_    0.162402 0.506321 0.241798 0.152812
H33   H     H_    0.224450 0.593828 0.179188 0.189546
H34   H     H_    0.155959 0.663190 0.189131 0.196766
O29   O     O_3   0.311406 0.665424 0.350941 -0.665649
H35   H     H_    0.352977 0.660853 0.338483 0.332921
O30   O     O_3   0.336926 0.290405 0.632694 -0.695748
H36   H     H_    0.372904 0.285500 0.581119 0.336813
O31   O     O_3   0.218217 0.281742 0.671168 -0.683740
H37   H     H_    0.247638 0.231165 0.717743 0.380270
O32   O     O_3   0.785092 0.335514 0.327311 -0.568168
C46   C     C_3   0.761356 0.225422 0.280422 -0.089804
H38   H     H_    0.724747 0.243142 0.209517 0.189705
H39   H     H_    0.750050 0.160516 0.365887 0.177947
H40   H     H_    0.794232 0.180724 0.219806 0.161801

loop_
_geom_bond_atom_site_label_1
_geom_bond_atom_site_label_2
_ccdc_geom_bond_type
O23   C41   S    
C9    O3    S    
C42   H22   S    
C11   O28   S    
C35   C36   A    
C31   O10   A    
C12   O6    A    
C12   O7    A    
C7    C8    A    
Cu2   O7    S    
O21   C39   S    
C19   O14   S    
C44   H30   S    
C33   N1    A    
C7    O26   S    
C40   H16   S    
C18   C24   A    
C32   C36   A    
Cu1   Cu2   S    
Cu2   N4    S    
C2    O13   S    
C5    C6    A    
C39   H14   S    
C32   N1    A    
C37   H3    S    
C15   C16   A    
C24   N1    S    
O30   H36   S    
C10   N2    A    
C34   C35   A    
C8    C36   A    
C23   C26   S    
O31   H37   S    
O24   C42   S    
C46   H40   S    
C45   H32   S    
C1    O1    A    
O15   H5    S    
C19   C20   A    
O18   H8    S    
C10   O4    S    
C1    C28   S    
O19   C38   S    
C13   O29   S    
C2    C34   A    
C37   H4    S    
O17   H7    S    
C42   H23   S    
C21   C22   A    
C30   O23   S    
C32   O12   S    
O27   C44   S    
O25   H25   S    
C44   H31   S    
N4    O25   S    
C38   H10   S    
Cu1   O10   S    
C39   H13   S    
C18   C19   A    
C23   O8    A    
Cu2   O9    S    
C37   H2    S    
C43   H28   S    
C3    O24   S    
C17   N2    S    
Cu1   O1    S    
O20   H12   S    
C29   C30   S    
C16   O31   S    
C23   O9    A    
O26   C43   S    
C41   H21   S    
C20   C21   A    
O13   H1    S    
C43   H27   S    
C33   C34   A    
C46   H38   S    
C31   O11   A    
Cu1   O6    S    
C8    O27   S    
C45   H34   S    
Cu2   O5    S    
C27   O19   S    
C40   H17   S    
C12   C14   S    
C42   H24   S    
C22   C24   A    
C3    C4    A    
C18   O32   S    
O32   C46   S    
C11   C17   A    
C29   N3    D    
C14   C15   A    
C33   O2    S    
C1    O5    A    
C25   O17   S    
C41   H20   S    
C4    C5    A    
C6    C10   A    
C38   H11   S    
O29   H35   S    
C6    C7    A    
C25   C27   S    
C44   H29   S    
C26   O18   S    
O16   H6    S    
C2    C3    A    
C25   C26   D    
C38   H9    S    
O28   C45   S    
Cu1   O8    S    
C11   C13   A    
C39   H15   S    
O14   C37   S    
C16   C17   A    
Cu2   O11   S    
N3    O22   S    
C5    C35   A    
C43   H26   S    
C9    N2    A    
Cu1   N3    S    
C45   H33   S    
C46   H39   S    
C22   O16   S    
C40   H18   S    
C29   O21   S    
C41   H19   S    
O22   C40   S    
C27   C28   D    
C15   O30   S    
C30   N4    D    
C21   O15   S    
C4    C9    A    
C13   C14   A    
C28   O20   S    
C20   C31   S    
