data_mof_unit_11135.cif
_audit_creation_date              2013-03-05T15:59:21-0500
_audit_creation_method            fapswitch 2.2
_symmetry_space_group_name_H-M    P1
_symmetry_Int_Tables_number       1
_space_group_crystal_system       triclinic
_cell_length_a                    10.525175
_cell_length_b                    12.685959
_cell_length_c                    13.04908
_cell_angle_alpha                 81.537448
_cell_angle_beta                  91.50983
_cell_angle_gamma                 101.996794
_cell_volume                      1685.71245089

loop_
_atom_site_label
_atom_site_type_symbol
_atom_site_description
_atom_site_fract_x
_atom_site_fract_y
_atom_site_fract_z
_atom_type_partial_charge
O1    O     O_R   0.467970 0.366730 0.627150 -0.579990
O2    O     O_R   0.510820 0.544830 0.662520 -0.607151
C1    C     C_R   0.475664 0.439149 0.691161 0.893543
O3    O     O_R   0.664630 0.410960 0.482340 -0.601449
O4    O     O_R   0.707470 0.589060 0.517710 -0.606665
C2    C     C_R   0.741668 0.500550 0.499414 0.952719
Zn1   Zn    Zn3+2 0.471390 0.381080 0.476380 1.040050
Zn2   Zn    Zn3+2 0.528610 0.618920 0.523620 0.983947
O5    O     O_R   0.489180 0.455170 0.337480 -0.585446
O6    O     O_R   0.532030 0.633270 0.372850 -0.650739
O7    O     O_R   0.292530 0.410940 0.482290 -0.561181
O8    O     O_R   0.335370 0.589040 0.517660 -0.626647
C3    C     C_R   0.514972 0.561332 0.308723 0.871964
C4    C     C_R   0.258116 0.498968 0.501993 0.897611
C5    C     C_3   0.938520 0.429696 0.438092 -0.158420
C6    C     C_3   0.015176 0.400010 0.535991 0.276725
H1    H     H_    0.885830 0.372554 0.387009 0.208654
C7    C     C_3   0.122894 0.498851 0.503280 -0.216229
C8    C     C_3   0.047609 0.531161 0.405149 -0.228309
C9    C     C_3   0.982205 0.601220 0.467050 -0.197285
C10   C     C_3   0.057459 0.566868 0.564285 0.270662
C11   C     C_3   0.950112 0.466918 0.599502 0.063392
C12   C     C_3   0.876352 0.499708 0.500870 -0.167448
H2    H     H_    0.090935 0.557169 0.326486 0.188859
H3    H     H_    0.965339 0.684301 0.439809 0.189044
C13   C     C_R   0.421048 0.713342 0.061976 -0.101045
H4    H     H_    0.446238 0.748353 0.217314 0.164856
H5    H     H_    0.388818 0.788475 0.036696 0.206560
C14   C     C_R   0.507953 0.599596 0.198949 -0.080313
C15   C     C_R   0.448110 0.294444 0.845066 -0.143662
C16   C     C_R   0.444225 0.264829 0.952124 0.229940
C17   C     C_R   0.447735 0.344174 0.015950 -0.155074
C18   C     C_R   0.448947 0.453204 0.973018 0.069287
C19   C     C_R   0.425892 0.476827 0.866706 0.020294
C20   C     C_R   0.464382 0.537967 0.033654 0.022715
C21   C     C_R   0.418885 0.634646 0.996071 -0.006866
C22   C     C_R   0.374835 0.650524 0.893337 0.292150
C23   C     C_R   0.381620 0.573028 0.829277 -0.181158
C24   C     C_R   0.527281 0.530914 0.129660 0.117676
C25   C     C_R   0.458493 0.692776 0.164603 -0.229807
C26   C     C_R   0.445596 0.401977 0.801487 -0.116925
H6    H     H_    0.453311 0.233483 0.796822 0.207439
H7    H     H_    0.445192 0.319353 0.098868 0.181619
H8    H     H_    0.344473 0.586153 0.751444 0.215865
C27   C     C_R   0.319856 0.090200 0.342615 -0.276698
H9    H     H_    0.281290 0.883753 0.313355 0.160128
H10   H     H_    0.246154 0.068306 0.285487 0.185965
N1    N     N_R   0.432930 0.222190 0.444670 -0.138455
C28   C     C_R   0.672199 0.806800 0.616033 0.309625
C29   C     C_R   0.736406 0.914956 0.607463 -0.199007
C30   C     C_R   0.683712 0.993438 0.546505 -0.177273
C31   C     C_R   0.559465 0.965946 0.504551 0.028435
C32   C     C_R   0.511606 0.854809 0.496658 0.239642
C33   C     C_R   0.487248 0.044597 0.462254 -0.032418
C34   C     C_R   0.388187 0.014222 0.390579 0.123458
C35   C     C_R   0.355971 0.907195 0.369301 -0.204003
C36   C     C_R   0.414301 0.827757 0.424159 -0.122353
C37   C     C_R   0.501908 0.149141 0.493672 0.217017
C38   C     C_R   0.344733 0.194542 0.368809 0.308045
N2    N     N_R   0.566370 0.776980 0.554790 -0.150014
H11   H     H_    0.741164 0.075161 0.531878 0.218601
H12   H     H_    0.827665 0.938082 0.646729 0.213146
H13   H     H_    0.383826 0.746925 0.406236 0.193852
N3    N     N_R   0.037351 0.291367 0.573522 0.242649
O9    O     O_R   0.990161 0.210525 0.523610 -0.377656
O10   O     O_R   0.106057 0.275185 0.656454 -0.353193
I1    I     I_    0.683532 0.444814 0.161703 -0.300580
I2    I     I_    0.442129 0.102116 0.017752 -0.267603
I3    I     I_    0.233337 0.300932 0.287450 -0.266420
I4    I     I_    0.602598 0.186012 0.632720 -0.227299
I5    I     I_    0.757083 0.697048 0.719981 -0.151760
N4    N     N_R   0.123439 0.644234 0.630369 0.225743
O11   O     O_R   0.195546 0.735846 0.588817 -0.336353
O12   O     O_R   0.097159 0.628971 0.728857 -0.318226
I6    I     I_    0.867756 0.408730 0.750992 -0.123258
N5    N     N_R   0.327568 0.746192 0.851508 0.231908
O13   O     O_R   0.229970 0.770723 0.895195 -0.318628
O14   O     O_R   0.369377 0.799720 0.761841 -0.320778

loop_
_geom_bond_atom_site_label_1
_geom_bond_atom_site_label_2
_geom_bond_distance
_ccdc_geom_bond_type
C34   C35   1.396470 A    
C7    C10   1.526655 S    
C4    C7    1.423463 S    
C8    C9    1.552801 S    
C30   H11   1.078946 S    
Zn1   O7    2.001518 S    
C28   N2    1.374550 A    
C3    C14   1.448334 S    
C21   C22   1.406862 A    
N5    O14   1.301107 A    
O4    C2    1.303362 A    
O7    C4    1.304581 A    
C9    H3    1.110362 S    
C5    C6    1.534651 S    
C35   C36   1.388027 A    
C14   C25   1.398846 A    
Zn1   O5    1.909714 S    
C7    C8    1.537095 S    
O5    C3    1.316406 A    
C5    C8    1.552002 S    
C27   C38   1.386317 A    
C20   C21   1.424353 A    
C15   C26   1.403891 A    
C5    C12   1.540155 S    
O1    Zn1   1.949545 S    
C10   C11   1.534849 S    
C19   C26   1.413478 A    
C11   I6    2.144500 S    
O3    Zn1   1.991547 S    
C32   N2    1.369521 A    
C31   C33   1.417389 A    
C36   H13   1.067232 S    
C27   H10   1.084211 S    
C16   I2    2.111031 S    
C10   N4    1.457177 S    
C30   C31   1.400122 A    
N5    O13   1.301172 A    
O3    C2    1.296432 A    
C32   C36   1.400014 A    
C37   I4    2.139288 S    
C17   C18   1.411408 A    
O1    C1    1.318955 A    
N3    O10   1.300498 A    
C20   C24   1.401322 A    
C23   H8    1.080963 S    
C22   C23   1.394491 A    
C16   C17   1.392075 A    
C9    C12   1.535116 S    
H4    C25   1.082615 S    
Zn2   O8    1.991549 S    
C14   C24   1.390425 A    
C29   C30   1.380139 A    
C38   I3    2.119890 S    
N4    O12   1.299579 A    
C22   N5    1.435298 S    
O8    C4    1.297053 A    
C29   H12   1.082755 S    
C31   C32   1.413111 A    
N1    C38   1.372253 A    
C33   C37   1.422117 A    
C13   C21   1.406779 A    
C5    H1    1.110400 S    
C33   C34   1.413509 A    
C1    C26   1.468771 S    
C6    C11   1.534544 S    
C19   C23   1.412108 A    
C24   I1    2.156054 S    
Zn2   O6    1.949547 S    
O2    Zn2   1.909713 S    
N4    O11   1.300075 A    
O6    C3    1.309211 A    
O4    Zn2   2.001515 S    
N1    C37   1.369505 A    
C13   H5    1.080886 S    
Zn1   N1    2.072551 S    
C8    H2    1.110361 S    
Zn2   N2    2.060152 S    
C13   C25   1.388862 A    
C15   C16   1.391621 A    
C2    C12   1.419430 S    
N3    O9    1.300169 A    
C18   C20   1.407041 A    
C17   H7    1.080904 S    
C18   C19   1.401192 A    
O2    C1    1.314371 A    
C9    C10   1.534590 S    
C27   C34   1.387406 A    
C6    C7    1.522115 S    
C28   C29   1.387485 A    
C28   I5    2.115185 S    
H9    C35   1.084310 S    
C11   C12   1.535013 S    
C15   H6    1.077070 S    
C6    N3    1.457024 S    
