data_mof_unit_46136.cif
_audit_creation_date              2012-10-26T18:50:44-0400
_audit_creation_method            fapswitch 2.2
_symmetry_space_group_name_H-M    P1
_symmetry_Int_Tables_number       1
_space_group_crystal_system       triclinic
_cell_length_a                    12.322009
_cell_length_b                    13.212674
_cell_length_c                    17.268178
_cell_angle_alpha                 104.781789
_cell_angle_beta                  75.275372
_cell_angle_gamma                 116.93703
_cell_volume                      2391.87737904

loop_
_atom_site_label
_atom_site_type_symbol
_atom_type_description
_atom_site_fract_x
_atom_site_fract_y
_atom_site_fract_z
_atom_type_partial_charge
C1    C     C_R   0.144341 0.713668 0.508794 0.515103
C2    C     C_R   0.012025 0.492044 0.263704 -0.018071
C3    C     C_R   0.692428 0.020440 0.591093 -0.087052
C4    C     C_R   0.988802 0.503925 0.652373 0.560582
C5    C     C_R   0.771984 0.168997 0.507759 -0.032837
C6    C     C_R   0.198042 0.886747 0.452102 -0.115446
C7    C     C_R   0.285554 0.989823 0.427313 -0.102567
C8    C     C_R   0.403397 0.039338 0.447761 -0.093047
C9    C     C_R   0.434179 0.989039 0.497493 0.043495
C10   C     C_R   0.339995 0.890050 0.528950 0.037721
C11   C     C_R   0.554730 0.032671 0.517179 0.036220
C12   C     C_R   0.936480 0.583233 0.795537 -0.139790
C13   C     C_R   0.574626 0.982786 0.572785 0.027819
C14   C     C_R   0.476145 0.896896 0.611465 -0.125607
C15   C     C_R   0.360581 0.849883 0.589244 -0.110689
C16   C     C_R   0.855674 0.287007 0.494336 0.535804
C17   C     C_R   0.655789 0.124998 0.484611 -0.123600
C18   C     C_R   0.792697 0.113051 0.558999 -0.014467
C19   C     C_R   0.225717 0.834340 0.500822 0.009242
C20   C     C_R   0.639426 0.668100 0.632413 -0.122301
C21   C     C_R   0.250221 0.356901 0.386795 0.026110
C22   C     C_R   0.355564 0.337560 0.353581 -0.120509
C23   C     C_R   0.894575 0.408299 0.153217 -0.093550
C24   C     C_R   0.462808 0.400333 0.389035 0.007010
C25   C     C_R   0.457641 0.472691 0.465893 -0.035285
C26   C     C_R   0.348872 0.494055 0.494328 0.190430
C27   C     C_R   0.554545 0.527497 0.515169 -0.017411
C28   C     C_R   0.011882 0.496848 0.348456 0.516870
C29   C     C_R   0.544513 0.608342 0.585625 0.044031
C30   C     C_R   0.438883 0.627937 0.610207 -0.135484
C31   C     C_R   0.345124 0.574471 0.564482 -0.044832
C32   C     C_R   0.657846 0.501445 0.501637 0.041767
C33   C     C_R   0.743434 0.645633 0.610868 0.067429
C34   C     C_R   0.907033 0.409656 0.231023 -0.115373
C35   C     C_R   0.993254 0.517424 0.738960 -0.053859
C36   C     C_R   0.061550 0.474251 0.765400 0.249015
C37   C     C_R   0.074803 0.500584 0.847063 0.276417
C38   C     C_R   0.015066 0.564558 0.903523 -0.040451
C39   C     C_R   0.946142 0.607201 0.877888 -0.019949
C40   C     C_2   0.914652 0.151488 0.583567 0.262335
C41   C     C_2   0.579539 0.401705 0.337322 0.193564
C42   C     C_2   0.218114 0.664357 0.252041 0.229936
C43   C     C_2   0.882704 0.675277 0.936410 0.262117
C44   C     C_R   0.107214 0.574085 0.217861 -0.001707
C45   C     C_R   0.093139 0.571907 0.139338 -0.045039
C46   C     C_R   0.985896 0.490754 0.107767 0.012013
C47   C     C_2   0.019600 0.579394 0.989821 -0.118397
C48   C     C_2   0.969879 0.486189 0.025664 -0.078392
Cl1   Cl    Cl    0.128281 0.383342 0.699187 -0.479362
Cl2   Cl    Cl    0.170105 0.455392 0.878322 -0.482744
Cu1   Cu    Cu3+1 0.900140 0.524980 0.518800 0.955048
Cu2   Cu    Cu3+1 0.099860 0.475020 0.481200 0.950020
H1    H     H_    0.165873 0.633062 0.102737 0.180319
H2    H     H_    0.833664 0.347157 0.266526 0.153710
H3    H     H_    0.427337 0.683897 0.666494 0.117007
H4    H     H_    0.633088 0.731687 0.685201 0.119276
H5    H     H_    0.665346 0.429887 0.457753 0.129662
H6    H     H_    0.170657 0.312141 0.356152 0.141071
H7    H     H_    0.355783 0.279653 0.296449 0.160180
H8    H     H_    0.271165 0.599739 0.586015 0.176846
H9    H     H_    0.917319 0.402679 0.992419 0.166234
H10   H     H_    0.812404 0.344212 0.129027 0.152533
H11   H     H_    0.885527 0.617480 0.775133 0.191041
H12   H     H_    0.489245 0.866623 0.659397 0.106884
H13   H     H_    0.064452 0.665357 0.022643 0.123783
H14   H     H_    0.998376 0.211914 0.553567 0.177819
H15   H     H_    0.664891 0.478564 0.341905 0.112485
H16   H     H_    0.228060 0.669956 0.313778 0.131729
H17   H     H_    0.888395 0.693921 0.000517 0.116914
H18   H     H_    0.705317 0.978318 0.632179 0.159455
H19   H     H_    0.646042 0.168561 0.443567 0.118206
H20   H     H_    0.110483 0.845186 0.430148 0.130868
H21   H     H_    0.467289 0.117543 0.424650 0.128473
H22   H     H_    0.263555 0.029374 0.389256 0.136591
H23   H     H_    0.286197 0.783648 0.620987 0.105250
H24   H     H_    0.817948 0.691788 0.646015 0.141325
N1    N     N_R   0.749710 0.562810 0.547300 -0.239991
N2    N     N_R   0.249640 0.437820 0.453210 -0.238061
O1    O     O_R   0.025490 0.682370 0.523640 -0.500651
O2    O     O_2   0.581158 0.317999 0.287375 -0.523061
O3    O     O_2   0.300144 0.734470 0.211557 -0.486438
O4    O     O_2   0.822837 0.711603 0.913716 -0.472813
O5    O     O_R   0.194150 0.640180 0.491890 -0.525361
O6    O     O_R   0.905900 0.523560 0.631310 -0.503834
O7    O     O_R   0.074570 0.481370 0.599560 -0.480635
O8    O     O_R   0.805850 0.359820 0.508110 -0.491080
O9    O     O_R   0.974510 0.317630 0.476360 -0.527379
O10   O     O_R   0.925430 0.518630 0.400440 -0.507859
O11   O     O_R   0.094100 0.476440 0.368690 -0.508537
O12   O     O_2   0.923756 0.113681 0.638068 -0.454242

loop_
_geom_bond_atom_site_label_1
_geom_bond_atom_site_label_2
_ccdc_geom_bond_type
C15   H23   S    
C27   C29   A    
C35   C36   A    
C20   H4    S    
C41   O2    D    
C7    C8    A    
C41   H15   S    
C45   C46   A    
C6    H20   S    
C6    C19   A    
C29   C30   A    
C36   C37   A    
C10   C15   A    
C30   C31   A    
C5    C17   A    
C3    C18   A    
C18   C40   S    
C5    C16   S    
C32   N1    A    
C23   H10   S    
C11   C17   A    
C2    C44   A    
C8    C9    A    
C21   N2    A    
C28   O10   A    
C16   O9    A    
C28   O11   A    
C9    C10   A    
C3    C13   A    
C2    C34   A    
C4    C35   S    
C45   H1    S    
C26   C31   A    
C43   H17   S    
C23   C46   A    
C40   H14   S    
C13   C14   A    
C16   O8    A    
C24   C41   S    
Cu2   O11   S    
C42   O3    D    
C42   C44   S    
C32   H5    S    
Cu2   N2    S    
Cu1   O8    S    
C7    H22   S    
C20   C29   A    
C46   C48   S    
C1    C19   S    
Cu1   Cu2   S    
C3    H18   S    
C24   C25   A    
C22   H7    S    
C12   H11   S    
C39   C43   S    
C4    O7    A    
C25   C26   A    
C31   H8    S    
Cu2   O5    S    
Cu1   N1    S    
C37   C38   A    
C33   H24   S    
C47   C48   D    
C4    O6    A    
C10   C19   A    
C23   C34   A    
C14   H12   S    
C26   N2    A    
C12   C35   A    
C9    C11   A    
C38   C47   S    
C20   C33   A    
C34   H2    S    
C1    O1    A    
C22   C24   A    
C25   C27   A    
C44   C45   A    
Cu2   O7    S    
C27   C32   A    
Cu2   O9    S    
Cu1   O10   S    
C17   H19   S    
C6    C7    A    
C5    C18   A    
C1    O5    A    
C30   H3    S    
C12   C39   A    
C21   H6    S    
C37   Cl2   S    
C11   C13   A    
C33   N1    A    
C48   H9    S    
C38   C39   A    
C8    H21   S    
C42   H16   S    
Cu1   O1    S    
C43   O4    D    
C14   C15   A    
C2    C28   S    
C40   O12   D    
C21   C22   A    
Cu1   O6    S    
C47   H13   S    
C36   Cl1   S    
