data_mof_unit_22817.cif
_audit_creation_date              2012-12-11T16:35:23-0500
_audit_creation_method            fapswitch 2.2
_symmetry_space_group_name_H-M    P1
_symmetry_Int_Tables_number       1
_space_group_crystal_system       triclinic
_cell_length_a                    6.926736
_cell_length_b                    17.807229
_cell_length_c                    19.412787
_cell_angle_alpha                 108.946758
_cell_angle_beta                  90.230941
_cell_angle_gamma                 90.581484
_cell_volume                      2264.572811

loop_
_atom_site_label
_atom_site_type_symbol
_atom_type_description
_atom_site_fract_x
_atom_site_fract_y
_atom_site_fract_z
_atom_type_partial_charge
O1    O     O_R   0.505700 0.440210 0.561730 -0.546764
O2    O     O_R   0.169350 0.406300 0.412660 -0.537104
O3    O     O_R   0.005650 0.559790 0.438270 -0.544476
C1    C     C_R   0.338673 0.382919 0.385195 0.692335
O4    O     O_R   0.175560 0.430650 0.559600 -0.541821
O5    O     O_R   0.011900 0.584320 0.586250 -0.535240
C2    C     C_R   0.344608 0.415427 0.581000 0.680304
O6    O     O_R   0.499450 0.415680 0.413750 -0.539225
O7    O     O_3   0.341370 0.550390 0.508570 -0.366075
V1    V     V_3+5 0.063940 0.490650 0.498410 1.408293
O8    O     O_R   0.682570 0.593700 0.587340 -0.537373
C3    C     C_R   0.852518 0.616669 0.614996 0.697983
O9    O     O_R   0.676370 0.569350 0.440400 -0.540361
C4    C     C_R   0.845319 0.583879 0.418487 0.680967
V2    V     V_3+5 0.564750 0.509350 0.501590 1.409540
O10   O     O_3   0.837190 0.449610 0.491430 -0.370485
C5    C     C_R   0.034653 0.717402 0.315250 -0.143380
H1    H     H_    0.163968 0.752251 0.316001 0.105047
C6    C     C_R   0.023514 0.674380 0.364091 -0.171432
H2    H     H_    0.145315 0.676217 0.399807 0.120815
C7    C     C_R   0.856002 0.630743 0.367777 -0.052114
C8    C     C_R   0.700734 0.630297 0.320907 -0.160661
H3    H     H_    0.570697 0.596274 0.321707 0.119053
C9    C     C_R   0.713374 0.671754 0.270871 -0.145957
H4    H     H_    0.592634 0.667429 0.234226 0.102051
C10   C     C_R   0.880138 0.716528 0.267426 0.086578
C11   C     C_R   0.724025 0.793380 0.193248 -0.141536
H5    H     H_    0.583313 0.783911 0.213125 0.097802
C12   C     C_R   0.735125 0.838667 0.146457 -0.170549
H6    H     H_    0.602244 0.859171 0.129609 0.126235
C13   C     C_R   0.914508 0.858334 0.122866 -0.051191
C14   C     C_R   0.081339 0.825139 0.141934 -0.164019
H7    H     H_    0.221120 0.835649 0.121824 0.117595
C15   C     C_R   0.070258 0.778018 0.187335 -0.147401
H8    H     H_    0.202333 0.753278 0.200135 0.095811
C16   C     C_R   0.891687 0.762972 0.215325 0.094221
H9    H     H_    0.598155 0.657510 0.930933 0.115395
C17   C     C_R   0.069140 0.892634 0.748625 -0.142241
C18   C     C_R   0.139502 0.899615 0.683838 -0.123379
C19   C     C_R   0.120114 0.836636 0.619265 -0.120642
C20   C     C_R   0.030365 0.766171 0.618993 -0.130271
C21   C     C_R   0.959510 0.756833 0.684103 0.070551
C22   C     C_R   0.979146 0.821491 0.750337 0.069477
C23   C     C_R   0.866562 0.685253 0.683652 -0.187016
C24   C     C_R   0.792843 0.678517 0.749534 0.068155
C25   C     C_R   0.812419 0.743192 0.815765 0.069882
C26   C     C_R   0.905402 0.814763 0.816216 -0.186445
C27   C     C_R   0.702929 0.607358 0.751260 -0.143768
C28   C     C_R   0.632417 0.600429 0.816051 -0.123301
C29   C     C_R   0.651706 0.663431 0.880609 -0.120245
C30   C     C_R   0.741503 0.733877 0.880873 -0.129593
H10   H     H_    0.085114 0.943919 0.797007 0.105799
H11   H     H_    0.208106 0.954474 0.683697 0.119729
H12   H     H_    0.173564 0.842581 0.568938 0.113629
H13   H     H_    0.015648 0.719653 0.567009 0.104163
H14   H     H_    0.687129 0.556010 0.702898 0.110678
H15   H     H_    0.563773 0.545589 0.816215 0.119701
H16   H     H_    0.756174 0.780404 0.932851 0.105137
H17   H     H_    0.032925 0.439961 0.179548 0.120004
C31   C     C_R   0.563606 0.245935 0.382396 -0.136895
C32   C     C_R   0.681193 0.183485 0.382457 -0.169306
C33   C     C_R   0.680681 0.114938 0.322902 -0.100467
C34   C     C_R   0.559232 0.107769 0.262945 0.135391
C35   C     C_R   0.479092 0.178082 0.254298 0.024050
C36   C     C_R   0.466095 0.246382 0.318168 0.053276
C37   C     C_R   0.414016 0.183358 0.185882 -0.188546
C38   C     C_R   0.314750 0.252712 0.184647 0.076949
C39   C     C_R   0.279314 0.315863 0.250540 0.067590
C40   C     C_R   0.355072 0.312948 0.317484 -0.178842
C41   C     C_R   0.250189 0.260942 0.118034 -0.124370
C42   C     C_R   0.148583 0.327506 0.116614 -0.124358
C43   C     C_R   0.111011 0.388105 0.180957 -0.123836
C44   C     C_R   0.176712 0.383019 0.247132 -0.149943
H18   H     H_    0.554707 0.293959 0.433255 0.127363
H19   H     H_    0.763171 0.186196 0.430839 0.121940
H20   H     H_    0.761074 0.064648 0.326813 0.121020
H21   H     H_    0.278515 0.216594 0.066021 0.106524
H22   H     H_    0.099784 0.332265 0.065156 0.114628
H23   H     H_    0.147910 0.432989 0.295166 0.115818
C45   C     C_R   0.541868 0.285151 0.685476 -0.145031
H24   H     H_    0.678079 0.257660 0.689693 0.101508
C46   C     C_R   0.530224 0.330896 0.639046 -0.172088
H25   H     H_    0.658331 0.338059 0.609860 0.120416
C47   C     C_R   0.355348 0.366004 0.629656 -0.052255
C48   C     C_R   0.192473 0.354433 0.668150 -0.160651
H26   H     H_    0.055954 0.381212 0.662752 0.117490
C49   C     C_R   0.204713 0.309582 0.715420 -0.144514
H27   H     H_    0.077240 0.303982 0.745523 0.098808
C50   C     C_R   0.379583 0.274030 0.724744 0.089562
C51   C     C_R   0.232892 0.180546 0.784687 -0.148692
H28   H     H_    0.099162 0.178932 0.755190 0.103402
C52   C     C_R   0.244269 0.135551 0.831741 -0.168926
H29   H     H_    0.118301 0.101654 0.837578 0.117688
C53   C     C_R   0.416377 0.133209 0.869689 -0.053259
C54   C     C_R   0.576695 0.177445 0.859601 -0.163761
H30   H     H_    0.711238 0.177341 0.888195 0.121741
C55   C     C_R   0.564556 0.223414 0.813264 -0.143684
H31   H     H_    0.689817 0.258141 0.808451 0.099684
C56   C     C_R   0.392524 0.225527 0.774859 0.090385
O11   O     O_R   0.273230 0.084330 0.086440 -0.538697
O12   O     O_R   0.596660 0.069390 0.940470 -0.541507
O13   O     O_R   0.760270 0.915710 0.913690 -0.534918
C57   C     C_R   0.427555 0.084385 0.918903 0.682793
O14   O     O_R   0.603330 0.093680 0.087390 -0.533042
O15   O     O_R   0.766990 0.940160 0.061660 -0.549276
C58   C     C_R   0.434063 0.116140 0.115887 0.685357
O16   O     O_R   0.266510 0.059870 0.938470 -0.543757
O17   O     O_3   0.431050 0.949630 0.991510 -0.368550
V3    V     V_3+5 0.708490 0.009340 0.001580 1.409696
O18   O     O_R   0.096270 0.930570 0.059390 -0.541954
C59   C     C_R   0.926736 0.912667 0.078505 0.674308
O19   O     O_R   0.089600 0.906290 0.912460 -0.538498
C60   C     C_R   0.919578 0.883337 0.884879 0.696220
V4    V     V_3+5 0.207670 0.990600 0.998190 1.406818
O20   O     O_3   0.935250 0.050360 0.008480 -0.365302
C61   C     C_3   0.496688 0.024274 0.218175 -0.364000
C62   C     C_3   0.428280 0.975475 0.265888 -0.775100
H32   H     H_    0.550166 0.960666 0.296210 0.226337
H33   H     H_    0.317157 0.008385 0.304876 0.236635
H34   H     H_    0.363719 0.918631 0.231315 0.214266
H35   H     H_    0.371793 0.023876 0.182661 0.185519
H36   H     H_    0.619944 0.994955 0.184797 0.187980

loop_
_geom_bond_atom_site_label_1
_geom_bond_atom_site_label_2
_ccdc_geom_bond_type
C49   H27   S    
C11   C12   A    
C20   C21   A    
C54   H30   S    
C1    O6    A    
O19   V4    S    
V4    O20   S    
C18   H11   S    
C48   H26   S    
C32   H19   S    
C12   H6    S    
C61   H36   S    
C50   C56   S    
C5    C10   A    
C4    C7    S    
C6    C7    A    
C9    C10   A    
C62   H33   S    
O5    C3    A    
O14   V3    S    
C17   H10   S    
O12   V3    S    
V2    O10   S    
C28   H15   S    
O17   V3    S    
C27   H14   S    
C15   H8    S    
O17   V4    S    
C45   C50   A    
O18   C59   A    
C20   H13   S    
O8    V2    S    
C6    H2    S    
C39   C40   A    
C41   C42   A    
O1    V2    S    
O7    V1    S    
O18   V4    S    
H17   C43   S    
C2    C47   S    
O15   C59   A    
O12   C57   A    
O9    C4    A    
C41   H21   S    
O19   C60   A    
C33   H20   S    
C53   C54   A    
C21   C23   A    
C37   C58   S    
O14   C58   A    
C1    C40   S    
C55   C56   A    
C55   H31   S    
C48   C49   A    
C61   H35   S    
C38   C39   A    
O11   V4    S    
C9    H4    S    
C45   C46   A    
C62   H34   S    
C18   C19   A    
O4    C2    A    
C45   H24   S    
C29   C30   A    
C39   C44   A    
C24   C25   A    
C25   C30   A    
C31   C32   A    
C35   C37   A    
O2    C1    A    
O16   V4    S    
O5    V1    S    
C33   C34   A    
C51   C52   A    
C13   C14   A    
C52   C53   A    
C5    H1    S    
C44   H23   S    
C30   H16   S    
C47   C48   A    
O3    C4    A    
C34   C61   S    
C10   C16   S    
C19   C20   A    
C31   C36   A    
C28   C29   A    
O6    V2    S    
C46   C47   A    
C49   C50   A    
C8    C9    A    
C21   C22   A    
O2    V1    S    
C51   C56   A    
C23   C24   A    
C24   C27   A    
C26   C60   S    
O15   V3    S    
C25   C26   A    
C27   C28   A    
O1    C2    A    
O11   C58   A    
C43   C44   A    
C53   C57   S    
O8    C3    A    
C54   C55   A    
C11   C16   A    
C19   H12   S    
C38   C41   A    
C35   C36   A    
O9    V2    S    
O7    V2    S    
O4    V1    S    
C12   C13   A    
O3    V1    S    
V1    O10   S    
C62   H32   S    
C14   H7    S    
H9    C29   S    
C51   H28   S    
C17   C18   A    
C36   C40   A    
C31   H18   S    
C52   H29   S    
C5    C6    A    
C61   C62   S    
C37   C38   A    
C15   C16   A    
C32   C33   A    
V3    O20   S    
C34   C35   A    
C17   C22   A    
C42   C43   A    
C3    C23   S    
C46   H25   S    
C11   H5    S    
O13   C60   A    
C13   C59   S    
C8    H3    S    
O13   V3    S    
C57   O16   A    
C7    C8    A    
C22   C26   A    
C42   H22   S    
C14   C15   A    
