data_mof_unit_19256.cif
_audit_creation_date              2012-12-11T16:56:12-0500
_audit_creation_method            fapswitch 2.2
_symmetry_space_group_name_H-M    P1
_symmetry_Int_Tables_number       1
_space_group_crystal_system       triclinic
_cell_length_a                    6.955407
_cell_length_b                    14.495339
_cell_length_c                    16.201221
_cell_angle_alpha                 90.368986
_cell_angle_beta                  89.984229
_cell_angle_gamma                 90.00143
_cell_volume                      1633.38908207

loop_
_atom_site_label
_atom_site_type_symbol
_atom_type_description
_atom_site_fract_x
_atom_site_fract_y
_atom_site_fract_z
_atom_type_partial_charge
O1    O     O_R   0.505830 0.583360 0.413880 -0.551413
O2    O     O_R   0.175830 0.595460 0.585520 -0.541637
O3    O     O_R   0.005520 0.416640 0.586120 -0.544908
C1    C     C_R   0.344518 0.617105 0.614678 0.687084
O4    O     O_R   0.176120 0.594390 0.414490 -0.531206
O5    O     O_R   0.005810 0.415570 0.413870 -0.541684
C2    C     C_R   0.345081 0.618527 0.387689 0.681586
O6    O     O_R   0.505540 0.584430 0.586130 -0.539720
O7    O     O_3   0.339200 0.441330 0.500000 -0.367987
V1    V     V_3+5 0.064350 0.510880 0.500000 1.386167
O8    O     O_R   0.676100 0.404540 0.414480 -0.536562
C3    C     C_R   0.845162 0.382333 0.385900 0.695583
O9    O     O_R   0.675810 0.405610 0.585510 -0.549463
C4    C     C_R   0.845139 0.380862 0.611465 0.642585
V2    V     V_3+5 0.564340 0.489120 0.500000 1.370186
O10   O     O_3   0.839360 0.558670 0.500000 -0.372575
C5    C     C_2   0.727831 0.227146 0.798194 -0.091776
C6    C     C_2   0.888586 0.186461 0.826407 -0.274614
H1    H     H_    0.589409 0.209997 0.825044 0.122386
H2    H     H_    0.027245 0.210405 0.804616 0.136307
C7    C     C_2   0.735269 0.303362 0.737028 -0.215523
C8    C     C_2   0.855474 0.303641 0.671496 0.261592
H3    H     H_    0.636603 0.360626 0.746309 0.081922
C9    C     C_R   0.726392 0.181388 0.242603 0.107334
C10   C     C_R   0.882531 0.180043 0.187911 -0.111263
C11   C     C_R   0.034934 0.241436 0.204105 -0.180661
H4    H     H_    0.158089 0.243101 0.163545 0.134439
C12   C     C_R   0.023632 0.306014 0.269221 -0.184539
H5    H     H_    0.139259 0.355112 0.277176 0.129155
C13   C     C_R   0.859024 0.311548 0.319771 -0.113902
C14   C     C_R   0.714406 0.245880 0.306695 0.109678
C15   C     C_3   0.504958 0.260466 0.292606 -0.415154
C16   C     C_3   0.517708 0.189451 0.223569 -0.402543
H6    H     H_    0.473642 0.331231 0.270260 0.165468
H7    H     H_    0.415829 0.237356 0.345445 0.180097
H8    H     H_    0.491989 0.218731 0.161285 0.169089
H9    H     H_    0.438170 0.124741 0.237053 0.172703
C17   C     C_R   0.506956 0.680667 0.741914 0.102930
C18   C     C_R   0.352340 0.681315 0.686430 -0.114543
C19   C     C_R   0.200657 0.742966 0.703552 -0.180488
H10   H     H_    0.078058 0.746069 0.662750 0.131657
C20   C     C_R   0.212580 0.806378 0.769757 -0.166301
H11   H     H_    0.097862 0.855883 0.778164 0.129969
C21   C     C_R   0.376523 0.810185 0.820965 -0.112569
C22   C     C_R   0.519255 0.743718 0.807111 0.098196
C23   C     C_3   0.730139 0.755784 0.795265 -0.411166
C24   C     C_3   0.717027 0.686133 0.724966 -0.400538
H12   H     H_    0.814415 0.730426 0.848801 0.173939
H13   H     H_    0.766480 0.826528 0.774321 0.168078
H14   H     H_    0.791860 0.620124 0.738289 0.165613
H15   H     H_    0.747941 0.715844 0.663349 0.164199
C25   C     C_R   0.499407 0.757157 0.318336 0.004609
C26   C     C_R   0.351529 0.690923 0.323216 -0.135023
C27   C     C_R   0.202876 0.696582 0.264106 -0.119040
H16   H     H_    0.082415 0.649474 0.266593 0.109595
C28   C     C_R   0.214689 0.758504 0.197508 -0.179061
H17   H     H_    0.101271 0.758673 0.151824 0.119909
C29   C     C_R   0.377807 0.814746 0.186772 -0.098775
C30   C     C_R   0.515528 0.813704 0.249629 0.040660
C31   C     C_3   0.728136 0.802793 0.245862 -0.395869
C32   C     C_3   0.714464 0.747714 0.325732 0.284356
H18   H     H_    0.804138 0.869994 0.252130 0.192177
H19   H     H_    0.772778 0.760115 0.191964 0.120605
H20   H     H_    0.768021 0.675700 0.320602 0.075250
O11   O     O_R   0.229930 0.912420 0.917160 -0.539929
O12   O     O_R   0.559420 0.902500 0.088780 -0.539428
O13   O     O_R   0.729660 0.081330 0.089380 -0.537444
C33   C     C_R   0.390416 0.880143 0.116984 0.701303
O14   O     O_R   0.559650 0.901420 0.917750 -0.538598
O15   O     O_R   0.729880 0.080250 0.917130 -0.535922
C34   C     C_R   0.390638 0.879687 0.888579 0.696296
O16   O     O_R   0.229700 0.913500 0.089410 -0.538064
O17   O     O_3   0.396250 0.055540 0.003280 -0.372363
V3    V     V_3+5 0.671130 0.986010 0.003260 1.398875
O18   O     O_R   0.059600 0.091310 0.917720 -0.545876
C35   C     C_R   0.891061 0.114535 0.890606 0.724933
O19   O     O_R   0.059370 0.092380 0.088750 -0.543479
C36   C     C_R   0.890592 0.114401 0.117480 0.694782
V4    V     V_3+5 0.171120 0.007820 0.003230 1.389406
O20   O     O_3   0.896130 0.938240 0.003240 -0.369611
O21   O     O_3   0.803988 0.799532 0.389964 -0.560493
C37   C     C_3   0.711033 0.792157 0.467305 0.137495
H21   H     H_    0.823128 0.780581 0.514966 0.119571
H22   H     H_    0.610169 0.733203 0.471650 0.116333
C38   C     C_3   0.607773 0.883088 0.486872 -0.334956
H23   H     H_    0.715436 0.939547 0.491730 0.205107
H24   H     H_    0.506940 0.900194 0.436047 0.206071
C39   C     C_3   0.494605 0.877829 0.567268 -0.825427
H25   H     H_    0.380740 0.824522 0.561809 0.229081
H26   H     H_    0.425141 0.945398 0.580080 0.238110
H27   H     H_    0.591399 0.861044 0.619526 0.233098
O22   O     O_3   0.945434 0.221316 0.649491 -0.566955
C40   C     C_3   0.146213 0.231360 0.638703 0.080023
H28   H     H_    0.217615 0.183845 0.682657 0.128631
H29   H     H_    0.203905 0.301358 0.652968 0.109066
C41   C     C_3   0.200626 0.201531 0.550940 -0.299224
H30   H     H_    0.132111 0.133987 0.536645 0.201905
H31   H     H_    0.146378 0.253047 0.506106 0.196982
C42   C     C_3   0.417864 0.191311 0.541150 -0.798844
H32   H     H_    0.489126 0.258946 0.550025 0.254237
H33   H     H_    0.451692 0.165169 0.478300 0.216441
H34   H     H_    0.475602 0.141502 0.586707 0.234265

loop_
_geom_bond_atom_site_label_1
_geom_bond_atom_site_label_2
_ccdc_geom_bond_type
O12   C33   A    
C40   H28   S    
O11   V4    S    
O17   V3    S    
C1    O6    A    
O21   C37   S    
C38   H23   S    
C21   C22   A    
C23   H13   S    
C11   H4    S    
C31   H19   S    
C12   H5    S    
O16   V4    S    
C25   C32   S    
O5    C3    A    
C17   C18   A    
V2    O10   S    
O12   V3    S    
C41   C42   S    
C16   H8    S    
C28   H17   S    
C21   C34   S    
C31   H18   S    
O14   C34   A    
C17   C22   A    
C23   C24   S    
O8    V2    S    
C32   O21   S    
C42   H32   S    
C41   H31   S    
O15   V3    S    
C39   H27   S    
O1    V2    S    
O7    V1    S    
C19   C20   A    
C30   C31   S    
C40   H29   S    
V3    O20   S    
O9    C4    A    
O13   C36   A    
C20   C21   A    
C24   H14   S    
C27   C28   A    
O19   V4    S    
C23   H12   S    
C38   H24   S    
C10   C36   S    
C15   H7    S    
C9    C10   A    
C18   C19   A    
O4    C2    A    
C24   H15   S    
C29   C30   A    
O19   C36   A    
C5    C7    S    
C31   C32   S    
C15   H6    S    
C32   H20   S    
O2    C1    A    
O18   C35   A    
C25   C30   A    
C14   C15   S    
C1    C18   S    
C33   O16   A    
C41   H30   S    
C5    C6    D    
O17   V4    S    
O14   V3    S    
O13   V3    S    
C17   C24   S    
O3    C4    A    
C29   C33   S    
C19   H10   S    
C42   H33   S    
C39   H26   S    
C40   C41   S    
C37   H22   S    
C7    H3    S    
O15   C35   A    
C20   H11   S    
C2    C26   S    
O2    V1    S    
C25   C26   A    
C38   C39   S    
C27   H16   S    
C6    C35   S    
C3    C13   S    
O1    C2    A    
O5    V1    S    
O8    C3    A    
C26   C27   A    
O6    V2    S    
C37   C38   S    
C11   C12   A    
C9    C16   S    
C15   C16   S    
C4    C8    S    
O9    V2    S    
C10   C11   A    
C9    C14   A    
O4    V1    S    
O3    V1    S    
O11   C34   A    
C13   C14   A    
C12   C13   A    
O22   C40   S    
C5    H1    S    
C28   C29   A    
C6    H2    S    
O7    V2    S    
C16   H9    S    
V4    O20   S    
C22   C23   S    
C42   H34   S    
C39   H25   S    
C37   H21   S    
C8    O22   S    
V1    O10   S    
C7    C8    D    
O18   V4    S    
