data_mof_unit_45772.cif
_audit_creation_date              2013-03-05T15:40:28-0500
_audit_creation_method            fapswitch 2.2
_symmetry_space_group_name_H-M    P1
_symmetry_Int_Tables_number       1
_space_group_crystal_system       triclinic
_cell_length_a                    19.036931
_cell_length_b                    10.985068
_cell_length_c                    18.801835
_cell_angle_alpha                 89.624871
_cell_angle_beta                  89.888203
_cell_angle_gamma                 89.983638
_cell_volume                      3931.78508867

loop_
_atom_site_label
_atom_site_type_symbol
_atom_site_description
_atom_site_fract_x
_atom_site_fract_y
_atom_site_fract_z
_atom_type_partial_charge
O1    O     O_R   0.215090 0.709860 0.828130 -0.462948
O2    O     O_R   0.784910 0.709860 0.171870 -0.461541
O3    O     O_R   0.715090 0.209860 0.828130 -0.465545
O4    O     O_R   0.284910 0.209860 0.171870 -0.460424
O5    O     O_R   0.236990 0.958390 0.823710 -0.458942
O6    O     O_R   0.763010 0.958390 0.176290 -0.470852
O7    O     O_R   0.736990 0.458390 0.823710 -0.475029
O8    O     O_R   0.263010 0.458390 0.176290 -0.471441
C1    C     C_R   0.272273 0.041326 0.853573 0.553674
C2    C     C_R   0.727450 0.040885 0.146092 0.625053
C3    C     C_R   0.772427 0.540853 0.853726 0.622634
C4    C     C_R   0.227453 0.540844 0.146094 0.627861
O9    O     O_R   0.332380 0.074750 0.830850 -0.525384
O10   O     O_R   0.667620 0.074750 0.169150 -0.482881
O11   O     O_R   0.832380 0.574750 0.830850 -0.483831
O12   O     O_R   0.167620 0.574750 0.169150 -0.483645
O13   O     O_R   0.445800 0.917770 0.825070 -0.468116
O14   O     O_R   0.554200 0.917770 0.174930 -0.470176
O15   O     O_R   0.945800 0.417770 0.825070 -0.472865
O16   O     O_R   0.054200 0.417770 0.174930 -0.469193
C5    C     C_R   0.471523 0.821847 0.853298 0.535484
C6    C     C_R   0.528439 0.822365 0.146666 0.537716
C7    C     C_R   0.971581 0.321870 0.853251 0.530874
C8    C     C_R   0.028500 0.322334 0.146621 0.541688
O17   O     O_R   0.456410 0.716580 0.829970 -0.499930
O18   O     O_R   0.543590 0.716580 0.170030 -0.494497
O19   O     O_R   0.956410 0.216580 0.829970 -0.500038
O20   O     O_R   0.043590 0.216580 0.170030 -0.494179
O21   O     O_R   0.321080 0.625290 0.822650 -0.444769
O22   O     O_R   0.678920 0.625290 0.177350 -0.437752
O23   O     O_R   0.821080 0.125290 0.822650 -0.440892
O24   O     O_R   0.178920 0.125290 0.177350 -0.442624
C9    C     C_R   0.260896 0.635345 0.851034 0.579082
C10   C     C_R   0.738979 0.636116 0.148792 0.587136
C11   C     C_R   0.760906 0.135339 0.851036 0.582528
C12   C     C_R   0.239037 0.135985 0.148909 0.591346
O25   O     O_R   0.214930 0.711450 0.668160 -0.469525
O26   O     O_R   0.785070 0.711450 0.331840 -0.471277
O27   O     O_R   0.714930 0.211450 0.668160 -0.469490
O28   O     O_R   0.285070 0.211450 0.331840 -0.472110
O29   O     O_R   0.236850 0.959870 0.675420 -0.492446
O30   O     O_R   0.763150 0.959870 0.324580 -0.509374
O31   O     O_R   0.736850 0.459870 0.675420 -0.493736
O32   O     O_R   0.263150 0.459870 0.324580 -0.510006
C13   C     C_R   0.273024 0.045374 0.647260 0.574597
C14   C     C_R   0.726051 0.042509 0.353813 0.570610
C15   C     C_R   0.773025 0.545372 0.647259 0.576076
C16   C     C_R   0.226061 0.542529 0.353804 0.569809
O33   O     O_R   0.332230 0.076350 0.670880 -0.455807
O34   O     O_R   0.667770 0.076350 0.329120 -0.430287
O35   O     O_R   0.832230 0.576350 0.670880 -0.455113
O36   O     O_R   0.167770 0.576350 0.329120 -0.431040
O37   O     O_R   0.445660 0.919250 0.676780 -0.431658
O38   O     O_R   0.554340 0.919250 0.323220 -0.420842
O39   O     O_R   0.945660 0.419250 0.676780 -0.432795
O40   O     O_R   0.054340 0.419250 0.323220 -0.421289
C17   C     C_R   0.472291 0.824590 0.649513 0.596654
C18   C     C_R   0.530960 0.822694 0.353120 0.587104
C19   C     C_R   0.972291 0.324590 0.649513 0.595454
C20   C     C_R   0.030956 0.322694 0.353117 0.586989
O41   O     O_R   0.456260 0.718170 0.670000 -0.509064
O42   O     O_R   0.543740 0.718170 0.330000 -0.517720
O43   O     O_R   0.956260 0.218170 0.670000 -0.508860
O44   O     O_R   0.043740 0.218170 0.330000 -0.518007
O45   O     O_R   0.320940 0.626760 0.674370 -0.460285
O46   O     O_R   0.679060 0.626760 0.325630 -0.470425
O47   O     O_R   0.820940 0.126760 0.674370 -0.458243
O48   O     O_R   0.179060 0.126760 0.325630 -0.471343
C21   C     C_R   0.259608 0.633490 0.647794 0.622095
C22   C     C_R   0.739598 0.633261 0.352810 0.610886
C23   C     C_R   0.759607 0.133484 0.647796 0.624081
C24   C     C_R   0.239597 0.133263 0.352812 0.609643
Cr1   Cr    Cr6+3 0.230530 0.836340 0.748870 1.133475
Cr2   Cr    Cr6+3 0.769470 0.836340 0.251130 1.122362
Cr3   Cr    Cr6+3 0.730530 0.336340 0.748870 1.130814
Cr4   Cr    Cr6+3 0.269470 0.336340 0.251130 1.124287
Cr5   Cr    Cr6+3 0.387420 0.989430 0.750820 1.141974
Cr6   Cr    Cr6+3 0.612580 0.989430 0.249180 1.155695
Cr7   Cr    Cr6+3 0.887420 0.489430 0.750820 1.152122
Cr8   Cr    Cr6+3 0.112580 0.489430 0.249180 1.157111
Cr9   Cr    Cr6+3 0.385640 0.677860 0.749230 1.112161
Cr10  Cr    Cr6+3 0.614360 0.677860 0.250770 1.109845
Cr11  Cr    Cr6+3 0.885640 0.177860 0.749230 1.117734
Cr12  Cr    Cr6+3 0.114360 0.177860 0.250770 1.110933
O49   O     O_3   0.334530 0.834540 0.749640 -0.294964
O50   O     O_3   0.665470 0.834540 0.250360 -0.313228
O51   O     O_3   0.834530 0.334540 0.749640 -0.302263
O52   O     O_3   0.165470 0.334540 0.250360 -0.311671
H1    H     H_    0.498941 0.633002 0.938321 0.166624
H2    H     H_    0.496143 0.634080 0.064269 0.165986
H3    H     H_    0.000004 0.133081 0.937997 0.165101
H4    H     H_    0.997367 0.133848 0.063928 0.165880
C25   C     C_R   0.498474 0.830793 0.074603 -0.014224
C26   C     C_R   0.501187 0.829381 0.925414 -0.012480
C27   C     C_R   0.998780 0.330618 0.074452 -0.011874
C28   C     C_R   0.001467 0.329495 0.925263 -0.008197
C29   C     C_R   0.494864 0.943040 0.036600 -0.025522
C30   C     C_R   0.507178 0.941974 0.961898 -0.023632
C31   C     C_R   0.994864 0.442900 0.036522 -0.025143
C32   C     C_R   0.007183 0.442064 0.961820 -0.020265
C33   C     C_R   0.500246 0.720586 0.964328 -0.137961
C34   C     C_R   0.496679 0.721328 0.037126 -0.137258
C35   C     C_R   0.001017 0.220618 0.964081 -0.128606
C36   C     C_R   0.997510 0.221185 0.036879 -0.131125
C37   C     C_R   0.480201 0.056425 0.070035 0.259689
C38   C     C_R   0.524118 0.053755 0.926877 0.257103
C39   C     C_R   0.979916 0.556115 0.070025 0.258363
C40   C     C_R   0.023863 0.554026 0.926870 0.259781
C41   C     C_R   0.990991 0.664735 0.032772 -0.086727
C42   C     C_R   0.014726 0.663652 0.962817 -0.087380
C43   C     C_R   0.491503 0.164895 0.032702 -0.089844
C44   C     C_R   0.515217 0.163514 0.962743 -0.095084
H5    H     H_    0.981013 0.751078 0.058388 0.157240
H6    H     H_    0.026090 0.749092 0.936121 0.158687
H7    H     H_    0.481725 0.251357 0.058261 0.156334
H8    H     H_    0.526762 0.248824 0.935986 0.157418
C45   C     C_2   0.248859 0.575024 0.918981 -0.044875
C46   C     C_2   0.750704 0.576956 0.080732 -0.038287
C47   C     C_2   0.748965 0.075018 0.919002 -0.037803
C48   C     C_2   0.251281 0.075694 0.081368 0.001752
C49   C     C_2   0.253686 0.585292 0.078035 0.244702
C50   C     C_2   0.746046 0.586362 0.921227 0.244460
C51   C     C_2   0.753601 0.085547 0.078031 0.243151
C52   C     C_2   0.247120 0.083893 0.922756 0.240338
C53   C     C_2   0.289087 0.506683 0.034745 0.183278
C54   C     C_2   0.709937 0.509101 0.965198 0.168661
C55   C     C_2   0.789470 0.007377 0.034861 0.167679
C56   C     C_2   0.212030 0.005296 0.966036 0.221161
C57   C     C_2   0.302862 0.537790 0.959853 0.181192
C58   C     C_2   0.696442 0.541060 0.039902 0.198165
C59   C     C_2   0.803086 0.038410 0.959932 0.197509
C60   C     C_2   0.197516 0.038669 0.040277 0.253532
H9    H     H_    0.195956 0.577896 0.940917 0.108858
H10   H     H_    0.803663 0.578768 0.058900 0.100554
H11   H     H_    0.696039 0.077427 0.940894 0.102108
H12   H     H_    0.304531 0.076633 0.060247 0.098079
C61   C     C_2   0.509511 0.838881 0.583261 -0.077700
C62   C     C_2   0.510172 0.825990 0.426952 -0.072126
C63   C     C_2   0.009510 0.338879 0.583259 -0.078357
C64   C     C_2   0.010159 0.325992 0.426948 -0.071854
C65   C     C_2   0.541392 0.745269 0.471100 -0.141419
C66   C     C_2   0.529018 0.740807 0.547079 -0.167777
C67   C     C_2   0.041369 0.245257 0.471095 -0.141223
C68   C     C_2   0.029001 0.240799 0.547074 -0.168057
H13   H     H_    0.575541 0.674259 0.450599 0.205959
H14   H     H_    0.531461 0.651726 0.572455 0.188327
H15   H     H_    0.075507 0.174234 0.450594 0.206007
H16   H     H_    0.031435 0.151716 0.572448 0.188379
H17   H     H_    0.477154 0.899282 0.445632 0.143183
H18   H     H_    0.509782 0.928761 0.559478 0.159816
H19   H     H_    0.977153 0.399300 0.445630 0.143096
H20   H     H_    0.009792 0.428760 0.559477 0.159958
C69   C     C_2   0.243483 0.557990 0.586606 0.188471
C70   C     C_2   0.750660 0.554079 0.414470 0.180154
C71   C     C_2   0.743476 0.057975 0.586612 0.189492
C72   C     C_2   0.250654 0.054088 0.414474 0.180173
C73   C     C_2   0.235919 0.568029 0.428823 -0.054675
C74   C     C_2   0.764092 0.570453 0.572227 -0.007789
C75   C     C_2   0.735903 0.068002 0.428837 -0.054983
C76   C     C_2   0.264091 0.070452 0.572228 -0.008427
C77   C     C_2   0.180375 0.550417 0.472882 0.208440
C78   C     C_2   0.809098 0.515973 0.526856 0.226676
C79   C     C_2   0.680345 0.050450 0.472891 0.208189
C80   C     C_2   0.309093 0.015957 0.526858 0.227212
C81   C     C_2   0.184186 0.579588 0.548826 0.136950
C82   C     C_2   0.811081 0.554104 0.451736 0.135606
C83   C     C_2   0.684166 0.079552 0.548849 0.136740
C84   C     C_2   0.311079 0.054083 0.451735 0.135631
H21   H     H_    0.287058 0.596738 0.447907 0.095432
H22   H     H_    0.727288 0.640108 0.554806 0.051890
H23   H     H_    0.787057 0.096612 0.447929 0.095424
H24   H     H_    0.227296 0.140118 0.554806 0.051347
O53   O     O_3   0.117153 0.511786 0.445118 -0.643883
H25   H     H_    0.081026 0.513079 0.482639 0.352886
O54   O     O_3   0.853572 0.425505 0.551148 -0.677950
H26   H     H_    0.875135 0.386115 0.509235 0.313699
O55   O     O_3   0.617097 0.011984 0.445104 -0.643549
H27   H     H_    0.580995 0.013108 0.482660 0.352904
O56   O     O_3   0.353561 0.925480 0.551152 -0.677469
H28   H     H_    0.375117 0.886079 0.509241 0.313620
N1    N     N_R   0.123549 0.636715 0.580442 0.068226
O57   O     O_R   0.090337 0.722576 0.546322 -0.264883
O58   O     O_R   0.095925 0.591203 0.638161 -0.330074
N2    N     N_R   0.876875 0.593938 0.421650 0.065978
O59   O     O_R   0.924648 0.640773 0.462625 -0.269280
O60   O     O_R   0.894191 0.562388 0.357342 -0.328327
N3    N     N_R   0.623522 0.136606 0.580502 0.068129
O61   O     O_R   0.590271 0.222458 0.546416 -0.265140
O62   O     O_R   0.595948 0.091059 0.638236 -0.329284
N4    N     N_R   0.376885 0.093852 0.421639 0.065992
O63   O     O_R   0.424721 0.140454 0.462627 -0.269547
O64   O     O_R   0.394151 0.062377 0.357305 -0.329003
O65   O     O_3   0.294812 0.477020 0.564540 -0.696170
H29   H     H_    0.272668 0.413616 0.534694 0.318343
O66   O     O_3   0.692132 0.489599 0.437869 -0.702486
H30   H     H_    0.707469 0.417573 0.465890 0.337143
O67   O     O_3   0.794807 0.977020 0.564535 -0.694979
H31   H     H_    0.772660 0.913610 0.534695 0.318470
O68   O     O_3   0.192119 0.989638 0.437882 -0.702558
H32   H     H_    0.207447 0.917600 0.465897 0.337125
O69   O     O_3   0.449997 0.065348 0.136595 -0.652250
H33   H     H_    0.425389 0.988009 0.147601 0.319359
O70   O     O_3   0.554084 0.059598 0.860036 -0.654306
H34   H     H_    0.577166 0.980686 0.850036 0.318293
O71   O     O_3   0.949659 0.564697 0.136575 -0.651517
H35   H     H_    0.925175 0.487202 0.147485 0.320245
O72   O     O_3   0.053805 0.560202 0.860026 -0.654180
H36   H     H_    0.076995 0.481422 0.849930 0.318011
O73   O     O_3   0.309443 0.392966 0.059512 -0.668913
H37   H     H_    0.334337 0.349069 0.021123 0.352963
O74   O     O_3   0.688112 0.396271 0.941227 -0.692654
H38   H     H_    0.663366 0.352830 0.980240 0.357140
O75   O     O_3   0.810711 0.894267 0.059839 -0.690971
H39   H     H_    0.835019 0.849974 0.021198 0.356969
O76   O     O_3   0.190421 0.892637 0.941724 -0.700289
H40   H     H_    0.164788 0.849752 0.980344 0.351180
O77   O     O_3   0.370163 0.527700 0.932657 -0.681885
H41   H     H_    0.402159 0.503739 0.971870 0.308746
O78   O     O_3   0.628938 0.533452 0.066933 -0.666108
H42   H     H_    0.596773 0.510663 0.027809 0.310778
O79   O     O_3   0.870442 0.029028 0.932777 -0.666740
H43   H     H_    0.902515 0.005491 0.972011 0.310647
O80   O     O_3   0.129689 0.031937 0.066528 -0.671218
H44   H     H_    0.097982 0.008380 0.027177 0.308143
O81   O     O_3   0.237244 0.703673 0.058969 -0.740804
H45   H     H_    0.272649 0.733527 0.024318 0.322650
O82   O     O_3   0.763834 0.704170 0.939446 -0.734617
H46   H     H_    0.728645 0.735422 0.973676 0.321037
O83   O     O_3   0.736236 0.203427 0.058663 -0.734988
H47   H     H_    0.771425 0.233929 0.023979 0.322209
O84   O     O_3   0.263029 0.199807 0.946039 -0.755116
H48   H     H_    0.286396 0.244886 0.906743 0.337761

loop_
_geom_bond_atom_site_label_1
_geom_bond_atom_site_label_2
_geom_bond_distance
_ccdc_geom_bond_type
C10   C46   1.455810 S    
Cr11  O51   1.976931 S    
O70   H34   0.990686 S    
O4    C12   1.270435 A    
C9    C45   1.453095 S    
N4    O63   1.301311 A    
C24   C72   1.460326 S    
O39   C19   1.267595 A    
O20   Cr12  2.073570 S    
C60   O80   1.383257 S    
H4    C36   1.082914 S    
O69   H33   0.990755 S    
C66   H14   1.086890 S    
C79   C83   1.467488 S    
C43   C44   1.390007 A    
C42   H6    1.083129 S    
C64   C67   1.349258 D    
C68   H16   1.086892 S    
C45   H9    1.088071 S    
Cr6   O50   1.976841 S    
Cr7   O51   1.977586 S    
C29   C30   1.423636 A    
C84   N4    1.440376 S    
C38   C44   1.395453 A    
O71   H35   0.990753 S    
N2    O59   1.301352 A    
O7    C3    1.265984 A    
O39   Cr7   1.941398 S    
C33   C34   1.370354 A    
C75   H23   1.085799 S    
C76   C80   1.350371 D    
O25   C21   1.267312 A    
C54   O74   1.385763 S    
O26   Cr2   2.060931 S    
N3    O62   1.301931 A    
C27   C31   1.422722 A    
C5    C26   1.472652 S    
C26   C30   1.422967 A    
C50   O82   1.383220 S    
C67   C68   1.447872 S    
O21   C9    1.268067 A    
C63   H20   1.081231 S    
O8    Cr4   1.941279 S    
C1    C52   1.464700 S    
C49   O81   1.382636 S    
C7    C28   1.472563 S    
O30   C14   1.276564 A    
O32   Cr4   1.945979 S    
C1    O9    1.273939 A    
O44   Cr12  2.055006 S    
C57   O77   1.383232 S    
C35   C36   1.370292 A    
C73   H21   1.085801 S    
C49   C53   1.367131 D    
C78   C82   1.470993 S    
C3    O11   1.273775 A    
O11   Cr7   2.062089 S    
C4    C49   1.454219 S    
C4    O12   1.274358 A    
C26   C33   1.397313 A    
O33   Cr5   2.064321 S    
C79   O55   1.380895 S    
C47   C59   1.346932 D    
O55   H27   0.984534 S    
C7    O19   1.272826 A    
O3    Cr3   2.051585 S    
Cr4   O52   1.980025 S    
O47   C23   1.272838 A    
C46   H10   1.087933 S    
C65   H13   1.087353 S    
C52   C56   1.357522 D    
C29   C37   1.426136 A    
O2    C10   1.271050 A    
C37   C43   1.395488 A    
Cr5   O49   1.977586 S    
O68   H32   0.991888 S    
O18   Cr10  2.073570 S    
C48   C60   1.348091 D    
O17   Cr9   2.077797 S    
C39   C41   1.395487 A    
O67   H31   0.991940 S    
C13   C76   1.445956 S    
C40   O72   1.380271 S    
O34   Cr6   2.073675 S    
O6    Cr2   1.941279 S    
C55   C59   1.469846 S    
N1    O58   1.301924 A    
C62   H17   1.081291 S    
O31   Cr3   1.933375 S    
O24   Cr12  1.937267 S    
O16   Cr8   1.955681 S    
O9    Cr5   2.062089 S    
C32   C40   1.426244 A    
C61   C66   1.330331 D    
O30   Cr2   1.945979 S    
O22   C10   1.267475 A    
O1    C9    1.269777 A    
O72   H36   0.990685 S    
O48   Cr12  1.951731 S    
O75   H39   0.990903 S    
C8    O20   1.272569 A    
C23   C71   1.455924 S    
C80   C84   1.471021 S    
C82   N2    1.440346 S    
O80   H44   0.991501 S    
O73   H37   0.990542 S    
C2    C51   1.454505 S    
C2    O10   1.274184 A    
C8    C27   1.473419 S    
C71   C83   1.354952 D    
O78   H42   0.991457 S    
C54   C58   1.472102 S    
C53   O73   1.385745 S    
C74   H22   1.086729 S    
O7    Cr3   1.954012 S    
C78   O54   1.381352 S    
O27   C23   1.267322 A    
N1    O57   1.301619 A    
C47   H11   1.088034 S    
O28   Cr4   2.060931 S    
O43   Cr11  2.050964 S    
O48   C24   1.263825 A    
C48   H12   1.088032 S    
C50   C54   1.365751 D    
O15   C7    1.274685 A    
O76   H40   0.990752 S    
O74   H38   0.990905 S    
O5    C1    1.266877 A    
O83   H47   0.990877 S    
C46   C58   1.348763 D    
O46   Cr10  1.951731 S    
O79   H43   0.991450 S    
C77   O53   1.380846 S    
C63   C68   1.330326 D    
C25   C29   1.422768 A    
C37   O69   1.380247 S    
O82   H46   0.990919 S    
C51   O83   1.383025 S    
C13   O33   1.259968 A    
O40   Cr8   1.934397 S    
O8    C4    1.263068 A    
C83   N3    1.442765 S    
O13   Cr5   1.948050 S    
O81   H45   0.990890 S    
C76   H24   1.086713 S    
O23   Cr11  1.932078 S    
C17   C61   1.439585 S    
C59   O79   1.383300 S    
O47   Cr11  1.957227 S    
Cr2   O50   1.980025 S    
O15   Cr7   1.948050 S    
O32   C16   1.276545 A    
C64   H19   1.081307 S    
Cr1   O49   1.980016 S    
C80   O56   1.381363 S    
C18   O42   1.253987 A    
C20   C64   1.443442 S    
C70   O66   1.389645 S    
Cr3   O51   1.980016 S    
O26   C22   1.279520 A    
O21   Cr9   1.932078 S    
C67   H15   1.087348 S    
O27   Cr3   2.074228 S    
C65   C66   1.447894 S    
C77   C81   1.467388 S    
O37   Cr5   1.941398 S    
C6    C25   1.473474 S    
C75   C79   1.355172 D    
C61   H18   1.081222 S    
C72   O68   1.389647 S    
O3    C11   1.269962 A    
C69   C81   1.354942 D    
C73   C77   1.355125 D    
C51   C55   1.367146 D    
C44   H8    1.083127 S    
C45   C57   1.346653 D    
C27   C36   1.398546 A    
O14   Cr6   1.955681 S    
O38   C18   1.276973 A    
C5    O17   1.272667 A    
C56   C60   1.471157 S    
O37   C17   1.267594 A    
O22   Cr10  1.937267 S    
O28   C24   1.279524 A    
H1    C33   1.082413 S    
C22   C70   1.460330 S    
C19   O43   1.265705 A    
N4    O64   1.301767 A    
O5    Cr1   1.954012 S    
C55   O75   1.385906 S    
Cr12  O52   1.977328 S    
H3    C35   1.082501 S    
C62   C65   1.349262 D    
O2    Cr2   2.064647 S    
C25   C34   1.398156 A    
O6    C2    1.263433 A    
C15   O35   1.259966 A    
O24   C12   1.267432 A    
C17   O41   1.265700 A    
C41   H5    1.083141 S    
O66   H30   0.991886 S    
C31   C39   1.426135 A    
C16   C73   1.452401 S    
C14   O34   1.258668 A    
C19   C63   1.439593 S    
O25   Cr1   2.074228 S    
C30   C38   1.426246 A    
O29   C13   1.276412 A    
C20   O44   1.253993 A    
O1    Cr1   2.051585 S    
H2    C34   1.082919 S    
O14   C6    1.276656 A    
O77   H41   0.991457 S    
C81   N1    1.442732 S    
N3    O61   1.301597 A    
Cr8   O52   1.976841 S    
O54   H26   0.989863 S    
Cr10  O50   1.977328 S    
C31   C32   1.423600 A    
C18   C62   1.443426 S    
C11   C47   1.453138 S    
O46   C22   1.263829 A    
C40   C42   1.395465 A    
O45   C21   1.272833 A    
C14   C75   1.452444 S    
C28   C32   1.422988 A    
O19   Cr11  2.077797 S    
N2    O60   1.301774 A    
C69   O65   1.385937 S    
O23   C11   1.267894 A    
O10   Cr6   2.053386 S    
O42   Cr10  2.055006 S    
C58   O78   1.383344 S    
C12   C48   1.454436 S    
O35   Cr7   2.064321 S    
C39   O71   1.380227 S    
C52   O84   1.383020 S    
C21   C69   1.455892 S    
C74   C78   1.350360 D    
C56   O76   1.384987 S    
O29   Cr1   1.933375 S    
O56   H28   0.989852 S    
C3    C50   1.455508 S    
C53   C57   1.469902 S    
C16   O36   1.258700 A    
O40   C20   1.276977 A    
O4    Cr4   2.064647 S    
C43   H7    1.083141 S    
O65   H29   0.991932 S    
C6    O18   1.272855 A    
C28   C35   1.397060 A    
C41   C42   1.390020 A    
O84   H48   0.991481 S    
C72   C84   1.348022 D    
O45   Cr9   1.957227 S    
C70   C82   1.348008 D    
O41   Cr9   2.050964 S    
C71   O67   1.385926 S    
O12   Cr8   2.053385 S    
O36   Cr8   2.073675 S    
O53   H25   0.984443 S    
O31   C15   1.276411 A    
O16   C8    1.276854 A    
Cr9   O49   1.976931 S    
C38   O70   1.380249 S    
O38   Cr6   1.934397 S    
C15   C74   1.445959 S    
O13   C5    1.274833 A    
