data_mof_unit_18160.cif
_audit_creation_date              2012-12-10T17:26:11-0500
_audit_creation_method            fapswitch 2.2
_symmetry_space_group_name_H-M    P1
_symmetry_Int_Tables_number       1
_space_group_crystal_system       triclinic
_cell_length_a                    25.894574
_cell_length_b                    25.910237
_cell_length_c                    22.156733
_cell_angle_alpha                 89.635921
_cell_angle_beta                  125.706011
_cell_angle_gamma                 90.18673
_cell_volume                      12071.0487284

loop_
_atom_site_label
_atom_site_type_symbol
_atom_type_description
_atom_site_fract_x
_atom_site_fract_y
_atom_site_fract_z
_atom_type_partial_charge
C1    C     C_R   0.900218 0.750343 0.300593 0.820354
C2    C     C_R   0.099658 0.249833 0.699349 0.816701
C3    C     C_R   0.099801 0.749987 0.699454 0.817330
C4    C     C_R   0.900256 0.249992 0.300623 0.814964
C5    C     C_R   0.400468 0.249950 0.300475 0.821229
C6    C     C_R   0.599570 0.749949 0.699419 0.820433
C7    C     C_R   0.599742 0.249976 0.699339 0.816394
C8    C     C_R   0.400241 0.749932 0.300720 0.814177
C9    C     C_3   0.196112 0.773039 0.976261 0.543864
C10   C     C_3   0.811134 0.249665 0.024721 0.551144
C11   C     C_3   0.807569 0.753220 0.024237 0.550356
C12   C     C_3   0.198212 0.222144 0.975703 0.551629
C13   C     C_3   0.689764 0.250741 0.975089 0.539854
C14   C     C_3   0.304625 0.724864 0.025412 0.548290
C15   C     C_3   0.305070 0.272628 0.022648 0.544049
C16   C     C_3   0.686492 0.755328 0.975591 0.545766
C17   C     C_1   0.139671 0.749984 0.778842 -0.165889
C18   C     C_1   0.860471 0.249755 0.221381 -0.158440
C19   C     C_1   0.859504 0.752487 0.221492 -0.166305
C20   C     C_1   0.139743 0.248787 0.778387 -0.151360
C21   C     C_1   0.639815 0.250289 0.778507 -0.178208
C22   C     C_1   0.360230 0.749334 0.221665 -0.150635
C23   C     C_1   0.361863 0.249280 0.221118 -0.164975
C24   C     C_1   0.638319 0.750314 0.778581 -0.169977
C25   C     C_3   0.238094 0.701020 0.976015 0.041379
C26   C     C_3   0.739228 0.291889 0.024507 0.027585
C27   C     C_3   0.735273 0.713923 0.026655 0.072771
C28   C     C_3   0.237819 0.295489 0.974398 0.008491
C29   C     C_3   0.761614 0.208468 0.975321 0.042366
C30   C     C_3   0.262726 0.796928 0.025329 0.011590
C31   C     C_3   0.265461 0.199288 0.024336 0.028919
C32   C     C_3   0.758785 0.794675 0.973556 0.019380
C33   C     C_3   0.213918 0.749808 0.926736 0.015503
C34   C     C_3   0.786851 0.249081 0.073726 0.047557
C35   C     C_3   0.784180 0.756093 0.074034 0.029539
C36   C     C_3   0.214753 0.247063 0.925738 0.047249
C37   C     C_3   0.713966 0.251300 0.926051 0.018721
C38   C     C_3   0.286408 0.748192 0.074281 0.042846
C39   C     C_3   0.288900 0.247931 0.073272 0.013487
C40   C     C_3   0.710153 0.752017 0.926112 0.004879
C41   C     C_1   0.173175 0.749966 0.845615 -0.018504
C42   C     C_1   0.827189 0.249385 0.154697 0.008435
C43   C     C_1   0.825392 0.754628 0.154913 -0.010574
C44   C     C_1   0.173611 0.247844 0.844950 0.008809
C45   C     C_1   0.673415 0.250782 0.845149 -0.029249
C46   C     C_1   0.326781 0.748659 0.155091 0.003594
C47   C     C_1   0.329288 0.248592 0.154369 -0.018165
C48   C     C_1   0.670755 0.750888 0.845208 -0.037264
C49   C     C_R   0.757106 0.665018 0.425408 0.057828
C50   C     C_R   0.239709 0.337265 0.569510 0.061890
C51   C     C_R   0.241070 0.664694 0.573371 0.036791
C52   C     C_R   0.759089 0.337358 0.427914 0.082620
C53   C     C_R   0.259094 0.164893 0.427580 0.038974
C54   C     C_R   0.740937 0.837332 0.570635 0.082451
C55   C     C_R   0.743880 0.166468 0.578388 0.031096
C56   C     C_R   0.260797 0.837707 0.430100 0.062577
C57   C     C_R   0.701857 0.647438 0.358669 0.522507
C58   C     C_R   0.294186 0.356261 0.635707 0.553257
C59   C     C_R   0.295549 0.646744 0.641095 0.581491
C60   C     C_R   0.704132 0.356973 0.362132 0.559121
C61   C     C_R   0.204723 0.147498 0.359621 0.578522
C62   C     C_R   0.795894 0.857157 0.635886 0.556547
C63   C     C_R   0.799283 0.149974 0.646737 0.545786
C64   C     C_R   0.206393 0.856924 0.363703 0.550982
C65   C     C_R   0.643425 0.670452 0.331313 -0.280564
C66   C     C_R   0.353402 0.334068 0.664035 -0.303911
C67   C     C_R   0.354678 0.668235 0.667977 -0.265392
C68   C     C_R   0.645160 0.333530 0.334637 -0.329820
C69   C     C_R   0.145626 0.169027 0.332605 -0.270527
C70   C     C_R   0.854908 0.833711 0.663913 -0.326232
C71   C     C_R   0.857499 0.172566 0.672238 -0.247257
C72   C     C_R   0.147091 0.834935 0.335651 -0.305450
C73   C     C_R   0.639250 0.708598 0.372148 -0.205526
C74   C     C_R   0.358712 0.295063 0.625071 -0.206950
C75   C     C_R   0.359990 0.706367 0.627387 -0.234852
C76   C     C_R   0.641116 0.294067 0.374494 -0.195659
C77   C     C_R   0.140266 0.206719 0.373157 -0.229461
C78   C     C_R   0.859041 0.793968 0.625092 -0.194830
C79   C     C_R   0.861462 0.209664 0.629486 -0.222321
C80   C     C_R   0.141658 0.795850 0.374983 -0.204664
C81   C     C_R   0.694221 0.726602 0.439430 0.067974
C82   C     C_R   0.304345 0.275559 0.558473 0.069553
C83   C     C_R   0.305494 0.725789 0.560523 0.072208
C84   C     C_R   0.695808 0.275264 0.441416 0.065416
C85   C     C_R   0.194723 0.225800 0.440041 0.071049
C86   C     C_R   0.804424 0.775026 0.558562 0.067137
C87   C     C_R   0.806335 0.227323 0.561872 0.067285
C88   C     C_R   0.195970 0.776048 0.441694 0.067087
C89   C     C_R   0.137739 0.746352 0.494761 0.809496
C90   C     C_R   0.862544 0.254017 0.505522 0.803122
C91   C     C_R   0.862197 0.746255 0.505059 0.803221
C92   C     C_R   0.137490 0.253918 0.494542 0.803245
C93   C     C_R   0.637875 0.246336 0.494978 0.806792
C94   C     C_R   0.362604 0.753968 0.505655 0.807353
C95   C     C_R   0.362328 0.246275 0.505244 0.808694
C96   C     C_R   0.637536 0.753967 0.494638 0.798523
C97   C     C_R   0.754334 0.710734 0.459234 -0.023299
C98   C     C_R   0.243860 0.290936 0.537944 -0.030461
C99   C     C_R   0.245058 0.710608 0.540388 -0.023079
C100  C     C_R   0.755840 0.291007 0.460996 -0.032703
C101  C     C_R   0.255122 0.210566 0.460280 -0.023744
C102  C     C_R   0.744320 0.790829 0.538604 -0.032582
C103  C     C_R   0.746384 0.211657 0.542806 -0.015749
C104  C     C_R   0.256503 0.791316 0.462133 -0.029880
C105  C     C_R   0.690475 0.760420 0.486627 -0.170344
C106  C     C_R   0.308824 0.240897 0.512475 -0.167403
C107  C     C_R   0.309849 0.760218 0.513864 -0.167869
C108  C     C_R   0.691898 0.241057 0.488754 -0.167473
C109  C     C_R   0.190408 0.260082 0.486446 -0.168117
C110  C     C_R   0.808511 0.740616 0.512016 -0.167724
C111  C     C_R   0.809775 0.260672 0.513609 -0.169894
C112  C     C_R   0.191377 0.741149 0.487850 -0.167640
C113  C     C_R   0.923308 0.947231 0.362293 -0.380600
C114  C     C_R   0.079517 0.052896 0.637178 -0.338786
C115  C     C_R   0.080680 0.945982 0.636127 -0.372774
C116  C     C_R   0.922506 0.053928 0.362389 -0.369941
C117  C     C_R   0.426895 0.446779 0.359377 -0.367172
C118  C     C_R   0.517527 0.545660 0.625661 -0.359731
C119  C     C_R   0.563289 0.447483 0.634861 -0.368705
C120  C     C_R   0.425643 0.553855 0.358711 -0.331147
C121  C     C_R   0.892844 0.973978 0.294430 0.461208
C122  C     C_R   0.115737 0.025796 0.704316 0.451565
C123  C     C_R   0.114556 0.972041 0.704089 0.434036
C124  C     C_R   0.892082 0.027729 0.294625 0.466110
C125  C     C_R   0.396504 0.473559 0.291768 0.423528
C126  C     C_R   0.546076 0.517458 0.692294 0.447613
C127  C     C_R   0.570995 0.468673 0.697819 0.472756
C128  C     C_R   0.394513 0.527324 0.291520 0.451694
C129  C     C_R   0.961764 0.027481 0.431348 0.018771
C130  C     C_R   0.039720 0.972640 0.567873 0.021206
C131  C     C_R   0.039157 0.026963 0.568260 0.008928
C132  C     C_R   0.962095 0.973199 0.431224 0.019918
C133  C     C_R   0.460802 0.527336 0.427934 0.011087
C134  C     C_R   0.525662 0.472764 0.564991 0.020936
C135  C     C_R   0.511747 0.525111 0.562682 0.024048
C136  C     C_R   0.462482 0.472915 0.428297 0.023712
C137  C     C_R   0.999723 0.054003 0.499974 -0.067094
C138  C     C_R   0.000429 0.946116 0.499591 -0.067009
C139  C     C_R   0.489615 0.553583 0.496327 -0.093936
C140  C     C_R   0.498249 0.446137 0.497444 -0.075087
C141  C     C_R   0.999924 0.889999 0.499717 0.808309
C142  C     C_R   0.999830 0.110033 0.499989 0.801036
C143  C     C_R   0.499747 0.390017 0.499378 0.809847
C144  C     C_R   0.497729 0.609762 0.499126 0.813249
C145  C     C_R   0.000044 0.609960 0.500050 0.802731
C146  C     C_R   0.999972 0.390016 0.499991 0.936500
C147  C     C_R   0.500045 0.109959 0.500078 0.803782
C148  C     C_R   0.499943 0.890014 0.499996 0.936465
C149  C     C_R   0.008196 0.554089 0.390765 0.111399
C150  C     C_R   0.995744 0.444731 0.610606 0.118584
C151  C     C_R   0.992505 0.552823 0.609802 0.111531
C152  C     C_R   0.004857 0.445989 0.389860 0.118789
C153  C     C_R   0.508544 0.054073 0.391091 0.110663
C154  C     C_R   0.495449 0.944721 0.610459 0.119427
C155  C     C_R   0.491967 0.052815 0.609452 0.109997
C156  C     C_R   0.503674 0.946009 0.389043 0.117769
C157  C     C_R   0.011513 0.526140 0.339908 -0.133222
C158  C     C_R   0.991557 0.471447 0.661767 -0.227940
C159  C     C_R   0.989575 0.524294 0.660942 -0.133353
C160  C     C_R   0.009509 0.473290 0.339050 -0.227782
C161  C     C_R   0.510822 0.026150 0.339457 -0.132908
C162  C     C_R   0.490932 0.971436 0.661376 -0.230153
C163  C     C_R   0.488807 0.024285 0.660429 -0.132162
C164  C     C_R   0.507988 0.973323 0.337984 -0.227281
C165  C     C_R   0.002650 0.472774 0.445323 0.032311
C166  C     C_R   0.996842 0.527269 0.554683 0.004035
C167  C     C_R   0.997670 0.472146 0.554945 0.030751
C168  C     C_R   0.003594 0.527897 0.445681 0.003747
C169  C     C_R   0.502161 0.972772 0.445017 0.030555
C170  C     C_R   0.496580 0.027260 0.554544 0.002594
C171  C     C_R   0.497455 0.972135 0.554845 0.032834
C172  C     C_R   0.503582 0.027885 0.445731 0.003606
C173  C     C_R   0.999989 0.446030 0.500006 -0.150252
C174  C     C_R   0.000154 0.554154 0.500136 -0.119624
C175  C     C_R   0.499813 0.946024 0.499925 -0.150444
C176  C     C_R   0.500175 0.054146 0.500203 -0.121870
C177  C     C_3   0.737057 0.206852 0.024284 -0.397122
C178  C     C_3   0.281504 0.774412 0.976184 -0.436287
C179  C     C_3   0.282498 0.223321 0.974043 -0.381811
C180  C     C_3   0.735071 0.798592 0.023510 -0.421471
C181  C     C_3   0.219288 0.723472 0.025102 -0.380904
C182  C     C_3   0.763798 0.293619 0.975518 -0.441879
C183  C     C_3   0.759184 0.709646 0.977253 -0.398043
C184  C     C_3   0.220552 0.271429 0.024468 -0.421267
H1    H     H_    0.986303 0.543756 0.701766 0.153023
H2    H     H_    0.011419 0.452930 0.297815 0.143159
H3    H     H_    0.015058 0.546070 0.299292 0.153429
H4    H     H_    0.989918 0.450623 0.703194 0.141999
H5    H     H_    0.485294 0.043749 0.701069 0.153898
H6    H     H_    0.509265 0.952984 0.296283 0.142998
H7    H     H_    0.514474 0.046082 0.298923 0.154092
H8    H     H_    0.489179 0.950608 0.702728 0.142719
H9    H     H_    0.916661 0.906024 0.359455 0.176758
H10   H     H_    0.083792 0.094360 0.640987 0.188040
H11   H     H_    0.086988 0.904722 0.638392 0.177127
H12   H     H_    0.915376 0.095113 0.359323 0.180962
H13   H     H_    0.420551 0.405537 0.356083 0.186259
H14   H     H_    0.493267 0.580301 0.622055 0.212931
H15   H     H_    0.584535 0.410382 0.640117 0.160074
H16   H     H_    0.419188 0.595161 0.354802 0.188340
H17   H     H_    0.726889 0.171471 0.044124 0.154970
H18   H     H_    0.305500 0.795960 0.955582 0.161003
H19   H     H_    0.306855 0.203607 0.952876 0.163676
H20   H     H_    0.725634 0.834831 0.041967 0.162494
H21   H     H_    0.194637 0.702854 0.045515 0.164307
H22   H     H_    0.773571 0.329081 0.955405 0.158574
H23   H     H_    0.768235 0.673133 0.958939 0.153311
H24   H     H_    0.196084 0.291533 0.045292 0.162959
H25   H     H_    0.898837 0.847364 0.713200 0.150110
H26   H     H_    0.103331 0.155200 0.281141 0.168418
H27   H     H_    0.104656 0.849967 0.285164 0.157950
H28   H     H_    0.900438 0.159647 0.723974 0.167592
H29   H     H_    0.395875 0.348905 0.714400 0.157501
H30   H     H_    0.600691 0.656957 0.280018 0.170662
H31   H     H_    0.601207 0.346903 0.284877 0.148410
H32   H     H_    0.397028 0.654010 0.719290 0.167549
H33   H     H_    0.592882 0.724994 0.349407 0.180895
H34   H     H_    0.405541 0.279284 0.648887 0.182612
H35   H     H_    0.406835 0.721843 0.650340 0.181606
H36   H     H_    0.594693 0.277580 0.351334 0.182101
H37   H     H_    0.093441 0.222248 0.350012 0.183762
H38   H     H_    0.905496 0.777429 0.648703 0.182630
H39   H     H_    0.907806 0.225734 0.651188 0.181099
H40   H     H_    0.094774 0.780211 0.351316 0.183890
O1    O     O_3   1.000000 0.750000 0.500000 -0.463369
O2    O     O_3   1.000000 0.250000 0.500000 -0.470980
O3    O     O_3   0.500000 0.250000 0.500000 -0.460803
O4    O     O_3   0.500000 0.750000 0.500000 -0.469145
O5    O     O_R   0.887450 0.719640 0.335600 -0.647997
O6    O     O_R   0.112550 0.280360 0.664400 -0.649234
O7    O     O_R   0.112550 0.719640 0.664400 -0.651543
O8    O     O_R   0.887450 0.280360 0.335600 -0.634954
O9    O     O_R   0.387450 0.219640 0.335600 -0.652026
O10   O     O_R   0.612550 0.780360 0.664400 -0.633807
O11   O     O_R   0.612550 0.219640 0.664400 -0.649113
O12   O     O_R   0.387450 0.780360 0.335600 -0.649799
O13   O     O_R   0.094250 0.780350 0.456890 -0.634381
O14   O     O_R   0.905750 0.219650 0.543110 -0.631604
O15   O     O_R   0.905750 0.780350 0.543110 -0.632764
O16   O     O_R   0.094250 0.219650 0.456890 -0.634317
O17   O     O_R   0.594250 0.280350 0.456890 -0.634302
O18   O     O_R   0.405750 0.719650 0.543110 -0.638048
O19   O     O_R   0.405750 0.280350 0.543110 -0.634579
O20   O     O_R   0.594250 0.719650 0.456890 -0.630936
O21   O     O_R   0.008810 0.865800 0.456890 -0.647225
O22   O     O_R   0.991190 0.134200 0.543110 -0.634296
O23   O     O_R   0.991190 0.865800 0.543110 -0.641540
O24   O     O_R   0.008810 0.134200 0.456890 -0.647786
O25   O     O_R   0.508810 0.365800 0.456890 -0.648172
O26   O     O_R   0.491190 0.634200 0.543110 -0.661636
O27   O     O_R   0.491190 0.365800 0.543110 -0.642838
O28   O     O_R   0.508810 0.634200 0.456890 -0.629717
O29   O     O_R   0.948090 0.634190 0.456900 -0.668228
O30   O     O_R   0.051910 0.365810 0.543100 -0.653110
O31   O     O_R   0.051910 0.634190 0.543100 -0.674086
O32   O     O_R   0.948090 0.365810 0.456900 -0.644954
O33   O     O_R   0.448090 0.134190 0.456900 -0.672047
O34   O     O_R   0.551910 0.865810 0.543100 -0.644539
O35   O     O_R   0.551910 0.134190 0.543100 -0.673878
O36   O     O_R   0.448090 0.865810 0.456900 -0.653820
O37   O     O_R   0.137350 0.719630 0.543100 -0.661141
O38   O     O_R   0.862650 0.280370 0.456900 -0.657699
O39   O     O_R   0.862650 0.719630 0.456900 -0.662104
O40   O     O_R   0.137350 0.280370 0.543100 -0.667091
O41   O     O_R   0.637350 0.219630 0.543100 -0.664367
O42   O     O_R   0.362650 0.780370 0.456900 -0.666486
O43   O     O_R   0.362650 0.219630 0.456900 -0.661621
O44   O     O_R   0.637350 0.780370 0.543100 -0.657887
O45   O     O_R   0.948170 0.780360 0.335600 -0.656634
O46   O     O_R   0.051830 0.219640 0.664400 -0.633432
O47   O     O_R   0.051830 0.780360 0.664400 -0.652197
O48   O     O_R   0.948170 0.219640 0.335600 -0.656651
O49   O     O_R   0.448170 0.280360 0.335600 -0.651718
O50   O     O_R   0.551830 0.719640 0.664400 -0.657611
O51   O     O_R   0.551830 0.280360 0.664400 -0.665731
O52   O     O_R   0.448170 0.719640 0.335600 -0.633371
Zn1   Zn    Zn3+2 0.074160 0.706620 0.561580 0.916147
Zn2   Zn    Zn3+2 0.925840 0.293380 0.438420 0.956181
Zn3   Zn    Zn3+2 0.925840 0.706620 0.438420 0.921100
Zn4   Zn    Zn3+2 0.074160 0.293380 0.561580 0.931876
Zn5   Zn    Zn3+2 0.574160 0.206620 0.561580 0.913046
Zn6   Zn    Zn3+2 0.425840 0.793380 0.438420 0.931841
Zn7   Zn    Zn3+2 0.425840 0.206620 0.438420 0.916893
Zn8   Zn    Zn3+2 0.574160 0.793380 0.561580 0.955925
Zn9   Zn    Zn3+2 0.012590 0.793370 0.438410 0.957000
Zn10  Zn    Zn3+2 0.987410 0.206630 0.561590 0.981330
Zn11  Zn    Zn3+2 0.987410 0.793370 0.561590 0.959490
Zn12  Zn    Zn3+2 0.012590 0.206630 0.438410 0.954926
Zn13  Zn    Zn3+2 0.512590 0.293370 0.438410 0.957430
Zn14  Zn    Zn3+2 0.487410 0.706630 0.561590 0.948906
Zn15  Zn    Zn3+2 0.487410 0.293370 0.561590 0.949995
Zn16  Zn    Zn3+2 0.512590 0.706630 0.438410 0.981603
O53   O     O_3   0.148754 0.945560 0.771105 -0.616411
C185  C     C_3   0.106887 0.914047 0.776564 0.109738
H41   H     H_    0.097001 0.877744 0.745027 0.128722
H42   H     H_    0.060745 0.933726 0.754883 0.133345
C186  C     C_3   0.137618 0.899423 0.857499 -0.329982
H43   H     H_    0.104458 0.873529 0.859424 0.216714
H44   H     H_    0.182547 0.878107 0.879638 0.228961
C187  C     C_3   0.150894 0.946639 0.905511 -0.790765
H45   H     H_    0.186444 0.972137 0.907561 0.290235
H46   H     H_    0.170009 0.934016 0.962962 0.228695
H47   H     H_    0.106371 0.968710 0.882936 0.248875
O54   O     O_3   0.860038 0.054250 0.227594 -0.616988
C188  C     C_3   0.904191 0.083431 0.223438 0.068203
H48   H     H_    0.947605 0.060348 0.242207 0.134919
H49   H     H_    0.918321 0.118669 0.258252 0.163502
C189  C     C_3   0.873299 0.100038 0.142937 -0.309582
H50   H     H_    0.858042 0.065231 0.107241 0.227996
H51   H     H_    0.830608 0.123909 0.123388 0.235518
C190  C     C_3   0.919483 0.131227 0.135526 -0.902878
H52   H     H_    0.933154 0.167393 0.168213 0.286243
H53   H     H_    0.896477 0.141339 0.076267 0.295393
H54   H     H_    0.962952 0.108300 0.155543 0.245391
O55   O     O_3   0.862274 0.948470 0.226874 -0.618382
C191  C     C_3   0.904023 0.912396 0.228321 0.084833
H55   H     H_    0.902868 0.875457 0.253332 0.164394
H56   H     H_    0.953999 0.927002 0.260485 0.136835
C192  C     C_3   0.882442 0.901787 0.149058 -0.344869
H57   H     H_    0.834051 0.884602 0.116804 0.228784
H58   H     H_    0.880495 0.938706 0.121954 0.225657
C193  C     C_3   0.928146 0.864882 0.148669 -0.909264
H59   H     H_    0.976876 0.881393 0.180689 0.248700
H60   H     H_    0.912348 0.858538 0.090759 0.275846
H61   H     H_    0.929399 0.827132 0.173521 0.293796
O56   O     O_3   0.147266 0.052167 0.770786 -0.615919
C194  C     C_3   0.209724 0.062862 0.793774 0.079418
H62   H     H_    0.208842 0.090210 0.754136 0.122942
H63   H     H_    0.234778 0.026704 0.797537 0.157925
C195  C     C_3   0.246480 0.087599 0.870686 -0.273157
H64   H     H_    0.222781 0.124188 0.867819 0.241182
H65   H     H_    0.246347 0.061033 0.910206 0.233178
C196  C     C_3   0.315166 0.098963 0.899642 -1.001576
H66   H     H_    0.339442 0.063026 0.901687 0.269728
H67   H     H_    0.341224 0.114791 0.956741 0.269151
H68   H     H_    0.316547 0.127726 0.863205 0.263360
O57   O     O_3   0.602892 0.443197 0.765957 -0.615534
C197  C     C_3   0.581498 0.391681 0.757851 0.131561
H69   H     H_    0.607644 0.366726 0.743528 0.117026
H70   H     H_    0.529305 0.387764 0.714120 0.151355
C198  C     C_3   0.596080 0.372051 0.831549 -0.341807
H71   H     H_    0.582589 0.330677 0.825698 0.213673
H72   H     H_    0.647970 0.375204 0.875647 0.219898
C199  C     C_3   0.559545 0.402019 0.854594 -0.774461
H73   H     H_    0.573838 0.443284 0.863817 0.294729
H74   H     H_    0.570180 0.385560 0.907144 0.227942
H75   H     H_    0.507536 0.399152 0.811018 0.243720
O58   O     O_3   0.364807 0.554400 0.225321 -0.615012
C200  C     C_3   0.300423 0.561779 0.197133 0.077248
H76   H     H_    0.296702 0.587971 0.234149 0.121806
H77   H     H_    0.276948 0.524265 0.192115 0.161383
C201  C     C_3   0.265590 0.586342 0.119894 -0.262908
H78   H     H_    0.286949 0.624609 0.123987 0.245663
H79   H     H_    0.270982 0.561346 0.083295 0.234913
C202  C     C_3   0.194922 0.593165 0.085184 -1.002734
H80   H     H_    0.172818 0.555385 0.081366 0.267935
H81   H     H_    0.170504 0.609329 0.028223 0.274497
H82   H     H_    0.188261 0.620034 0.118999 0.261442
O59   O     O_3   0.364244 0.447631 0.224806 -0.617969
C203  C     C_3   0.408020 0.418314 0.220711 0.100336
H83   H     H_    0.423620 0.383741 0.257451 0.126372
H84   H     H_    0.450819 0.441400 0.237030 0.135487
C204  C     C_3   0.376120 0.399289 0.141525 -0.311921
H85   H     H_    0.410418 0.374150 0.141046 0.206979
H86   H     H_    0.333546 0.375924 0.124334 0.235312
C205  C     C_3   0.356823 0.443830 0.086722 -0.803296
H87   H     H_    0.320903 0.468694 0.084537 0.287625
H88   H     H_    0.335789 0.428241 0.030317 0.231287
H89   H     H_    0.399021 0.467466 0.103313 0.245744
O60   O     O_3   0.540100 0.532574 0.747756 -0.614931
C206  C     C_3   0.570889 0.580110 0.778376 0.089123
H90   H     H_    0.547400 0.611905 0.736797 0.147434
H91   H     H_    0.621952 0.577677 0.799948 0.139399
C207  C     C_3   0.566527 0.592422 0.842537 -0.364681
H92   H     H_    0.515744 0.593093 0.821907 0.232660
H93   H     H_    0.591367 0.561873 0.885929 0.232513
C208  C     C_3   0.596311 0.644452 0.876754 -0.862444
H94   H     H_    0.647158 0.644377 0.898113 0.273638
H95   H     H_    0.592796 0.651819 0.923539 0.296975
H96   H     H_    0.571045 0.675740 0.834783 0.266088
N1    N     N_3   0.009445 0.608863 0.382355 -0.491398
H97   H     H_    0.965842 0.625414 0.363796 0.210732
H98   H     H_    0.048429 0.625661 0.430126 0.182450
N2    N     N_3   0.998571 0.389534 0.617415 -0.461745
H99   H     H_    0.038874 0.379494 0.670061 0.180190
H100  H     H_    0.958497 0.376561 0.613589 0.153948
N3    N     N_3   0.991105 0.607493 0.618104 -0.492100
H101  H     H_    0.034627 0.624219 0.636509 0.209337
H102  H     H_    0.952006 0.624453 0.570329 0.183296
N4    N     N_3   0.001851 0.390858 0.382903 -0.460775
H103  H     H_    0.961694 0.381239 0.330098 0.183614
H104  H     H_    0.042012 0.378016 0.387005 0.154807
N5    N     N_3   0.511791 0.108811 0.384202 -0.492117
H105  H     H_    0.468794 0.126420 0.365954 0.208002
H106  H     H_    0.551312 0.124559 0.432565 0.184998
N6    N     N_3   0.498580 0.889534 0.617509 -0.461114
H107  H     H_    0.538867 0.879667 0.670254 0.179454
H108  H     H_    0.458579 0.876428 0.613731 0.153701
N7    N     N_3   0.490494 0.107490 0.617679 -0.490945
H109  H     H_    0.534011 0.124245 0.636122 0.209824
H110  H     H_    0.451412 0.124417 0.569845 0.182992
N8    N     N_3   0.500348 0.890892 0.381847 -0.461393
H111  H     H_    0.460011 0.881402 0.329099 0.180193
H112  H     H_    0.540382 0.877913 0.385746 0.154632
O61   O     O_3   0.137685 0.798457 0.946468 -0.661335
C209  C     C_3   0.133402 0.813189 0.004632 0.069551
H113  H     H_    0.173333 0.839133 0.044083 0.175091
H114  H     H_    0.133773 0.778595 0.034942 0.137053
C210  C     C_3   0.071322 0.842562 0.972510 -0.335074
H115  H     H_    0.069912 0.877221 0.941810 0.224875
H116  H     H_    0.030336 0.817480 0.932881 0.229948
C211  C     C_3   0.065318 0.859759 0.033983 -0.994816
H117  H     H_    0.067050 0.825902 0.066111 0.265951
H118  H     H_    0.019343 0.880031 0.009160 0.269417
H119  H     H_    0.104543 0.886625 0.072374 0.264966
O62   O     O_3   0.876568 0.246187 0.055831 -0.651035
C212  C     C_3   0.887576 0.262541 0.003432 0.078606
H120  H     H_    0.882526 0.305232 0.996848 0.143474
H121  H     H_    0.853975 0.244064 0.948357 0.134999
C213  C     C_3   0.955318 0.247786 0.031690 -0.318815
H122  H     H_    0.989570 0.265890 0.086729 0.227747
H123  H     H_    0.960884 0.205185 0.038639 0.225663
C214  C     C_3   0.970594 0.265454 0.977877 -0.983979
H124  H     H_    0.939197 0.245602 0.923671 0.269946
H125  H     H_    0.020789 0.256001 0.001308 0.265746
H126  H     H_    0.964144 0.307856 0.968984 0.265217
O63   O     O_3   0.872716 0.755204 0.053654 -0.651984
C215  C     C_3   0.881363 0.738594 0.999628 0.082340
H127  H     H_    0.846624 0.757113 0.944562 0.153063
H128  H     H_    0.875802 0.695930 0.993767 0.141915
C216  C     C_3   0.948495 0.752767 0.024857 -0.329525
H129  H     H_    0.954630 0.795335 0.031037 0.228234
H130  H     H_    0.983744 0.734531 0.079766 0.228461
C217  C     C_3   0.961074 0.734663 0.969117 -0.976656
H131  H     H_    0.953484 0.692365 0.960462 0.265633
H132  H     H_    0.011094 0.743203 0.990742 0.269513
H133  H     H_    0.928996 0.754962 0.915073 0.271653
O64   O     O_3   0.140342 0.195104 0.942795 -0.634615
C218  C     C_3   0.129770 0.182308 0.996643 0.087553
H134  H     H_    0.127590 0.217664 0.023334 0.125504
H135  H     H_    0.167939 0.156383 0.039746 0.148783
C219  C     C_3   0.065974 0.154252 0.958121 -0.298809
H136  H     H_    0.026993 0.181163 0.918659 0.221144
H137  H     H_    0.065303 0.121185 0.925931 0.239583
C220  C     C_3   0.054095 0.133985 0.013817 -0.999971
H138  H     H_    0.089814 0.104012 0.050010 0.265232
H139  H     H_    0.006035 0.116392 0.983559 0.272016
H140  H     H_    0.056750 0.165827 0.048769 0.271574
O65   O     O_3   0.624429 0.254498 0.944308 -0.652618
C221  C     C_3   0.613954 0.238081 0.997108 0.083151
H141  H     H_    0.647265 0.257284 0.051723 0.150848
H142  H     H_    0.620115 0.195488 0.004600 0.144775
C222  C     C_3   0.545865 0.251528 0.968696 -0.327676
H143  H     H_    0.539193 0.294054 0.961607 0.227950
H144  H     H_    0.512154 0.233153 0.913720 0.228281
C223  C     C_3   0.531022 0.232828 0.022484 -0.972388
H145  H     H_    0.539543 0.190638 0.032404 0.267086
H146  H     H_    0.480276 0.240422 0.998326 0.269235
H147  H     H_    0.561195 0.253457 0.076258 0.270254
O66   O     O_3   0.362192 0.697333 0.058550 -0.632807
C224  C     C_3   0.380914 0.696026 0.010317 0.076724
H148  H     H_    0.390631 0.735756 0.999931 0.136210
H149  H     H_    0.343536 0.677626 0.956628 0.141943
C225  C     C_3   0.442288 0.664626 0.047424 -0.301731
H150  H     H_    0.479409 0.682387 0.101691 0.226181
H151  H     H_    0.433596 0.624650 0.058042 0.231140
C226  C     C_3   0.466686 0.662551 0.999274 -0.987770
H152  H     H_    0.432080 0.642037 0.946692 0.267805
H153  H     H_    0.512535 0.641303 0.029350 0.266594
H154  H     H_    0.474491 0.702131 0.986506 0.267305
O67   O     O_3   0.362695 0.299005 0.050605 -0.660599
C227  C     C_3   0.364688 0.315035 0.990922 0.072579
H155  H     H_    0.326108 0.343214 0.955151 0.173516
H156  H     H_    0.359976 0.281441 0.956953 0.137384
C228  C     C_3   0.428197 0.341458 0.020886 -0.340454
H157  H     H_    0.433503 0.376124 0.053203 0.223022
H158  H     H_    0.467884 0.314582 0.058540 0.232695
C229  C     C_3   0.432356 0.358194 0.957609 -0.995220
H159  H     H_    0.426661 0.324448 0.923552 0.265344
H160  H     H_    0.479390 0.376124 0.980795 0.269531
H161  H     H_    0.394669 0.386942 0.921409 0.265078
O68   O     O_3   0.622575 0.752083 0.950910 -0.648819
C230  C     C_3   0.589879 0.797801 0.912973 0.072932
H162  H     H_    0.601628 0.811358 0.874484 0.134952
H163  H     H_    0.602177 0.828696 0.953988 0.146208
C231  C     C_3   0.518383 0.787405 0.867141 -0.311797
H164  H     H_    0.506298 0.755123 0.828133 0.221042
H165  H     H_    0.505080 0.775850 0.904799 0.224918
C232  C     C_3   0.480012 0.834942 0.822459 -0.988516
H166  H     H_    0.490664 0.867657 0.860258 0.267395
H167  H     H_    0.428436 0.826057 0.790170 0.270382
H168  H     H_    0.491403 0.846315 0.783011 0.256683
N9    N     N_3   0.726562 0.336723 0.053286 -0.461729
H169  H     H_    0.691559 0.358640 0.007768 0.200016
H170  H     H_    0.767884 0.359094 0.081914 0.193052
N10   N     N_3   0.225247 0.648280 0.948502 -0.443391
H171  H     H_    0.238016 0.645306 0.911801 0.175740
H172  H     H_    0.176049 0.642903 0.917031 0.188106
N11   N     N_3   0.221838 0.347975 0.945121 -0.477040
H173  H     H_    0.239055 0.372641 0.990166 0.199082
H174  H     H_    0.172303 0.351147 0.912109 0.192560
N12   N     N_3   0.721285 0.669964 0.056210 -0.445488
H175  H     H_    0.708148 0.684434 0.089371 0.193916
H176  H     H_    0.763675 0.649552 0.091367 0.180756
N13   N     N_3   0.277365 0.849148 0.054896 -0.476185
H177  H     H_    0.262716 0.874351 0.010725 0.198326
H178  H     H_    0.326842 0.852263 0.091049 0.191124
N14   N     N_3   0.774131 0.162762 0.947809 -0.455517
H179  H     H_    0.781959 0.174939 0.908765 0.180515
H180  H     H_    0.732415 0.140877 0.918898 0.190238
N15   N     N_3   0.771530 0.838423 0.942522 -0.461192
H181  H     H_    0.802614 0.863010 0.986341 0.196978
H182  H     H_    0.728851 0.858629 0.908136 0.184857
N16   N     N_3   0.280813 0.146417 0.052210 -0.447229
H183  H     H_    0.276592 0.143602 0.096211 0.169921
H184  H     H_    0.328858 0.140544 0.075107 0.192680
N17   N     N_3   0.811076 0.630882 0.463708 -0.409278
H185  H     H_    0.831458 0.629182 0.434678 0.235160
H186  H     H_    0.844935 0.643179 0.518020 0.172292
N18   N     N_3   0.184584 0.370192 0.529482 -0.407476
H187  H     H_    0.150939 0.356389 0.476002 0.165962
H188  H     H_    0.164088 0.372343 0.558313 0.234175
N19   N     N_3   0.187415 0.630400 0.532424 -0.419092
H189  H     H_    0.163853 0.628289 0.557716 0.224367
H190  H     H_    0.155543 0.643004 0.477572 0.173813
N20   N     N_3   0.814539 0.369942 0.465955 -0.403362
H191  H     H_    0.849025 0.356402 0.519539 0.162743
H192  H     H_    0.833494 0.371700 0.435332 0.251157
N21   N     N_3   0.312512 0.130301 0.469031 -0.420822
H193  H     H_    0.336467 0.128246 0.444246 0.223128
H194  H     H_    0.344233 0.142634 0.523858 0.173555
N22   N     N_3   0.685344 0.869808 0.531970 -0.403289
H195  H     H_    0.650837 0.856127 0.478695 0.162878
H196  H     H_    0.666470 0.871679 0.562652 0.249660
N23   N     N_3   0.691195 0.131119 0.539421 -0.419914
H197  H     H_    0.667304 0.130292 0.564368 0.221544
H198  H     H_    0.659356 0.142012 0.483749 0.178402
N24   N     N_3   0.316069 0.870415 0.469715 -0.407807
H199  H     H_    0.349728 0.856418 0.523292 0.166524
H200  H     H_    0.336444 0.872560 0.440719 0.235033
O69   O     O_3   0.704063 0.604795 0.323154 -0.602240
C233  C     C_3   0.711857 0.622098 0.268304 0.084016
H201  H     H_    0.759394 0.640486 0.295016 0.114566
H202  H     H_    0.674501 0.650674 0.229717 0.122491
C234  C     C_3   0.708094 0.576199 0.222826 -0.319392
H203  H     H_    0.720283 0.589472 0.184748 0.167982
H204  H     H_    0.743352 0.546382 0.260693 0.232359
C235  C     C_3   0.641629 0.552404 0.176680 -0.819118
H205  H     H_    0.628826 0.537404 0.213422 0.285266
H206  H     H_    0.640558 0.519891 0.143543 0.224560
H207  H     H_    0.605887 0.581589 0.137930 0.242606
O70   O     O_3   0.290018 0.400121 0.668014 -0.619988
C236  C     C_3   0.298291 0.386974 0.735336 0.037297
H208  H     H_    0.317534 0.421510 0.771635 0.181577
H209  H     H_    0.333595 0.355422 0.767073 0.122060
C237  C     C_3   0.234318 0.372876 0.720645 -0.332673
H210  H     H_    0.200248 0.405262 0.690909 0.236733
H211  H     H_    0.214625 0.337998 0.685141 0.238674
C238  C     C_3   0.241479 0.361763 0.792862 -0.934947
H212  H     H_    0.272088 0.327311 0.820821 0.254555
H213  H     H_    0.194050 0.353964 0.780576 0.280497
H214  H     H_    0.262709 0.395449 0.830645 0.255215
O71   O     O_3   0.292816 0.604414 0.677443 -0.625116
C239  C     C_3   0.265906 0.618833 0.715197 0.105136
H215  H     H_    0.246489 0.583127 0.722950 0.144562
H216  H     H_    0.224463 0.645441 0.682529 0.148676
C240  C     C_3   0.316422 0.640848 0.792676 -0.398468
H217  H     H_    0.307754 0.625713 0.833115 0.184978
H218  H     H_    0.364603 0.627946 0.811544 0.239662
C241  C     C_3   0.314557 0.699787 0.793954 -0.910591
H219  H     H_    0.322590 0.716994 0.754129 0.269224
H220  H     H_    0.352370 0.713822 0.850493 0.250308
H221  H     H_    0.267832 0.713005 0.779601 0.265754
O72   O     O_3   0.710921 0.401673 0.331790 -0.634122
C242  C     C_3   0.668242 0.405511 0.253345 0.085209
H222  H     H_    0.678209 0.442971 0.237467 0.184005
H223  H     H_    0.617961 0.408317 0.233812 0.125325
C243  C     C_3   0.678570 0.362781 0.213490 -0.383758
H224  H     H_    0.728915 0.363336 0.232526 0.242716
H225  H     H_    0.668514 0.324284 0.226749 0.214977
C244  C     C_3   0.635018 0.370478 0.129362 -0.959337
H226  H     H_    0.584434 0.369028 0.109187 0.263438
H227  H     H_    0.643436 0.339334 0.101950 0.279285
H228  H     H_    0.644757 0.408199 0.113769 0.264726
O73   O     O_3   0.207395 0.105666 0.323085 -0.628934
C245  C     C_3   0.235950 0.120338 0.287058 0.102718
H229  H     H_    0.255342 0.084617 0.279789 0.144196
H230  H     H_    0.277632 0.146477 0.320683 0.151274
C246  C     C_3   0.186960 0.143340 0.209410 -0.396950
H231  H     H_    0.197478 0.129268 0.170349 0.184754
H232  H     H_    0.138293 0.130157 0.188353 0.243987
C247  C     C_3   0.188881 0.202310 0.209104 -0.902132
H233  H     H_    0.179075 0.218546 0.247641 0.267744
H234  H     H_    0.152278 0.217028 0.152312 0.243937
H235  H     H_    0.236234 0.215869 0.225720 0.266309
O74   O     O_3   0.789256 0.902114 0.665211 -0.633942
C248  C     C_3   0.830541 0.905114 0.743812 0.094619
H236  H     H_    0.821092 0.942789 0.759315 0.179422
H237  H     H_    0.881308 0.906878 0.765018 0.127244
C249  C     C_3   0.817699 0.862479 0.782136 -0.389917
H238  H     H_    0.767050 0.864117 0.761833 0.242611
H239  H     H_    0.826958 0.823836 0.768907 0.214673
C250  C     C_3   0.860249 0.868973 0.866367 -0.956210
H240  H     H_    0.911079 0.866425 0.887769 0.264035
H241  H     H_    0.850071 0.837872 0.892597 0.281308
H242  H     H_    0.851231 0.906783 0.881969 0.265379
O75   O     O_3   0.798830 0.108390 0.686009 -0.613928
C251  C     C_3   0.763312 0.120256 0.714344 0.114365
H243  H     H_    0.720320 0.095365 0.685772 0.131936
H244  H     H_    0.746646 0.161176 0.705813 0.122209
C252  C     C_3   0.802412 0.107578 0.797456 -0.344796
H245  H     H_    0.770889 0.109682 0.816128 0.171115
H246  H     H_    0.821151 0.067543 0.807300 0.229312
C253  C     C_3   0.857607 0.145161 0.843498 -0.860152
H247  H     H_    0.892174 0.141578 0.829477 0.274931
H248  H     H_    0.882539 0.136286 0.903519 0.244712
H249  H     H_    0.839775 0.185482 0.833229 0.238465
O76   O     O_3   0.210755 0.900774 0.330880 -0.623512
C254  C     C_3   0.202018 0.887727 0.263462 0.034875
H250  H     H_    0.182984 0.922411 0.226903 0.179567
H251  H     H_    0.166370 0.856441 0.232094 0.122985
C255  C     C_3   0.265687 0.873182 0.277821 -0.331279
H252  H     H_    0.300007 0.905419 0.306838 0.235953
H253  H     H_    0.285335 0.838301 0.313883 0.238852
C256  C     C_3   0.257932 0.861819 0.205477 -0.935675
H254  H     H_    0.227117 0.827454 0.178304 0.254612
H255  H     H_    0.305169 0.853765 0.217458 0.280024
H256  H     H_    0.236644 0.895474 0.167099 0.256078

loop_
_geom_bond_atom_site_label_1
_geom_bond_atom_site_label_2
_ccdc_geom_bond_type
C4    O48   A    
C193  H60   S    
O63   C215  S    
C242  H223  S    
C126  C127  A    
O27   Zn15  S    
C236  H208  S    
N22   H196  S    
C34   C42   S    
C161  H7    S    
C162  H8    S    
O57   C197  S    
O41   Zn5   S    
C170  C176  A    
C246  H231  S    
C135  C139  A    
C58   C66   A    
C38   C181  S    
C143  O27   A    
O1    Zn11  S    
C56   N24   S    
C213  H122  S    
C86   C110  A    
N6    H108  S    
C256  H254  S    
C233  H201  S    
C92   C109  S    
C246  C247  S    
C193  H61   S    
O76   C254  S    
C241  H220  S    
C234  C235  S    
C62   C70   A    
C253  H249  S    
N7    H110  S    
C120  C133  A    
O2    Zn2   S    
O8    Zn2   S    
C255  H252  S    
C96   O20   A    
C208  H96   S    
O15   Zn11  S    
C20   C44   T    
C214  H124  S    
C239  H216  S    
C225  H150  S    
C142  O22   A    
O56   C194  S    
O16   Zn12  S    
C239  C240  S    
C136  C140  A    
C4    C18   S    
C241  H221  S    
C248  H237  S    
C151  N3    S    
C98   C109  A    
C29   C177  S    
C79   C87   A    
C146  O30   A    
C51   C99   A    
C82   C98   A    
C149  C168  A    
O49   Zn13  S    
O46   Zn10  S    
C189  C190  S    
C73   C81   A    
C237  H211  S    
C152  C165  A    
C31   N16   S    
C51   C59   A    
O19   Zn15  S    
N12   H176  S    
C166  C174  A    
C115  C123  A    
C195  H64   S    
C90   O14   A    
O21   Zn9   S    
O71   C239  S    
C84   C100  A    
O35   Zn5   S    
O74   C248  S    
N17   H186  S    
C147  C176  S    
N4    H104  S    
C27   C35   S    
C196  H66   S    
C153  C161  A    
C191  H55   S    
C222  C223  S    
C115  H11   S    
C220  H138  S    
C55   N23   S    
O72   C242  S    
C228  H158  S    
C202  H80   S    
C75   H35   S    
O25   Zn13  S    
C201  H78   S    
O73   C245  S    
C15   C39   S    
C92   O40   A    
C16   C40   S    
C87   C103  A    
C26   C182  S    
O23   Zn11  S    
C226  H153  S    
C63   C71   A    
C133  C139  A    
C157  C160  A    
N9    H170  S    
N1    H97   S    
C10   C182  S    
C236  C237  S    
C209  H114  S    
C36   C44   S    
O69   C233  S    
C89   O37   A    
C37   C45   S    
N3    H101  S    
C130  C138  A    
C4    O8    A    
C228  H157  S    
C32   C40   S    
C91   O39   A    
C187  H45   S    
C215  H128  S    
C39   C47   S    
C196  H68   S    
C40   C48   S    
C62   O74   S    
C143  O25   A    
C213  C214  S    
C12   O64   S    
C91   O15   A    
C138  C141  S    
N2    H100  S    
O32   Zn2   S    
C28   N11   S    
N5    H105  S    
C61   O73   S    
O62   C212  S    
C66   H29   S    
C235  H206  S    
C130  C131  A    
C80   C88   A    
C13   O65   S    
O61   C209  S    
C122  O56   S    
N17   H185  S    
C225  C226  S    
C53   N21   S    
O58   C200  S    
C52   C100  A    
C3    C17   S    
C244  H226  S    
C27   C183  S    
O70   C236  S    
O17   Zn13  S    
C194  H62   S    
C230  C231  S    
C129  C137  A    
C249  H238  S    
C100  C111  A    
N18   H188  S    
C27   N12   S    
O59   C203  S    
C49   N17   S    
C32   C180  S    
C34   C177  S    
C25   N10   S    
C210  H115  S    
C127  O57   S    
C104  C107  A    
C256  H255  S    
C96   O44   A    
C243  H225  S    
C137  C142  S    
C192  H58   S    
C200  H76   S    
C15   C179  S    
C244  H228  S    
C183  H23   S    
C69   C77   A    
O75   C251  S    
C155  C170  A    
C140  C143  S    
C181  H21   S    
C71   C79   A    
O60   C206  S    
C216  H130  S    
C224  H148  S    
C168  C174  A    
C30   C38   S    
O11   Zn5   S    
C245  H230  S    
C191  C192  S    
O3    Zn15  S    
C211  H117  S    
O2    Zn12  S    
C18   C42   T    
C13   C177  S    
C243  C244  S    
C1    O45   A    
C170  C171  A    
C37   C182  S    
N7    H109  S    
C66   C74   A    
C201  C202  S    
C3    O47   A    
C231  C232  S    
C60   O72   S    
C68   H31   S    
C207  H92   S    
C52   C60   A    
C59   C67   A    
O64   C218  S    
C53   C61   A    
C19   C43   T    
C252  H245  S    
C223  H145  S    
C188  H49   S    
C245  C246  S    
C55   C63   A    
C8    C22   S    
C56   C64   A    
C35   C43   S    
C39   C184  S    
C230  H163  S    
C187  H47   S    
C40   C183  S    
O42   Zn6   S    
C16   C27   S    
C6    O10   A    
C77   C85   A    
C186  H44   S    
C67   H32   S    
C231  H164  S    
C90   C111  S    
C164  H6    S    
C203  H83   S    
C212  H121  S    
C189  H51   S    
C238  H214  S    
C21   C45   T    
C198  H72   S    
C81   C105  A    
C94   C107  S    
C50   C98   A    
C119  C134  A    
C23   C47   T    
O7    Zn1   S    
C73   H33   S    
C24   C48   T    
C28   C36   S    
O12   Zn6   S    
C227  H155  S    
C10   C34   S    
C3    O7    A    
C194  H63   S    
O2    Zn4   S    
C155  C163  A    
C49   C97   A    
O5    Zn3   S    
C182  H22   S    
C207  C208  S    
C151  C159  A    
C220  H140  S    
C11   O63   S    
O53   C185  S    
C95   C106  S    
C232  H167  S    
C95   O43   A    
C216  H129  S    
C5    C23   S    
C249  C250  S    
C206  C207  S    
C6    C24   S    
C251  H243  S    
C74   H34   S    
N10   H172  S    
N21   H193  S    
C30   C178  S    
N22   H195  S    
C210  C211  S    
C253  H248  S    
O50   Zn14  S    
C205  H89   S    
C9    O61   S    
C14   C178  S    
C9    C30   S    
C78   H38   S    
C218  C219  S    
C223  H146  S    
O9    Zn7   S    
C179  H19   S    
C11   C32   S    
C188  H48   S    
C200  C201  S    
O10   Zn8   S    
C190  H53   S    
C12   C31   S    
C204  C205  S    
C177  H17   S    
C13   C26   S    
C240  C241  S    
C67   C75   A    
C29   C37   S    
N15   H181  S    
C123  O53   S    
C215  H127  S    
N8    H111  S    
C248  C249  S    
C101  C106  A    
C92   O16   A    
C233  C234  S    
C202  H81   S    
O3    Zn13  S    
C154  C162  A    
C211  H119  S    
C52   N20   S    
O2    Zn10  S    
C247  H233  S    
N3    H102  S    
O3    Zn7   S    
N19   H189  S    
C30   N13   S    
C79   H39   S    
C134  C135  A    
C68   C76   A    
C197  C198  S    
C197  H70   S    
O26   Zn14  S    
C238  H212  S    
C31   C179  S    
C159  H1    S    
C213  H123  S    
N16   H183  S    
C28   C184  S    
C72   C80   A    
C93   O17   A    
O40   Zn4   S    
C88   C112  A    
C233  H202  S    
C223  H147  S    
C153  C172  A    
C141  O23   A    
C154  C171  A    
N20   H192  S    
N23   H198  S    
C147  O35   A    
C229  H159  S    
C6    O50   A    
C255  H253  S    
C208  H95   S    
O22   Zn10  S    
C2    O6    A    
C149  N1    S    
C242  H222  S    
C116  H12   S    
C113  C121  A    
C145  C174  S    
C225  H151  S    
O65   C221  S    
O33   Zn7   S    
C57   O69   S    
O34   Zn8   S    
C69   H26   S    
C219  H136  S    
C117  C125  A    
C88   C104  A    
C203  C204  S    
O31   Zn1   S    
C16   C180  S    
C25   C33   S    
N14   H179  S    
C115  C130  A    
C86   C102  A    
C155  N7    S    
C96   C105  S    
C113  C132  A    
C254  H251  S    
C114  C131  A    
C128  O58   S    
C221  H142  S    
C227  C228  S    
O13   Zn9   S    
C76   C84   A    
N15   H182  S    
C217  H131  S    
C117  H13   S    
C214  H125  S    
C239  H215  S    
C36   C179  S    
C89   C112  S    
N24   H199  S    
C195  H65   S    
C119  H15   S    
C91   C110  S    
C148  O36   A    
C85   C109  A    
C93   C108  S    
C185  H41   S    
O18   Zn14  S    
C72   H27   S    
C87   C111  A    
C132  C138  A    
C206  H90   S    
C251  C252  S    
C10   O62   S    
C102  C105  A    
C191  H56   S    
C222  H144  S    
C205  H87   S    
O29   Zn3   S    
O20   Zn16  S    
O30   Zn4   S    
C53   C101  A    
C195  C196  S    
C201  H79   S    
C204  H85   S    
C214  H126  S    
C215  C216  S    
C167  C173  A    
C129  C132  A    
C246  H232  S    
C193  H59   S    
C242  C243  S    
O55   C191  S    
C83   C99   A    
N9    H169  S    
C9    C33   S    
C236  H209  S    
C26   N9    S    
C145  O29   A    
C252  H246  S    
C247  H235  S    
O3    Zn5   S    
C203  H84   S    
C187  H46   S    
C196  H67   S    
C2    O46   A    
C7    O11   A    
C1    C19   S    
C2    C20   S    
C50   C58   A    
C157  H3    S    
N6    H107  S    
C56   C104  A    
C185  C186  S    
C152  N4    S    
C54   C62   A    
C241  H219  S    
C248  H236  S    
C158  H4    S    
O28   Zn16  S    
C147  O33   A    
C218  H134  S    
C131  C137  A    
C89   O13   A    
C80   H40   S    
O36   Zn6   S    
C199  H75   S    
O43   Zn7   S    
C59   O71   S    
O1    Zn3   S    
C163  H5    S    
C231  H165  S    
C8    O12   A    
C22   C46   T    
C249  H239  S    
C240  H218  S    
C254  C255  S    
C8    O52   A    
O48   Zn12  S    
C250  H241  S    
C118  H14   S    
C161  C164  A    
C237  H210  S    
C162  C163  A    
O4    Zn6   S    
C144  O26   A    
N12   H175  S    
C150  C158  A    
C17   C41   T    
C113  H9    S    
C54   C102  A    
C57   C65   A    
C180  H20   S    
C120  C128  A    
O47   Zn11  S    
N4    H103  S    
C150  N2    S    
C184  H24   S    
C33   C41   S    
C211  H118  S    
C65   H30   S    
O51   Zn15  S    
C250  H242  S    
C7    C21   S    
N19   H190  S    
C10   C29   S    
C75   C83   A    
C15   C28   S    
C12   C184  S    
C76   H36   S    
O39   Zn3   S    
C150  C167  A    
C120  H16   S    
O52   Zn16  S    
C14   C25   S    
C207  H93   S    
C192  H57   S    
C221  C222  S    
C29   N14   S    
C84   C108  A    
C226  H154  S    
O66   C224  S    
C60   C68   A    
C252  C253  S    
C15   O67   S    
C71   H28   S    
O6    Zn4   S    
N1    H98   S    
C209  H113  S    
C145  O31   A    
O4    Zn14  S    
C117  C136  A    
C149  C157  A    
C118  C135  A    
C190  H52   S    
C152  C160  A    
C63   O75   S    
C70   C78   A    
C58   O70   S    
C186  H43   S    
C160  H2    S    
O67   C227  S    
N2    H99   S    
C247  H234  S    
C228  C229  S    
C212  H120  S    
C49   C57   A    
C238  H213  S    
C9    C181  S    
C198  H71   S    
N5    H106  S    
C95   O19   A    
N13   H177  S    
O44   Zn8   S    
C230  H162  S    
O45   Zn9   S    
C235  H205  S    
C227  H156  S    
C7    O51   A    
C134  C140  A    
C14   C38   S    
C99   C112  A    
C165  C173  A    
N11   H173  S    
O38   Zn2   S    
C146  C173  S    
C55   C103  A    
C156  C169  A    
C65   C73   A    
C244  H227  S    
C16   O68   S    
C220  H139  S    
C121  C124  A    
C234  H204  S    
C11   C35   S    
C26   C34   S    
C116  C124  A    
C116  C129  A    
C31   C39   S    
N18   H187  S    
C206  H91   S    
C209  C210  S    
C251  H244  S    
C125  C128  A    
C153  N5    S    
C254  H250  S    
C103  C108  A    
C210  H116  S    
C232  H166  S    
C13   C37   S    
C224  C225  S    
O14   Zn10  S    
C237  C238  S    
C256  H256  S    
O4    Zn8   S    
C82   C106  A    
C243  H224  S    
C144  O28   A    
C192  C193  S    
C200  H77   S    
C5    O9    A    
C204  H86   S    
C222  H143  S    
C90   O38   A    
C32   N15   S    
C25   C181  S    
C216  C217  S    
N8    H112  S    
C224  H149  S    
C169  C175  A    
C94   O42   A    
C148  C175  S    
C38   C46   S    
C245  H229  S    
C114  H10   S    
C93   O41   A    
C11   C183  S    
C54   N22   S    
N13   H178  S    
C250  H240  S    
O24   Zn12  S    
C218  H135  S    
C186  C187  S    
C229  H161  S    
C171  C175  A    
O68   C230  S    
O1    Zn9   S    
C126  O60   S    
N16   H184  S    
C124  O54   S    
C1    O5    A    
C133  C136  A    
C139  C144  S    
C141  O21   A    
C226  H152  S    
N23   H197  S    
C188  C189  S    
N11   H174  S    
C234  H203  S    
O37   Zn1   S    
O4    Zn16  S    
C50   N18   S    
C199  H73   S    
C229  H160  S    
C255  C256  S    
C208  H94   S    
C77   H37   S    
O54   C188  S    
C199  H74   S    
C165  C168  A    
C142  O24   A    
C178  H18   S    
C166  C167  A    
C169  C172  A    
C12   C36   S    
C219  H137  S    
C212  C213  S    
C85   C101  A    
C189  H50   S    
N14   H180  S    
C74   C82   A    
C198  C199  S    
C61   C69   A    
C35   C180  S    
O1    Zn1   S    
C146  O32   A    
C33   C178  S    
C235  H207  S    
C148  O34   A    
C240  H217  S    
C14   O66   S    
C194  C195  S    
C217  H132  S    
C64   O76   S    
C121  O55   S    
C151  C166  A    
N24   H200  S    
C219  C220  S    
C94   O18   A    
C185  H42   S    
C97   C110  A    
C78   C86   A    
C158  C159  A    
C81   C97   A    
C156  N8    S    
N10   H171  S    
N21   H194  S    
C83   C107  A    
C221  H141  S    
C154  N6    S    
C64   C72   A    
C253  H247  S    
C232  H168  S    
C205  H88   S    
C217  H133  S    
C114  C122  A    
C172  C176  A    
C202  H82   S    
C5    O49   A    
C156  C164  A    
C197  H69   S    
C190  H54   S    
C51   N19   S    
C70   H25   S    
N20   H191  S    
C118  C126  A    
C122  C123  A    
C119  C127  A    
C125  O59   S    
