data_mof_unit_62974.cif
_audit_creation_date              2012-12-10T19:31:09-0500
_audit_creation_method            fapswitch 2.2
_symmetry_space_group_name_H-M    P1
_symmetry_Int_Tables_number       1
_space_group_crystal_system       triclinic
_cell_length_a                    30.673571
_cell_length_b                    29.144574
_cell_length_c                    30.610023
_cell_angle_alpha                 90.032923
_cell_angle_beta                  90.015505
_cell_angle_gamma                 90.791865
_cell_volume                      27361.7669558

loop_
_atom_site_label
_atom_site_type_symbol
_atom_type_description
_atom_site_fract_x
_atom_site_fract_y
_atom_site_fract_z
_atom_type_partial_charge
C1    C     C_R   0.309901 0.000456 0.689934 0.872455
C2    C     C_R   0.629179 0.970246 0.588787 -0.223298
C3    C     C_R   0.750138 0.085752 0.250139 0.874052
C4    C     C_R   0.249869 0.414249 0.249863 0.883454
C5    C     C_R   0.750140 0.585746 0.249895 0.870765
C6    C     C_R   0.749880 0.414253 0.250134 0.878181
C7    C     C_R   0.250137 0.585752 0.250139 0.873911
C8    C     C_R   0.131171 0.980749 0.914077 0.052405
C9    C     C_R   0.874375 0.028928 0.906860 0.055352
C10   C     C_R   0.631261 0.485227 0.913589 0.046610
C11   C     C_R   0.373287 0.527264 0.908094 0.053871
C12   C     C_R   0.631830 0.986448 0.414095 0.043434
C13   C     C_R   0.871373 0.530602 0.589436 -0.219069
C14   C     C_R   0.378817 0.034948 0.402967 0.103002
C15   C     C_R   0.131299 0.485310 0.413623 0.046462
C16   C     C_R   0.873331 0.527335 0.408044 0.054006
C17   C     C_3   0.161441 0.990474 0.951380 -0.620363
C18   C     C_3   0.857084 0.068708 0.931910 -0.448989
C19   C     C_3   0.657925 0.463460 0.948498 -0.610998
C20   C     C_3   0.354587 0.565189 0.934650 -0.452026
C21   C     C_3   0.659108 0.966492 0.449514 -0.614148
C22   C     C_3   0.351456 0.053534 0.439131 -0.473201
C23   C     C_3   0.158010 0.463683 0.448574 -0.611359
C24   C     C_R   0.129225 0.470327 0.588735 -0.223502
C25   C     C_3   0.854694 0.565347 0.434531 -0.452005
C26   C     C_3   0.197798 0.991816 0.917227 0.241920
C27   C     C_3   0.820013 0.068585 0.897650 0.209154
C28   C     C_3   0.695049 0.464136 0.914181 0.227909
C29   C     C_3   0.317442 0.564921 0.900473 0.212019
C30   C     C_3   0.696116 0.967099 0.415073 0.230291
C31   C     C_3   0.313604 0.051505 0.406803 0.211471
C32   C     C_3   0.195127 0.464355 0.414250 0.228340
C33   C     C_3   0.817552 0.565084 0.400350 0.211839
C34   C     C_R   0.940535 0.999604 0.938256 0.937451
C35   C     C_R   0.871424 0.030671 0.089492 -0.218970
C36   C     C_R   0.059674 0.000149 0.938584 0.953549
C37   C     C_R   0.440646 0.499623 0.938194 0.930917
C38   C     C_R   0.558519 0.500267 0.937667 0.955479
C39   C     C_R   0.440070 0.999789 0.438540 0.921360
C40   C     C_R   0.558836 0.000261 0.437965 0.958656
C41   C     C_R   0.940642 0.499623 0.438196 0.931107
C42   C     C_R   0.058539 0.500266 0.437686 0.955577
C43   C     C_R   0.439701 0.999736 0.561140 0.891527
C44   C     C_R   0.560304 0.000286 0.561125 0.895844
C45   C     C_R   0.939705 0.499738 0.561148 0.894190
C46   C     C_R   0.129261 0.970390 0.088699 -0.220562
C47   C     C_R   0.060298 0.500286 0.561128 0.896688
C48   C     C_R   0.939708 0.999738 0.061152 0.893680
C49   C     C_R   0.060298 0.000288 0.061128 0.894259
C50   C     C_R   0.439705 0.499738 0.061148 0.894204
C51   C     C_R   0.560299 0.500286 0.061128 0.896726
C52   C     C_R   0.189884 0.000584 0.810028 0.897315
C53   C     C_R   0.809831 0.000422 0.809872 0.877563
C54   C     C_R   0.689986 0.500397 0.809945 0.902051
C55   C     C_R   0.309850 0.500318 0.809893 0.878385
C56   C     C_R   0.689975 0.000372 0.309947 0.901565
C57   C     C_R   0.371362 0.530585 0.089424 -0.219098
C58   C     C_R   0.309893 0.999716 0.309980 0.885079
C59   C     C_R   0.189985 0.500396 0.309945 0.902011
C60   C     C_R   0.809849 0.500322 0.309892 0.878368
C61   C     C_1   0.249728 0.863423 0.749529 -0.197657
C62   C     C_1   0.750309 0.136567 0.749624 -0.204814
C63   C     C_1   0.749756 0.863430 0.750457 -0.200181
C64   C     C_1   0.250291 0.136575 0.750479 -0.197096
C65   C     C_1   0.749713 0.363424 0.749553 -0.196757
C66   C     C_1   0.250308 0.636566 0.749618 -0.204117
C67   C     C_1   0.249755 0.363429 0.750458 -0.200751
C68   C     C_R   0.629207 0.470298 0.088755 -0.223424
C69   C     C_1   0.750295 0.636576 0.750472 -0.196319
C70   C     C_1   0.749715 0.863424 0.249549 -0.196915
C71   C     C_1   0.250285 0.136568 0.249602 -0.205057
C72   C     C_1   0.249756 0.863430 0.250457 -0.200492
C73   C     C_1   0.750296 0.136576 0.250472 -0.196730
C74   C     C_1   0.249708 0.363425 0.249547 -0.197107
C75   C     C_1   0.750307 0.636567 0.249623 -0.204263
C76   C     C_1   0.749755 0.363430 0.250456 -0.200533
C77   C     C_1   0.250295 0.636576 0.250472 -0.196325
C78   C     C_1   0.249787 0.821115 0.749419 0.005494
C79   C     C_R   0.404916 0.998537 0.591909 -0.104477
C80   C     C_1   0.750271 0.178872 0.749518 0.007302
C81   C     C_1   0.749811 0.821123 0.750598 0.005465
C82   C     C_1   0.250253 0.178882 0.750620 0.004581
C83   C     C_1   0.749772 0.321116 0.749450 0.004782
C84   C     C_1   0.250271 0.678872 0.749502 0.007437
C85   C     C_1   0.249809 0.321123 0.750601 0.004656
C86   C     C_1   0.750257 0.678883 0.750611 0.005513
C87   C     C_1   0.749772 0.821116 0.249444 0.004966
C88   C     C_1   0.250236 0.178874 0.249483 0.003682
C89   C     C_1   0.249811 0.821123 0.250599 0.005133
C90   C     C_R   0.595073 0.001547 0.591893 -0.101173
C91   C     C_1   0.750257 0.178883 0.250610 0.005069
C92   C     C_1   0.249757 0.321117 0.249434 0.004192
C93   C     C_1   0.750267 0.678872 0.249513 0.007210
C94   C     C_1   0.749810 0.321123 0.250597 0.004950
C95   C     C_1   0.250257 0.678883 0.250612 0.005516
C96   C     C_1   0.249956 0.771146 0.749394 0.010022
C97   C     C_1   0.750111 0.228841 0.749450 0.010403
C98   C     C_1   0.749965 0.771156 0.750671 0.010241
C99   C     C_1   0.250108 0.228850 0.750684 0.009165
C100  C     C_1   0.749945 0.271146 0.749426 0.009216
C101  C     C_R   0.904911 0.498553 0.591915 -0.103616
C102  C     C_1   0.250117 0.728840 0.749423 0.010888
C103  C     C_1   0.249962 0.271155 0.750678 0.009291
C104  C     C_1   0.750112 0.728851 0.750675 0.010182
C105  C     C_1   0.749943 0.771147 0.249419 0.009490
C106  C     C_1   0.250076 0.228843 0.249414 0.008498
C107  C     C_1   0.249965 0.771156 0.250673 0.010134
C108  C     C_1   0.750112 0.228851 0.250674 0.009657
C109  C     C_1   0.249917 0.271148 0.249397 0.008299
C110  C     C_1   0.750108 0.728841 0.249443 0.010537
C111  C     C_1   0.749964 0.271156 0.250670 0.009683
C112  C     C_R   0.690099 0.999537 0.689928 0.876617
C113  C     C_R   0.095055 0.501546 0.591906 -0.101055
C114  C     C_1   0.250112 0.728851 0.250677 0.010167
C115  C     C_R   0.372462 0.964882 0.655637 0.108716
C116  C     C_R   0.627086 0.034733 0.656094 0.109438
C117  C     C_R   0.872303 0.464742 0.655494 0.107976
C118  C     C_R   0.126998 0.534661 0.656174 0.109671
C119  C     C_R   0.872248 0.964693 0.155445 0.107957
C120  C     C_R   0.126960 0.034638 0.156207 0.108902
C121  C     C_R   0.372319 0.464756 0.155509 0.107994
C122  C     C_R   0.627024 0.534682 0.156150 0.109667
C123  C     C_R   0.341908 0.999670 0.656385 -0.086271
C124  C     C_R   0.904911 0.998558 0.091919 -0.103598
C125  C     C_R   0.658095 0.000387 0.656358 -0.085988
C126  C     C_R   0.841909 0.499680 0.656397 -0.084687
C127  C     C_R   0.158090 0.500392 0.656359 -0.086096
C128  C     C_R   0.841909 0.999682 0.156401 -0.084520
C129  C     C_R   0.158091 0.000408 0.156356 -0.086205
C130  C     C_R   0.341909 0.499679 0.156396 -0.084774
C131  C     C_R   0.658090 0.500390 0.156360 -0.086059
C132  C     C_R   0.339124 0.030451 0.621339 -0.203660
C133  C     C_R   0.661285 0.970182 0.620860 -0.210221
C134  C     C_R   0.839267 0.530656 0.621498 -0.206536
C135  C     C_R   0.095055 0.001558 0.091904 -0.100545
C136  C     C_R   0.161337 0.470268 0.620801 -0.210300
C137  C     C_R   0.839318 0.030725 0.121553 -0.206970
C138  C     C_R   0.161374 0.970334 0.120763 -0.210035
C139  C     C_R   0.339256 0.530639 0.121485 -0.206513
C140  C     C_R   0.661317 0.470238 0.120823 -0.210219
C141  C     C_2   0.036716 0.029982 0.848437 0.950492
C142  C     C_2   0.943556 0.931051 0.865984 0.960736
C143  C     C_2   0.537949 0.536835 0.848995 0.951757
C144  C     C_2   0.446648 0.434885 0.863293 0.952980
C145  C     C_2   0.537093 0.033724 0.348599 0.954439
C146  C     C_R   0.404913 0.498552 0.091917 -0.103626
C147  C     C_2   0.444072 0.932092 0.365810 0.963689
C148  C     C_2   0.037890 0.536631 0.348964 0.951732
C149  C     C_2   0.946531 0.434733 0.363397 0.953262
C150  C     C_R   0.595059 0.501545 0.091903 -0.101145
C151  C     C_R   0.403459 0.964001 0.623312 0.142611
C152  C     C_R   0.596081 0.035644 0.623767 0.140104
C153  C     C_R   0.903300 0.463869 0.623168 0.141801
C154  C     C_R   0.095989 0.535572 0.623851 0.140122
C155  C     C_R   0.903246 0.963823 0.123119 0.141964
C156  C     C_R   0.809899 0.500449 0.689936 0.872281
C157  C     C_R   0.095950 0.035549 0.123883 0.138908
C158  C     C_R   0.403316 0.463882 0.123183 0.141721
C159  C     C_R   0.596016 0.535592 0.123826 0.140175
C160  C     C_3   0.438204 0.949017 0.654168 -0.501932
C161  C     C_3   0.561135 0.049686 0.654801 -0.504129
C162  C     C_3   0.937973 0.448571 0.653962 -0.501729
C163  C     C_3   0.061007 0.549446 0.654921 -0.504406
C164  C     C_3   0.937893 0.948417 0.153893 -0.501176
C165  C     C_3   0.060951 0.049341 0.154967 -0.503900
C166  C     C_3   0.437997 0.448615 0.153984 -0.501689
C167  C     C_R   0.190098 0.499537 0.689928 0.876636
C168  C     C_3   0.561045 0.549517 0.154885 -0.504403
C169  C     C_3   0.403939 0.950170 0.689922 -0.465977
C170  C     C_3   0.595410 0.048498 0.690561 -0.463013
C171  C     C_3   0.903709 0.449713 0.689718 -0.466181
C172  C     C_3   0.095286 0.548257 0.690675 -0.462488
C173  C     C_3   0.903629 0.949553 0.189648 -0.466333
C174  C     C_3   0.095229 0.048151 0.190722 -0.462552
C175  C     C_3   0.403732 0.449757 0.189739 -0.466164
C176  C     C_3   0.595323 0.548329 0.190641 -0.462734
C177  C     C_R   0.163688 0.981107 0.883301 0.110882
C178  C     C_R   0.809899 0.000446 0.189938 0.872354
C179  C     C_R   0.842121 0.028333 0.877282 0.010739
C180  C     C_R   0.663355 0.486192 0.883876 0.120455
C181  C     C_R   0.341003 0.526507 0.878545 0.012940
C182  C     C_R   0.663795 0.987324 0.384249 0.121910
C183  C     C_R   0.345374 0.033975 0.373264 0.010821
C184  C     C_R   0.163384 0.486269 0.383902 0.120547
C185  C     C_R   0.841048 0.526583 0.378494 0.012990
C186  C     C_R   0.156120 0.999564 0.842182 -0.117239
C187  C     C_R   0.842436 0.998645 0.842222 -0.103455
C188  C     C_R   0.656624 0.502160 0.842052 -0.120855
C189  C     C_R   0.190098 0.999543 0.189927 0.876655
C190  C     C_R   0.342509 0.498496 0.842265 -0.107056
C191  C     C_R   0.656581 0.001965 0.342055 -0.121741
C192  C     C_R   0.342992 0.999202 0.342275 -0.117396
C193  C     C_R   0.156620 0.502146 0.342051 -0.120988
C194  C     C_R   0.842506 0.498501 0.342263 -0.106906
C195  C     C_R   0.113880 0.013105 0.830570 -0.285050
C196  C     C_R   0.876349 0.967023 0.838545 -0.207093
C197  C     C_R   0.615210 0.519132 0.831146 -0.281878
C198  C     C_R   0.377731 0.468632 0.837363 -0.206497
C199  C     C_R   0.614708 0.017516 0.330855 -0.282616
C200  C     C_R   0.309900 0.500449 0.189936 0.872326
C201  C     C_R   0.377232 0.968209 0.338044 -0.215545
C202  C     C_R   0.115175 0.519021 0.331124 -0.281901
C203  C     C_R   0.877675 0.468563 0.337411 -0.206502
C204  C     C_R   0.080671 0.013609 0.861679 -0.147048
C205  C     C_R   0.909015 0.965693 0.870529 -0.134731
C206  C     C_R   0.581427 0.519110 0.862120 -0.147533
C207  C     C_R   0.410491 0.467407 0.869260 -0.135716
C208  C     C_R   0.581040 0.017507 0.361942 -0.148373
C209  C     C_R   0.410229 0.967560 0.369330 -0.128637
C210  C     C_R   0.081399 0.519001 0.362105 -0.147600
C211  C     C_R   0.690098 0.499537 0.189928 0.876633
C212  C     C_R   0.910433 0.467336 0.369310 -0.135645
C213  C     C_R   0.091014 0.999948 0.904711 -0.121873
C214  C     C_R   0.908194 0.998153 0.905180 -0.149356
C215  C     C_R   0.590212 0.501417 0.904381 -0.122138
C216  C     C_R   0.408355 0.498206 0.905138 -0.147297
C217  C     C_R   0.590400 0.001333 0.404604 -0.121750
C218  C     C_R   0.409247 0.999964 0.403682 -0.159516
C219  C     C_R   0.090224 0.501411 0.404394 -0.122122
C220  C     C_R   0.908349 0.498205 0.405139 -0.147345
C221  C     C_R   0.249878 0.914248 0.749854 0.880753
C222  C     C_R   0.371229 0.030394 0.589275 -0.218559
C223  C     C_R   0.750138 0.085746 0.749893 0.869538
C224  C     C_R   0.749881 0.914253 0.750134 0.878120
C225  C     C_R   0.250135 0.085752 0.750143 0.874234
C226  C     C_R   0.749870 0.414248 0.749864 0.883469
C227  C     C_R   0.250140 0.585746 0.749894 0.870849
C228  C     C_R   0.249880 0.414253 0.750134 0.878168
C229  C     C_R   0.750138 0.585752 0.750139 0.873854
C230  C     C_R   0.749871 0.914248 0.249862 0.883106
C231  C     C_R   0.250136 0.085746 0.249891 0.877475
C232  C     C_R   0.249880 0.914253 0.250134 0.876216
H1    H     H_    0.313673 0.055837 0.620105 0.157518
H2    H     H_    0.630238 0.945339 0.562524 0.159080
H3    H     H_    0.253478 0.019863 0.398521 0.212837
H4    H     H_    0.275893 0.093030 0.368779 0.185416
H5    H     H_    0.321482 0.118940 0.386882 0.183622
H6    H     H_    0.683834 0.901040 0.393154 0.180804
H7    H     H_    0.725644 0.906165 0.428316 0.185576
H8    H     H_    0.247525 0.480843 0.452785 0.182164
H9    H     H_    0.220982 0.526857 0.434113 0.180972
H10   H     H_    0.777270 0.520255 0.434402 0.180168
H11   H     H_    0.752960 0.547427 0.392861 0.204994
H12   H     H_    0.795224 0.600828 0.347424 0.176621
H13   H     H_    0.870757 0.556070 0.563674 0.158253
H14   H     H_    0.846652 0.614548 0.361214 0.190629
H15   H     H_    0.181437 0.399257 0.390585 0.180840
H16   H     H_    0.223228 0.402323 0.425951 0.185359
H17   H     H_    0.130332 0.445479 0.562422 0.158865
H18   H     H_    0.870848 0.056188 0.063772 0.157985
H19   H     H_    0.130390 0.945569 0.062367 0.157220
H20   H     H_    0.370736 0.556042 0.063652 0.158286
H21   H     H_    0.630297 0.445429 0.062460 0.158962
H22   H     H_    0.449610 0.913830 0.646737 0.212307
H23   H     H_    0.549282 0.084804 0.647860 0.212208
H24   H     H_    0.535135 0.023033 0.658638 0.191700
H25   H     H_    0.687065 0.945188 0.619263 0.155989
H26   H     H_    0.464535 0.975249 0.658399 0.191558
H27   H     H_    0.949230 0.413364 0.646380 0.212018
H28   H     H_    0.049072 0.584552 0.648061 0.212488
H29   H     H_    0.035066 0.522716 0.658699 0.191637
H30   H     H_    0.964415 0.474659 0.658312 0.191592
H31   H     H_    0.949099 0.913204 0.146257 0.212342
H32   H     H_    0.048977 0.084441 0.148145 0.211997
H33   H     H_    0.035038 0.022575 0.158714 0.191802
H34   H     H_    0.964373 0.974456 0.158284 0.191539
H35   H     H_    0.449269 0.413410 0.146416 0.212058
H36   H     H_    0.813932 0.556177 0.620383 0.156822
H37   H     H_    0.549135 0.584627 0.148000 0.212409
H38   H     H_    0.535086 0.522811 0.158681 0.191660
H39   H     H_    0.464428 0.474718 0.158322 0.191583
H40   H     H_    0.395620 0.915653 0.703191 0.204298
H41   H     H_    0.603287 0.082926 0.704325 0.204569
H42   H     H_    0.589349 0.021062 0.715143 0.217857
H43   H     H_    0.410335 0.977165 0.714897 0.218084
H44   H     H_    0.895240 0.415169 0.702833 0.204012
H45   H     H_    0.103082 0.582671 0.704519 0.204802
H46   H     H_    0.089289 0.520742 0.715196 0.217754
H47   H     H_    0.187169 0.445335 0.619150 0.155903
H48   H     H_    0.910215 0.476558 0.714814 0.218238
H49   H     H_    0.895107 0.914999 0.202708 0.204248
H50   H     H_    0.102985 0.082557 0.204605 0.204310
H51   H     H_    0.089261 0.020598 0.215211 0.217895
H52   H     H_    0.910171 0.976345 0.214786 0.218175
H53   H     H_    0.395277 0.415216 0.202868 0.204011
H54   H     H_    0.603143 0.582747 0.204460 0.204680
H55   H     H_    0.589307 0.520839 0.215180 0.217792
H56   H     H_    0.410226 0.476617 0.214823 0.218193
H57   H     H_    0.107434 0.025800 0.797958 0.177811
H58   H     H_    0.814022 0.056292 0.120480 0.156502
H59   H     H_    0.876965 0.943093 0.811398 0.162748
H60   H     H_    0.609439 0.532959 0.798829 0.176281
H61   H     H_    0.379360 0.445998 0.809281 0.164916
H62   H     H_    0.608458 0.030263 0.298227 0.177274
H63   H     H_    0.376994 0.943148 0.311815 0.159571
H64   H     H_    0.109373 0.532777 0.298785 0.176379
H65   H     H_    0.879264 0.445875 0.309367 0.164831
H66   H     H_    0.154992 0.024026 0.967299 0.199503
H67   H     H_    0.846700 0.058682 0.965415 0.177498
H68   H     H_    0.879342 0.099090 0.930297 0.204464
H69   H     H_    0.187232 0.945434 0.119085 0.155885
H70   H     H_    0.163077 0.960982 0.974319 0.198135
H71   H     H_    0.663311 0.486835 0.976766 0.196429
H72   H     H_    0.344683 0.553362 0.967770 0.178043
H73   H     H_    0.375691 0.596504 0.934136 0.204306
H74   H     H_    0.645492 0.428603 0.957057 0.207733
H75   H     H_    0.664012 0.990857 0.477102 0.197348
H76   H     H_    0.348347 0.029222 0.467016 0.179852
H77   H     H_    0.361914 0.088860 0.448530 0.195972
H78   H     H_    0.647532 0.931610 0.459081 0.206918
H79   H     H_    0.163357 0.487137 0.476791 0.196492
H80   H     H_    0.313910 0.556148 0.120360 0.156912
H81   H     H_    0.844768 0.553602 0.467671 0.178016
H82   H     H_    0.875852 0.596620 0.433966 0.204310
H83   H     H_    0.145643 0.428823 0.457211 0.207557
H84   H     H_    0.036666 0.995979 0.790612 0.321909
H85   H     H_    0.919704 0.891616 0.914816 0.304816
H86   H     H_    0.538192 0.505579 0.789780 0.321785
H87   H     H_    0.425014 0.392282 0.910724 0.305927
H88   H     H_    0.537674 0.000581 0.290339 0.320406
H89   H     H_    0.416243 0.891877 0.411896 0.302142
H90   H     H_    0.038160 0.505270 0.289801 0.321732
H91   H     H_    0.687132 0.445285 0.119189 0.155961
H92   H     H_    0.924801 0.392240 0.410873 0.305945
H93   H     H_    0.235222 0.045142 0.940677 0.183291
H94   H     H_    0.194735 0.062038 0.907705 0.180743
H95   H     H_    0.778160 0.026823 0.933273 0.180173
H96   H     H_    0.754962 0.052947 0.890491 0.204519
H97   H     H_    0.799069 0.103070 0.843402 0.174535
H98   H     H_    0.850908 0.115292 0.856854 0.191421
H99   H     H_    0.213783 0.923446 0.924122 0.178373
H100  H     H_    0.246557 0.960383 0.951141 0.183011
H101  H     H_    0.721021 0.526535 0.934191 0.180994
H102  H     H_    0.370495 0.055718 0.563388 0.159699
H103  H     H_    0.747474 0.480415 0.952758 0.182321
H104  H     H_    0.252873 0.547170 0.892966 0.205062
H105  H     H_    0.277237 0.519944 0.934443 0.180092
H106  H     H_    0.346453 0.614519 0.861421 0.190547
H107  H     H_    0.295048 0.600724 0.847611 0.176755
H108  H     H_    0.723025 0.402010 0.925749 0.185909
H109  H     H_    0.681237 0.399122 0.890367 0.181132
H110  H     H_    0.748247 0.985989 0.453014 0.182333
H111  H     H_    0.720614 0.030758 0.433224 0.180664
H112  H     H_    0.291615 0.985263 0.419864 0.183246
N1    N     N_3   0.218606 0.037075 0.911784 -0.408959
N2    N     N_3   0.279522 0.018662 0.420434 -0.422988
N3    N     N_3   0.296049 0.096701 0.396162 -0.425817
N4    N     N_3   0.710797 0.921659 0.401455 -0.420875
N5    N     N_3   0.232208 0.494406 0.425239 -0.408770
N6    N     N_3   0.774994 0.551971 0.418598 -0.421092
N7    N     N_3   0.815761 0.607090 0.374113 -0.419272
N8    N     N_3   0.208820 0.418958 0.399477 -0.422069
N9    N     N_3   0.776999 0.057872 0.916171 -0.421065
N10   N     N_3   0.819770 0.109578 0.869912 -0.418679
N11   N     N_3   0.229829 0.955278 0.921725 -0.416779
N12   N     N_3   0.732185 0.494081 0.925242 -0.408638
N13   N     N_3   0.274907 0.551692 0.918706 -0.420868
N14   N     N_3   0.315576 0.606975 0.874310 -0.419038
N15   N     N_3   0.708656 0.418743 0.899309 -0.421710
N16   N     N_3   0.732549 0.998362 0.425168 -0.408959
O1    O     O_R   0.321670 1.000000 0.730060 -0.619580
O2    O     O_R   0.730060 1.000000 0.678340 -0.615824
O3    O     O_R   0.944991 0.892881 0.893524 -0.759176
O4    O     O_2   0.516938 0.560121 0.874309 -0.576280
O5    O     O_R   0.520714 0.528263 0.807412 -0.734426
O6    O     O_2   0.473053 0.441372 0.834069 -0.561577
O7    O     O_R   0.450167 0.395855 0.889477 -0.759754
O8    O     O_2   0.515743 0.057295 0.373377 -0.575053
O9    O     O_R   0.519759 0.023340 0.307425 -0.734928
O10   O     O_2   0.473115 0.936557 0.338866 -0.560981
O11   O     O_R   0.442619 0.892822 0.391959 -0.760972
O12   O     O_2   0.016852 0.559925 0.374247 -0.576370
O13   O     O_R   0.769940 0.500000 0.678340 -0.615280
O14   O     O_R   0.020655 0.527957 0.307401 -0.734385
O15   O     O_2   0.972961 0.441131 0.334181 -0.561501
O16   O     O_R   0.949963 0.395728 0.389626 -0.759776
O17   O     O_R   0.230060 0.500000 0.678340 -0.615795
O18   O     O_R   0.769940 0.000000 0.178340 -0.615279
O19   O     O_R   0.230060 0.000000 0.178340 -0.616215
O20   O     O_R   0.269940 0.500000 0.178340 -0.615261
O21   O     O_R   0.730060 0.500000 0.178340 -0.615761
O22   O     O_R   0.275870 0.936860 0.775860 -0.598381
O23   O     O_R   0.724130 0.063140 0.775860 -0.605684
O24   O     O_R   0.724130 0.936860 0.775860 -0.596861
O25   O     O_R   0.678330 1.000000 0.730060 -0.616660
O26   O     O_R   0.275870 0.063140 0.775860 -0.597030
O27   O     O_R   0.775870 0.436860 0.775860 -0.595115
O28   O     O_R   0.224130 0.563140 0.775860 -0.605668
O29   O     O_R   0.224130 0.436860 0.775860 -0.597150
O30   O     O_R   0.775870 0.563140 0.775860 -0.598969
O31   O     O_R   0.775870 0.936860 0.275860 -0.595258
O32   O     O_R   0.224130 0.063140 0.275860 -0.606282
O33   O     O_R   0.224130 0.936860 0.275860 -0.597981
O34   O     O_R   0.775870 0.063140 0.275860 -0.598966
O35   O     O_R   0.275870 0.436860 0.275860 -0.595321
O36   O     O_R   0.821670 0.500000 0.730060 -0.619555
O37   O     O_R   0.724130 0.563140 0.275860 -0.605814
O38   O     O_R   0.724130 0.436860 0.275860 -0.597035
O39   O     O_R   0.275870 0.563140 0.275860 -0.599026
O40   O     O_R   0.224140 0.936870 0.724140 -0.595651
O41   O     O_R   0.775860 0.063130 0.724140 -0.592845
O42   O     O_R   0.775860 0.936870 0.724140 -0.599850
O43   O     O_R   0.224140 0.063130 0.724140 -0.601392
O44   O     O_R   0.724140 0.436870 0.724140 -0.597031
O45   O     O_R   0.275860 0.563130 0.724140 -0.592336
O46   O     O_R   0.275860 0.436870 0.724140 -0.600148
O47   O     O_R   0.178330 0.500000 0.730060 -0.616677
O48   O     O_R   0.724140 0.563130 0.724140 -0.601407
O49   O     O_R   0.724140 0.936870 0.224140 -0.597011
O50   O     O_R   0.275860 0.063130 0.224140 -0.591852
O51   O     O_R   0.275860 0.936870 0.224140 -0.600351
O52   O     O_R   0.724140 0.063130 0.224140 -0.601337
O53   O     O_R   0.224140 0.436870 0.224140 -0.597004
O54   O     O_R   0.775860 0.563130 0.224140 -0.592291
O55   O     O_R   0.775860 0.436870 0.224140 -0.600132
O56   O     O_R   0.224140 0.563130 0.224140 -0.601302
O57   O     O_R   0.230060 0.000000 0.821670 -0.587026
O58   O     O_R   0.821670 1.000000 0.230060 -0.619569
O59   O     O_R   0.769940 0.000000 0.821670 -0.634027
O60   O     O_R   0.730060 0.500000 0.821670 -0.592159
O61   O     O_R   0.269940 0.500000 0.821670 -0.635033
O62   O     O_R   0.730060 1.000000 0.321670 -0.591721
O63   O     O_R   0.269940 1.000000 0.321670 -0.642707
O64   O     O_R   0.230060 0.500000 0.321670 -0.592157
O65   O     O_R   0.769940 0.500000 0.321670 -0.634965
O66   O     O_R   0.178330 1.000000 0.769950 -0.621644
O67   O     O_R   0.821670 1.000000 0.769950 -0.601951
O68   O     O_R   0.678330 0.500000 0.769950 -0.621139
O69   O     O_R   0.178330 1.000000 0.230060 -0.616407
O70   O     O_R   0.321670 0.500000 0.769950 -0.602615
O71   O     O_R   0.678330 1.000000 0.269950 -0.621573
O72   O     O_R   0.321670 1.000000 0.269950 -0.597856
O73   O     O_R   0.178330 0.500000 0.269950 -0.621166
O74   O     O_R   0.821670 0.500000 0.269950 -0.602585
O75   O     O_R   0.954170 0.964330 0.954180 -0.632992
O76   O     O_R   0.045830 0.035670 0.954180 -0.594828
O77   O     O_R   0.045830 0.964330 0.954180 -0.615628
O78   O     O_R   0.954170 0.035670 0.954180 -0.592687
O79   O     O_R   0.454170 0.464330 0.954180 -0.634504
O80   O     O_R   0.321670 0.500000 0.230060 -0.619578
O81   O     O_R   0.545830 0.535670 0.954180 -0.592934
O82   O     O_R   0.545830 0.464330 0.954180 -0.617259
O83   O     O_R   0.454170 0.535670 0.954180 -0.592822
O84   O     O_R   0.454170 0.964330 0.454180 -0.629737
O85   O     O_R   0.545830 0.035670 0.454180 -0.593747
O86   O     O_R   0.545830 0.964330 0.454180 -0.618142
O87   O     O_R   0.454170 0.035670 0.454180 -0.589184
O88   O     O_R   0.954170 0.464330 0.454180 -0.634451
O89   O     O_R   0.045830 0.535670 0.454180 -0.592975
O90   O     O_R   0.045830 0.464330 0.454180 -0.617360
O91   O     O_R   0.678330 0.500000 0.230060 -0.616679
O92   O     O_R   0.954170 0.535670 0.454180 -0.592830
O93   O     O_R   0.454180 0.964360 0.545790 -0.622035
O94   O     O_R   0.545820 0.035640 0.545790 -0.624729
O95   O     O_R   0.545820 0.964360 0.545790 -0.627403
O96   O     O_R   0.454180 0.035640 0.545790 -0.631585
O97   O     O_R   0.954180 0.464360 0.545790 -0.622154
O98   O     O_R   0.045820 0.535640 0.545790 -0.624050
O99   O     O_R   0.045820 0.464360 0.545790 -0.627346
O100  O     O_R   0.954180 0.535640 0.545790 -0.630942
O101  O     O_R   0.954180 0.964360 0.045790 -0.621916
O102  O     O_R   0.269940 1.000000 0.678340 -0.614452
O103  O     O_R   0.045820 0.035640 0.045790 -0.626352
O104  O     O_R   0.045820 0.964360 0.045790 -0.626892
O105  O     O_R   0.954180 0.035640 0.045790 -0.631350
O106  O     O_R   0.454180 0.464360 0.045790 -0.622167
O107  O     O_R   0.545820 0.535640 0.045790 -0.624053
O108  O     O_R   0.545820 0.464360 0.045790 -0.627301
O109  O     O_R   0.454180 0.535640 0.045790 -0.630931
O110  O     O_2   0.015726 0.054182 0.872968 -0.579101
O111  O     O_R   0.019044 0.019147 0.807507 -0.734000
O112  O     O_2   0.970361 0.934950 0.836741 -0.558307
Zn1   Zn    Zn3+2 0.284540 1.000000 0.784540 0.982934
Zn2   Zn    Zn3+2 0.784540 1.000000 0.715470 0.980047
Zn3   Zn    Zn3+2 0.715460 0.500000 0.715470 0.973118
Zn4   Zn    Zn3+2 0.284540 0.500000 0.715470 0.979780
Zn5   Zn    Zn3+2 0.715460 1.000000 0.215470 0.972585
Zn6   Zn    Zn3+2 0.284540 1.000000 0.215470 0.981618
Zn7   Zn    Zn3+2 0.215460 0.500000 0.215470 0.973154
Zn8   Zn    Zn3+2 0.784540 0.500000 0.215470 0.979964
Zn9   Zn    Zn3+2 0.000000 0.952400 0.999990 0.998439
Zn10  Zn    Zn3+2 0.000000 0.047600 0.999990 0.995525
Zn11  Zn    Zn3+2 0.500000 0.452400 0.999990 0.992198
Zn12  Zn    Zn3+2 0.715460 1.000000 0.784540 0.948798
Zn13  Zn    Zn3+2 0.500000 0.547600 0.999990 1.001293
Zn14  Zn    Zn3+2 0.500000 0.952400 0.499990 0.996316
Zn15  Zn    Zn3+2 0.500000 0.047600 0.499990 1.001001
Zn16  Zn    Zn3+2 0.000000 0.452400 0.499990 0.992239
Zn17  Zn    Zn3+2 0.000000 0.547600 0.499990 1.001233
Zn18  Zn    Zn3+2 0.784540 0.500000 0.784540 0.982599
Zn19  Zn    Zn3+2 0.215460 0.500000 0.784540 0.948021
Zn20  Zn    Zn3+2 0.784540 1.000000 0.284540 0.982625
Zn21  Zn    Zn3+2 0.215460 1.000000 0.284540 0.944560
Zn22  Zn    Zn3+2 0.284540 0.500000 0.284540 0.982235
Zn23  Zn    Zn3+2 0.715460 0.500000 0.284540 0.948036
Zn24  Zn    Zn3+2 0.215460 1.000000 0.715470 0.974199

loop_
_geom_bond_atom_site_label_1
_geom_bond_atom_site_label_2
_ccdc_geom_bond_type
C99   C103  T    
C105  C110  T    
C20   H73   S    
C96   C102  T    
O106  Zn11  S    
C39   C218  S    
O34   Zn20  S    
C4    O53   A    
C11   C181  A    
C49   O104  A    
C149  O15   D    
C173  H52   S    
C174  H51   S    
C158  C166  S    
C39   O84   A    
C24   H17   S    
C31   N3    S    
C187  C196  A    
H93   N1    S    
C92   C109  S    
C184  C193  A    
C94   C111  S    
C21   H75   S    
C22   H76   S    
C82   C99   S    
C74   C92   T    
C2    C90   A    
C64   C225  S    
C131  C140  A    
C76   C94   T    
C139  H80   S    
C78   C96   S    
C199  H62   S    
C66   C227  S    
O101  Zn9   S    
C208  C217  A    
H6    N4    S    
C117  C126  A    
C143  O5    S    
C85   C103  S    
C11   C216  A    
C119  C128  A    
H12   N7    S    
C56   C191  S    
C142  O112  D    
C18   H67   S    
C4    O35   A    
O36   Zn18  S    
C30   C182  S    
C19   H74   S    
O74   Zn8   S    
C197  C206  A    
C45   O100  A    
O84   Zn14  S    
O19   Zn6   S    
C11   C20   S    
C67   C85   T    
C115  C123  A    
C150  C159  A    
C53   O67   A    
O90   Zn16  S    
C136  H47   S    
C127  C136  A    
C90   C152  A    
C122  C159  A    
O78   Zn10  S    
C212  C220  A    
O93   Zn14  S    
C167  O47   A    
C177  C186  A    
C48   O101  A    
C27   N10   S    
H95   N9    S    
C181  C190  A    
C186  C195  A    
H11   N6    S    
C197  H60   S    
C15   C184  A    
C163  H29   S    
C164  C173  S    
C26   N1    S    
C163  C172  S    
C28   C180  S    
H9    N5    S    
C112  C125  S    
H98   N10   S    
C205  C214  A    
C83   C100  S    
O80   Zn22  S    
C117  C153  A    
C21   H78   S    
C112  O25   A    
C68   C140  A    
C157  C165  S    
O59   Zn12  S    
C41   C220  S    
C75   C93   T    
C79   C222  A    
C16   C25   S    
C42   O90   A    
O66   Zn24  S    
C35   C124  A    
O54   Zn8   S    
H88   O9    S    
H4    N3    S    
C40   O85   A    
C143  O4    D    
C6    O38   A    
C153  C162  S    
C8    C17   S    
C156  O36   A    
C108  C111  T    
H104  N13   S    
C222  H102  S    
C28   N12   S    
C138  H69   S    
C229  O30   A    
C35   C137  A    
C121  C175  S    
C227  O28   A    
C122  C176  S    
C12   C21   S    
C142  O3    S    
C137  H58   S    
C10   C215  A    
O28   Zn19  S    
C71   C88   T    
C59   O73   A    
C17   H70   S    
C126  C134  A    
C81   C98   S    
C115  C151  A    
C71   C231  S    
C14   C218  A    
C7    O56   A    
C168  H37   S    
C55   O70   A    
C135  C157  A    
H107  N14   S    
O57   Zn1   S    
C80   C97   S    
C84   C102  S    
C166  H39   S    
C163  H28   S    
C149  C212  S    
C121  C130  A    
C189  O19   A    
C86   C104  S    
C47   O99   A    
C148  O14   S    
C59   C193  S    
H100  N11   S    
C58   O63   A    
O40   Zn24  S    
C20   H72   S    
C112  O2    A    
C62   C80   T    
O85   Zn15  S    
O95   Zn14  S    
C143  C206  S    
C173  H49   S    
C25   H82   S    
C55   O61   A    
C38   C215  S    
C33   N7    S    
C189  O69   A    
C200  O80   A    
O29   Zn19  S    
C207  C216  A    
C68   H21   S    
O97   Zn16  S    
C58   O72   A    
C51   C150  S    
C129  C189  S    
C203  H65   S    
O96   Zn15  S    
C37   C216  S    
C172  H45   S    
C9    C179  A    
O22   Zn1   S    
C201  H63   S    
C7    C77   S    
C144  C207  S    
C24   C136  A    
C49   C135  S    
C145  O9    S    
C52   C186  S    
C225  O26   A    
C70   C87   T    
C201  C209  A    
H15   N8    S    
O44   Zn3   S    
C34   O78   A    
O27   Zn18  S    
O38   Zn23  S    
H103  N12   S    
O82   Zn11  S    
C120  C129  A    
C51   O107  A    
C228  O29   A    
C224  O24   A    
C44   O95   A    
C45   O97   A    
C192  C201  A    
C56   O62   A    
C221  O22   A    
C54   O60   A    
C165  C174  S    
C164  H34   S    
O18   Zn5   S    
C35   H18   S    
O73   Zn7   S    
C210  C219  A    
O52   Zn5   S    
O45   Zn4   S    
O50   Zn6   S    
O26   Zn1   S    
C69   C229  S    
O104  Zn9   S    
C87   C105  S    
C166  H35   S    
C141  O111  S    
C202  H64   S    
C6    O55   A    
C116  C170  S    
C19   C28   S    
O68   Zn3   S    
C226  O44   A    
C120  C174  S    
C41   O92   A    
O1    Zn1   S    
C116  C125  A    
C131  C211  S    
O17   Zn4   S    
C118  C127  A    
C15   C219  A    
C122  C131  A    
C97   C100  T    
C26   C177  S    
C168  C176  S    
C72   C232  S    
C147  O10   D    
C198  C207  A    
C113  C154  A    
C49   O103  A    
H109  N15   S    
C6    C76   S    
C146  C158  A    
C93   C110  S    
C52   O57   A    
C121  C158  A    
C14   C22   S    
C34   O75   A    
O25   Zn12  S    
C199  C208  A    
C16   C220  A    
C22   H77   S    
O33   Zn21  S    
C3    C73   S    
C46   H19   S    
O67   Zn2   S    
C68   C150  A    
C56   O71   A    
O83   Zn13  S    
H99   N11   S    
C9    C18   S    
C169  H40   S    
C124  C155  A    
C52   O66   A    
H108  N15   S    
O31   Zn20  S    
C53   O59   A    
O51   Zn6   S    
O102  Zn24  S    
C170  H41   S    
C13   C101  A    
C161  H24   S    
C171  H48   S    
C25   C33   S    
O35   Zn22  S    
C106  C109  T    
C170  H42   S    
C206  C215  A    
C13   H13   S    
C18   H68   S    
C40   C217  S    
H8    N5    S    
C5    O37   A    
O39   Zn22  S    
C141  C204  S    
C116  C152  A    
C185  C194  A    
C183  C192  A    
C14   C183  A    
C43   O93   A    
C3    O34   A    
H105  N13   S    
O43   Zn24  S    
C225  O43   A    
C166  C175  S    
O72   Zn6   S    
C132  C222  A    
O91   Zn23  S    
C32   N8    S    
H84   O111  S    
C27   C179  S    
C16   C185  A    
O99   Zn16  S    
C123  C132  A    
C179  C187  A    
H7    N4    S    
C162  H30   S    
C95   C114  S    
C223  O23   A    
C57   C139  A    
H101  N12   S    
C160  H22   S    
C27   N9    S    
C180  C188  A    
C41   O88   A    
C228  O46   A    
C46   C135  A    
O108  Zn11  S    
C8    C177  A    
C2    H2    S    
C12   C182  A    
O41   Zn2   S    
C169  H43   S    
C160  C169  S    
C38   O81   A    
C132  H1    S    
C178  O18   A    
C156  O13   A    
C50   C146  S    
C133  H25   S    
C144  O6    D    
O37   Zn23  S    
C54   C188  S    
C57   C146  A    
H89   O11   S    
C230  O49   A    
C130  C139  A    
C63   C224  S    
C3    O52   A    
C149  O16   S    
H96   N9    S    
C134  H36   S    
H97   N10   S    
C174  H50   S    
C2    C133  A    
C29   N13   S    
C40   O86   A    
C42   C219  S    
C34   C214  S    
O79   Zn11  S    
O64   Zn22  S    
C36   O77   A    
O77   Zn9   S    
C193  C202  A    
C1    O1    A    
O86   Zn14  S    
C5    C75   S    
C1    C123  S    
C107  C114  T    
C44   O94   A    
C168  H38   S    
C224  O42   A    
C117  C171  S    
C118  C172  S    
C10   C19   S    
O47   Zn19  S    
C33   N6    S    
C89   C107  S    
C160  H26   S    
H106  N14   S    
C165  H32   S    
C48   O105  A    
C45   C101  S    
C211  O21   A    
C60   O65   A    
C162  H27   S    
O61   Zn19  S    
C232  O51   A    
O23   Zn12  S    
C140  H91   S    
C19   H71   S    
O70   Zn4   S    
C182  C191  A    
C209  C218  A    
C30   N16   S    
C12   C217  A    
O109  Zn13  S    
C190  C198  A    
O21   Zn8   S    
C47   C113  S    
C91   C108  S    
C195  C204  A    
C9    C214  A    
C178  O58   A    
O62   Zn20  S    
C21   C30   S    
C147  O11   S    
C26   N11   S    
C10   C180  A    
C23   C32   S    
C119  C173  S    
C227  O45   A    
H86   O5    S    
C25   H81   S    
C188  C197  A    
C65   C226  S    
O13   Zn3   S    
C175  H56   S    
H85   O3    S    
C176  H55   S    
C61   C221  S    
C59   O64   A    
O63   Zn21  S    
C232  O33   A    
O87   Zn15  S    
O92   Zn17  S    
C230  O31   A    
C33   C185  S    
C50   O109  A    
C28   N15   S    
C147  C209  S    
C172  H46   S    
C226  O27   A    
C42   O89   A    
C164  H31   S    
H3    N2    S    
C39   O87   A    
C13   C134  A    
H90   O14   S    
C167  O17   A    
C115  C169  S    
C31   N2    S    
H110  N16   S    
C60   C194  S    
C1    O102  A    
C29   C181  S    
C63   C81   T    
C17   C26   S    
C191  C199  A    
C175  H53   S    
O69   Zn21  S    
C65   C83   T    
C43   C79   S    
O55   Zn8   S    
O48   Zn3   S    
C159  C168  S    
C142  C205  S    
C196  C205  A    
C171  H44   S    
C229  O48   A    
C129  C138  A    
C141  O110  D    
C231  O32   A    
O20   Zn7   S    
C23   H79   S    
C231  O50   A    
C4    C74   S    
C46   C138  A    
O58   Zn20  S    
C15   C23   S    
C73   C91   T    
C24   C113  A    
C165  H33   S    
O32   Zn21  S    
H87   O7    S    
C37   O83   A    
C221  O40   A    
C202  C210  A    
C130  C200  S    
O89   Zn17  S    
C29   N14   S    
C20   C29   S    
O71   Zn5   S    
C22   C31   S    
O60   Zn18  S    
C148  O12   D    
C55   C190  S    
C154  C163  S    
C144  O7    S    
C5    O54   A    
O94   Zn15  S    
C204  C213  A    
C77   C95   T    
H10   N6    S    
O42   Zn2   S    
O75   Zn9   S    
C128  C137  A    
C70   C230  S    
O49   Zn5   S    
O100  Zn17  S    
H5    N3    S    
C148  C210  S    
C36   C213  S    
C88   C106  S    
C195  H57   S    
O103  Zn10  S    
C36   O76   A    
C50   O106  A    
C101  C153  A    
C61   C78   T    
O24   Zn12  S    
C7    O39   A    
O65   Zn23  S    
C62   C223  S    
C200  O20   A    
C57   H20   S    
C23   H83   S    
C64   C82   T    
C161  C170  S    
C30   N4    S    
O2    Zn2   S    
H112  N2    S    
C118  C154  A    
C211  O91   A    
C203  C212  A    
H94   N1    S    
C128  C178  S    
C60   O74   A    
C37   O79   A    
C161  H23   S    
C44   C90   S    
C79   C151  A    
C196  H59   S    
C125  C133  A    
O88   Zn16  S    
C17   H66   S    
C119  C155  A    
O107  Zn13  S    
C31   C183  S    
H14   N7    S    
C51   O108  A    
C32   C184  S    
C18   C27   S    
C152  C161  S    
C48   C124  S    
C43   O96   A    
C155  C164  S    
O81   Zn13  S    
C223  O41   A    
C151  C160  S    
C32   N5    S    
C53   C187  S    
H16   N8    S    
H92   O16   S    
O98   Zn17  S    
C58   C192  S    
C72   C89   T    
C8    C213  A    
C120  C157  A    
C67   C228  S    
C98   C104  T    
C194  C203  A    
O76   Zn10  S    
O30   Zn18  S    
C66   C84   T    
H111  N16   S    
C145  O8    D    
C54   O68   A    
C162  C171  S    
O56   Zn7   S    
C127  C167  S    
O105  Zn10  S    
C198  H61   S    
O53   Zn7   S    
O46   Zn4   S    
C38   O82   A    
C176  H54   S    
C145  C208  S    
C69   C86   T    
C47   O98   A    
C126  C156  S    
