data_mof_unit_30477.cif
_audit_creation_date              2013-03-05T15:44:04-0500
_audit_creation_method            fapswitch 2.2
_symmetry_space_group_name_H-M    P1
_symmetry_Int_Tables_number       1
_space_group_crystal_system       triclinic
_cell_length_a                    6.93814
_cell_length_b                    17.704725
_cell_length_c                    18.985821
_cell_angle_alpha                 90.000183
_cell_angle_beta                  90.000208
_cell_angle_gamma                 90.001642
_cell_volume                      2332.17763451

loop_
_atom_site_label
_atom_site_type_symbol
_atom_site_description
_atom_site_fract_x
_atom_site_fract_y
_atom_site_fract_z
_atom_type_partial_charge
O1    O     O_R   0.377350 0.828520 0.186660 -0.533572
O2    O     O_R   0.622650 0.171480 0.813340 -0.533565
O3    O     O_R   0.122650 0.171480 0.686660 -0.533588
O4    O     O_R   0.877350 0.828520 0.313340 -0.533578
O5    O     O_R   0.877350 0.671480 0.313340 -0.533723
O6    O     O_R   0.122650 0.328520 0.686660 -0.533617
O7    O     O_R   0.622650 0.328520 0.813340 -0.533718
O8    O     O_R   0.377350 0.671480 0.186660 -0.533620
O9    O     O_R   0.707090 0.671930 0.178410 -0.553960
O10   O     O_R   0.292910 0.328070 0.821590 -0.553981
O11   O     O_R   0.792910 0.328070 0.678410 -0.553956
O12   O     O_R   0.207090 0.671930 0.321590 -0.553982
O13   O     O_R   0.207090 0.828070 0.321590 -0.553885
O14   O     O_R   0.792910 0.171930 0.678410 -0.553887
O15   O     O_R   0.292910 0.171930 0.821590 -0.553883
O16   O     O_R   0.707090 0.828070 0.178410 -0.553883
C1    C     C_R   0.540047 0.644321 0.162617 0.895297
C2    C     C_R   0.459952 0.355682 0.837379 0.895386
C3    C     C_R   0.959952 0.355679 0.662616 0.895295
C4    C     C_R   0.040048 0.644317 0.337379 0.895386
C5    C     C_R   0.040050 0.855676 0.337386 0.895313
C6    C     C_R   0.959950 0.144324 0.662614 0.895317
C7    C     C_R   0.459950 0.144324 0.837386 0.895295
C8    C     C_R   0.540050 0.855676 0.162614 0.895302
O17   O     O_3   0.543850 0.750000 0.294270 -0.277220
O18   O     O_3   0.456150 0.250000 0.705730 -0.277160
O19   O     O_3   0.956150 0.250000 0.794270 -0.277210
O20   O     O_3   0.043850 0.750000 0.205730 -0.277151
V1    V     V_3+5 0.818700 0.750000 0.241790 1.252914
V2    V     V_3+5 0.181300 0.250000 0.758210 1.252909
V3    V     V_3+5 0.681300 0.250000 0.741790 1.252917
V4    V     V_3+5 0.318700 0.750000 0.258210 1.252906
C9    C     C_R   0.957757 0.419278 0.610735 -0.140967
C10   C     C_R   0.042242 0.580709 0.389249 -0.140991
C11   C     C_R   0.542240 0.580720 0.110738 -0.140969
C12   C     C_R   0.457760 0.419290 0.889251 -0.140985
C13   C     C_R   0.457744 0.080734 0.889274 -0.141091
C14   C     C_R   0.542257 0.919266 0.110727 -0.141092
C15   C     C_R   0.042255 0.919267 0.389273 -0.141093
C16   C     C_R   0.957745 0.080733 0.610728 -0.141092
C17   C     C_R   0.215290 0.476921 0.447026 -0.091257
C18   C     C_R   0.784683 0.523053 0.552949 -0.091256
C19   C     C_R   0.284714 0.523081 0.947025 -0.091257
C20   C     C_R   0.715307 0.476940 0.052957 -0.091254
C21   C     C_R   0.715449 0.022995 0.052915 -0.091229
C22   C     C_R   0.284551 0.977006 0.947086 -0.091225
C23   C     C_R   0.784572 0.976995 0.552921 -0.091229
C24   C     C_R   0.215429 0.023004 0.447080 -0.091226
C25   C     C_R   0.197939 0.528186 0.390787 0.322719
C26   C     C_R   0.802028 0.471782 0.609181 0.322755
C27   C     C_R   0.302063 0.471814 0.890787 0.322707
C28   C     C_R   0.697961 0.528213 0.109188 0.322772
C29   C     C_R   0.698067 0.971727 0.109142 0.322815
C30   C     C_R   0.301930 0.028275 0.890859 0.322814
C31   C     C_R   0.801949 0.028265 0.609149 0.322815
C32   C     C_R   0.198054 0.971733 0.390853 0.322815
C33   C     C_R   0.902888 0.577214 0.442945 -0.101160
C34   C     C_R   0.097120 0.422775 0.557042 -0.100969
C35   C     C_R   0.597112 0.422782 0.942949 -0.101151
C36   C     C_R   0.402883 0.577225 0.057042 -0.100991
C37   C     C_R   0.402831 0.922796 0.057058 -0.100700
C38   C     C_R   0.597172 0.077203 0.942941 -0.100685
C39   C     C_R   0.097159 0.077209 0.557055 -0.100745
C40   C     C_R   0.902838 0.922792 0.442944 -0.100725
C41   C     C_R   0.920874 0.524969 0.498743 0.028040
C42   C     C_R   0.079124 0.475016 0.501240 0.027989
C43   C     C_R   0.579124 0.475027 0.998748 0.028036
C44   C     C_R   0.420878 0.524984 0.001241 0.027993
C45   C     C_R   0.420827 0.975043 0.001262 0.027913
C46   C     C_R   0.579175 0.024956 0.998738 0.027911
C47   C     C_R   0.079165 0.024960 0.501260 0.027925
C48   C     C_R   0.920833 0.975040 0.498740 0.027923
H1    H     H_    0.215712 0.382886 0.557245 0.097113
H2    H     H_    0.784304 0.617106 0.442746 0.097002
H3    H     H_    0.284296 0.617117 0.057242 0.097104
H4    H     H_    0.715693 0.382887 0.942752 0.096998
H5    H     H_    0.715826 0.117066 0.942720 0.097351
H6    H     H_    0.284179 0.882933 0.057279 0.097346
H7    H     H_    0.784196 0.882924 0.442727 0.097325
H8    H     H_    0.215799 0.117077 0.557272 0.097317
H9    H     H_    0.334809 0.437490 0.447834 0.117164
H10   H     H_    0.665131 0.562469 0.552139 0.117061
H11   H     H_    0.165197 0.562514 0.947830 0.117159
H12   H     H_    0.834854 0.437521 0.052149 0.117064
H13   H     H_    0.835094 0.062370 0.052089 0.116956
H14   H     H_    0.164903 0.937632 0.947912 0.116956
H15   H     H_    0.664940 0.937614 0.552099 0.116965
H16   H     H_    0.335063 0.062384 0.447902 0.116963
N1    N     N_R   0.661856 0.475016 0.664847 0.097013
O21   O     O_R   0.484150 0.493262 0.650880 -0.337040
O22   O     O_R   0.716635 0.471236 0.730283 -0.287312
N2    N     N_R   0.338017 0.524909 0.335087 0.096994
O23   O     O_R   0.515552 0.506369 0.348979 -0.336925
O24   O     O_R   0.283180 0.528855 0.269670 -0.287292
N3    N     N_R   0.838121 0.524977 0.164856 0.097017
O25   O     O_R   0.015809 0.506725 0.150894 -0.337037
O26   O     O_R   0.783344 0.528762 0.230290 -0.287312
N4    N     N_R   0.161979 0.475090 0.835088 0.096981
O27   O     O_R   0.984413 0.493617 0.848983 -0.336925
O28   O     O_R   0.216831 0.471151 0.769668 -0.287290
N5    N     N_R   0.161663 0.025104 0.835233 0.097017
O29   O     O_R   0.983770 0.007374 0.849292 -0.337428
O30   O     O_R   0.216326 0.028580 0.769785 -0.287209
N6    N     N_R   0.838325 0.974902 0.164771 0.097017
O31   O     O_R   0.016208 0.992644 0.150719 -0.337423
O32   O     O_R   0.783657 0.971419 0.230218 -0.287204
N7    N     N_R   0.338305 0.974911 0.335222 0.097011
O33   O     O_R   0.516181 0.992678 0.349271 -0.337411
O34   O     O_R   0.283631 0.971410 0.269776 -0.287200
N8    N     N_R   0.661709 0.025082 0.664784 0.097012
O35   O     O_R   0.483849 0.007296 0.650743 -0.337402
O36   O     O_R   0.716389 0.028593 0.730228 -0.287195

loop_
_geom_bond_atom_site_label_1
_geom_bond_atom_site_label_2
_geom_bond_distance
_ccdc_geom_bond_type
N5    O29   1.301205 A    
C19   H11   1.084117 S    
C38   H5    1.084339 S    
N3    O25   1.301759 A    
C18   H10   1.084111 S    
O14   V3    1.989520 S    
C12   C35   1.406412 A    
N6    O32   1.300626 A    
C13   C38   1.406383 A    
O5    C4    1.309140 A    
O6    C3    1.309142 A    
O11   C3    1.293063 A    
C9    C34   1.406404 A    
C16   C39   1.406383 A    
O20   V1    1.705564 S    
C29   N6    1.437222 S    
N4    O27   1.301910 A    
C38   C46   1.411902 A    
C28   N3    1.437359 S    
N8    O35   1.301147 A    
C22   C45   1.397550 A    
C30   N5    1.437218 S    
C35   C43   1.411892 A    
C34   C42   1.411911 A    
C19   C44   1.397558 A    
C18   C41   1.397553 A    
C8    C14   1.496073 S    
N7    O33   1.301203 A    
C24   H16   1.084103 S    
N1    O22   1.300911 A    
O4    V1    1.985816 S    
O9    V1    1.989486 S    
C14   C37   1.406382 A    
C4    C10   1.496106 S    
C20   C28   1.406508 A    
O17   V4    1.705560 S    
O15   C7    1.293061 A    
C17   H9    1.084103 S    
O18   V3    1.705560 S    
N5    O30   1.300645 A    
O12   V4    1.989495 S    
O19   V2    1.705564 S    
N7    O34   1.300641 A    
C27   N4    1.437460 S    
C22   C30   1.406429 A    
C17   C25   1.406555 A    
N6    O31   1.301160 A    
O5    V1    1.985840 S    
C39   H8    1.084339 S    
O17   V1    2.151563 S    
O7    V3    1.985834 S    
C20   C43   1.397557 A    
O19   V3    2.151557 S    
C43   C44   1.410689 A    
O8    V4    1.985836 S    
O20   V4    2.151557 S    
C3    C9    1.496109 S    
C9    C26   1.425641 A    
C7    C13   1.496074 S    
O13   V4    1.989519 S    
C21   C29   1.406432 A    
O1    V4    1.985824 S    
C11   C36   1.406404 A    
C23   H15   1.084102 S    
C33   H2    1.084344 S    
O3    V2    1.985817 S    
C21   H13   1.084103 S    
C32   N7    1.437227 S    
C15   C40   1.406384 A    
C10   C33   1.406399 A    
O10   V2    1.989485 S    
C26   N1    1.437377 S    
C15   C32   1.425543 A    
C5    C15   1.496070 S    
C37   H6    1.084340 S    
O7    C2    1.309139 A    
C6    C16   1.496070 S    
O12   C4    1.293063 A    
N2    O24   1.300852 A    
O13   C5    1.293062 A    
C12   C27   1.425692 A    
C18   C26   1.406505 A    
C13   C30   1.425540 A    
O9    C1    1.293062 A    
O6    V2    1.985838 S    
C39   C47   1.411898 A    
O18   V2    2.151563 S    
N4    O28   1.300920 A    
C31   N8    1.437232 S    
C40   H7    1.084338 S    
C25   N2    1.437438 S    
C11   C28   1.425636 A    
O15   V2    1.989522 S    
C23   C31   1.406438 A    
C37   C45   1.411901 A    
C24   C32   1.406434 A    
C10   C25   1.425673 A    
C21   C46   1.397551 A    
C33   C41   1.411891 A    
C20   H12   1.084115 S    
C16   C31   1.425545 A    
N3    O26   1.300876 A    
C17   C42   1.397547 A    
C1    C11   1.496099 S    
C36   H3    1.084353 S    
O8    C1    1.309139 A    
O14   C6    1.293061 A    
O16   V1    1.989521 S    
C47   C48   1.410726 A    
O4    C5    1.309127 A    
C19   C27   1.406546 A    
C14   C29   1.425542 A    
O10   C2    1.293063 A    
N2    O23   1.301754 A    
C40   C48   1.411899 A    
C45   C46   1.410730 A    
N8    O36   1.300619 A    
C23   C48   1.397552 A    
O11   V3    1.989493 S    
C36   C44   1.411905 A    
O1    C8    1.309130 A    
O16   C8    1.293062 A    
C41   C42   1.410676 A    
O2    C7    1.309131 A    
O2    V3    1.985825 S    
O3    C6    1.309128 A    
C24   C47   1.397552 A    
N1    O21   1.301867 A    
C2    C12   1.496101 S    
C35   H4    1.084357 S    
C34   H1    1.084349 S    
C22   H14   1.084104 S    
