data_mof_unit_25831.cif
_audit_creation_date              2012-12-10T18:19:05-0500
_audit_creation_method            fapswitch 2.2
_symmetry_space_group_name_H-M    P1
_symmetry_Int_Tables_number       1
_space_group_crystal_system       triclinic
_cell_length_a                    14.936325
_cell_length_b                    14.186536
_cell_length_c                    11.527541
_cell_angle_alpha                 89.254611
_cell_angle_beta                  87.248906
_cell_angle_gamma                 88.741902
_cell_volume                      2439.04681961

loop_
_atom_site_label
_atom_site_type_symbol
_atom_type_description
_atom_site_fract_x
_atom_site_fract_y
_atom_site_fract_z
_atom_type_partial_charge
C1    C     C_R   0.327045 0.500665 0.501863 0.874283
C2    C     C_R   0.445518 0.201399 0.581123 0.192029
C3    C     C_R   0.447800 0.800220 0.581072 0.206604
C4    C     C_R   0.546872 0.199137 0.412975 0.213337
C5    C     C_R   0.456167 0.899905 0.588484 -0.038015
C6    C     C_R   0.528788 0.100545 0.396377 -0.066165
C7    C     C_R   0.530410 0.899365 0.398806 -0.049152
C8    C     C_R   0.441548 0.100279 0.579581 -0.058764
C9    C     C_R   0.491480 0.950045 0.491941 -0.019418
C10   C     C_R   0.488343 0.050598 0.489872 -0.036336
C11   C     C_R   0.420683 0.951809 0.683761 0.139271
C12   C     C_R   0.673073 0.499025 0.501089 0.874522
C13   C     C_R   0.546066 0.049671 0.289697 0.161286
C14   C     C_R   0.543393 0.947959 0.290925 0.115464
C15   C     C_R   0.392006 0.045540 0.664349 0.161699
C16   C     C_R   0.499868 0.500522 0.282104 0.896772
C17   C     C_R   0.499709 0.499522 0.717921 0.899115
C18   C     C_1   0.499815 0.501255 0.161587 -0.201845
C19   C     C_1   0.499695 0.498738 0.838436 -0.191061
C20   C     C_1   0.499778 0.500542 0.059356 0.002524
C21   C     C_1   0.499720 0.499249 0.940675 -0.003433
C22   C     C_R   0.818630 0.432997 0.436208 -0.242327
C23   C     C_R   0.911507 0.431767 0.435971 0.080653
C24   C     C_R   0.182351 0.556244 0.584453 -0.248913
C25   C     C_R   0.768717 0.496466 0.505653 -0.064033
C26   C     C_R   0.231502 0.500723 0.504434 -0.059862
C27   C     C_R   0.809653 0.556670 0.580378 -0.238965
C28   C     C_R   0.190176 0.439959 0.431119 -0.227557
C29   C     C_R   0.902219 0.554967 0.584603 0.092396
C30   C     C_R   0.097834 0.436305 0.434273 0.088856
C31   C     C_R   0.953531 0.493870 0.510680 0.029237
C32   C     C_R   0.046763 0.495348 0.510988 0.030376
C33   C     C_3   0.637056 0.760007 0.366566 -0.393066
C34   C     C_R   0.089081 0.555648 0.587738 0.080311
C35   C     C_3   0.709371 0.767488 0.455332 -0.802806
C36   C     C_3   0.401435 0.252884 0.684136 -0.326474
C37   C     C_3   0.458480 0.244936 0.790769 -0.848218
C38   C     C_3   0.361848 0.758908 0.632118 -0.381331
C39   C     C_3   0.287265 0.777154 0.547333 -0.808463
C40   C     C_3   0.639492 0.232089 0.370490 -0.341570
C41   C     C_3   0.643662 0.300700 0.266290 -0.776788
C42   C     C_3   0.447243 0.923703 0.804754 -0.421329
C43   C     C_3   0.543817 0.951482 0.822839 -0.863059
C44   C     C_3   0.554835 0.103102 0.174207 -0.381046
C45   C     C_R   0.943906 0.613300 0.661522 -0.229771
C46   C     C_3   0.470192 0.162165 0.150536 -0.860836
C47   C     C_3   0.536592 0.891473 0.179199 -0.424984
C48   C     C_3   0.445630 0.906009 0.125108 -0.844833
C49   C     C_3   0.290908 0.060275 0.679149 -0.422387
C50   C     C_3   0.257935 0.072480 0.805905 -0.851606
C51   C     C_R   0.056298 0.374538 0.361577 -0.231240
C52   C     C_R   0.036928 0.613158 0.665004 0.147610
C53   C     C_R   0.963478 0.371091 0.362465 0.155682
C54   C     C_R   0.548904 0.800542 0.416186 0.210735
H1    H     H_    0.784644 0.386750 0.380576 0.176393
H2    H     H_    0.629626 0.686712 0.338207 0.245152
H3    H     H_    0.662915 0.799580 0.289031 0.181207
H4    H     H_    0.528977 0.264037 0.768575 0.277475
H5    H     H_    0.430395 0.292657 0.859564 0.246025
H6    H     H_    0.458225 0.171834 0.825966 0.244955
H7    H     H_    0.383934 0.325745 0.663148 0.248037
H8    H     H_    0.334281 0.228080 0.708419 0.188423
H9    H     H_    0.302820 0.741550 0.463432 0.278898
H10   H     H_    0.222425 0.752213 0.584882 0.266161
H11   H     H_    0.279150 0.853900 0.529571 0.237440
H12   H     H_    0.217766 0.597698 0.644627 0.172891
H13   H     H_    0.369771 0.683661 0.653733 0.248684
H14   H     H_    0.339156 0.791851 0.715116 0.189794
H15   H     H_    0.582729 0.300024 0.215853 0.267236
H16   H     H_    0.654647 0.373654 0.293449 0.255795
H17   H     H_    0.701527 0.281552 0.206615 0.242943
H18   H     H_    0.673563 0.262227 0.444216 0.222519
H19   H     H_    0.682688 0.169582 0.347450 0.181332
H20   H     H_    0.590482 0.915445 0.758946 0.264385
H21   H     H_    0.551076 0.028902 0.812905 0.259753
H22   H     H_    0.562843 0.930203 0.911301 0.253624
H23   H     H_    0.769247 0.603725 0.636003 0.147282
H24   H     H_    0.402713 0.958987 0.871233 0.219841
H25   H     H_    0.442768 0.846683 0.820262 0.203730
H26   H     H_    0.455790 0.215927 0.218073 0.266029
H27   H     H_    0.478992 0.198731 0.065131 0.246645
H28   H     H_    0.410709 0.116935 0.149013 0.260026
H29   H     H_    0.614951 0.146251 0.170265 0.212845
H30   H     H_    0.567855 0.056672 0.099066 0.210027
H31   H     H_    0.390424 0.904069 0.193172 0.267842
H32   H     H_    0.441893 0.973145 0.076016 0.261688
H33   H     H_    0.435348 0.848669 0.062686 0.248009
H34   H     H_    0.230255 0.395826 0.371420 0.150553
H35   H     H_    0.593113 0.906344 0.116223 0.187907
H36   H     H_    0.540624 0.814562 0.195455 0.212324
H37   H     H_    0.254382 0.002790 0.850582 0.259292
H38   H     H_    0.302441 0.118333 0.853534 0.259817
H39   H     H_    0.189378 0.104498 0.809204 0.264569
H40   H     H_    0.266822 0.119692 0.624420 0.197749
H41   H     H_    0.257050 0.998063 0.645024 0.215153
H42   H     H_    0.904051 0.658859 0.719499 0.174208
H43   H     H_    0.096130 0.328720 0.303864 0.174379
H44   H     H_    0.685811 0.740563 0.542052 0.268945
H45   H     H_    0.770258 0.726739 0.425292 0.254967
H46   H     H_    0.727541 0.842450 0.464730 0.242594
I1    I     I_    0.091612 0.701740 0.789963 -0.435026
I2    I     I_    0.909086 0.272669 0.248912 -0.442924
N1    N     N_R   0.500000 0.750030 0.500000 -0.117334
N2    N     N_R   0.500000 0.249970 0.500000 -0.127916
O1    O     O_R   0.367850 0.580280 0.500030 -0.622093
O2    O     O_R   0.632150 0.419720 0.499970 -0.622638
O3    O     O_R   0.632150 0.580280 0.499970 -0.620021
O4    O     O_R   0.367850 0.419720 0.500030 -0.642341
O5    O     O_R   0.500010 0.580270 0.334450 -0.622486
O6    O     O_R   0.499990 0.419730 0.665550 -0.616892
O7    O     O_R   0.499990 0.580270 0.665550 -0.630805
O8    O     O_R   0.500010 0.419730 0.334450 -0.607067
Zn1   Zn    Zn3+2 0.500000 0.607200 0.500000 0.926017
Zn2   Zn    Zn3+2 0.500000 0.392800 0.500000 0.928877

loop_
_geom_bond_atom_site_label_1
_geom_bond_atom_site_label_2
_ccdc_geom_bond_type
C51   H43   S    
C30   C32   A    
C30   C51   A    
C27   C29   A    
C39   H11   S    
C44   H29   S    
C17   O6    A    
O8    Zn2   S    
C22   H1    S    
C39   H10   S    
O2    Zn2   S    
O1    Zn1   S    
C36   C37   S    
N1    Zn1   S    
C24   C26   A    
C5    C11   A    
C38   C39   S    
C35   H45   S    
C3    N1    A    
C43   H22   S    
C40   H19   S    
C11   C42   S    
O4    Zn2   S    
O3    Zn1   S    
C17   C19   S    
C46   H28   S    
C11   C15   A    
C7    C14   A    
C47   C48   S    
C3    C38   S    
C22   C25   A    
C28   H34   S    
C49   H40   S    
C35   H44   S    
C9    C10   A    
O6    Zn2   S    
C37   H4    S    
C24   H12   S    
C41   H17   S    
C43   H20   S    
C42   H25   S    
C13   C14   A    
C47   H35   S    
C36   H8    S    
C17   O7    A    
C44   C46   S    
C16   O5    A    
C23   C53   A    
C43   H21   S    
C52   I1    S    
C4    C40   S    
C54   N1    A    
C4    C6    A    
C45   C52   A    
C27   H23   S    
C24   C34   A    
C29   C45   A    
C51   C53   A    
C32   C34   A    
C5    C9    A    
C46   H27   S    
C31   C32   A    
C2    N2    A    
C53   I2    S    
C20   C21   S    
C48   H33   S    
O7    Zn1   S    
C16   C18   S    
C49   H41   S    
C37   H5    S    
N2    Zn2   S    
C50   H38   S    
C40   C41   S    
C38   H14   S    
C42   H24   S    
C8    C15   A    
C1    C26   S    
C47   H36   S    
C48   H32   S    
C42   C43   S    
C36   H7    S    
C16   O8    A    
C41   H15   S    
C2    C36   S    
C33   C54   S    
C7    C9    A    
C33   H3    S    
C40   H18   S    
C19   C21   T    
C22   C23   A    
C34   C52   A    
C2    C8    A    
C3    C5    A    
C6    C10   A    
C12   O3    A    
C50   H39   S    
C14   C47   S    
O5    Zn1   S    
C25   C27   A    
C39   H9    S    
C26   C28   A    
C44   H30   S    
C12   C25   S    
C28   C30   A    
C29   C31   A    
C6    C13   A    
C12   O2    A    
C33   H2    S    
C4    N2    A    
C33   C35   S    
C18   C20   T    
C15   C49   S    
C37   H6    S    
C1    O4    A    
C50   H37   S    
C38   H13   S    
C8    C10   A    
C49   C50   S    
C1    O1    A    
C48   H31   S    
C46   H26   S    
C7    C54   A    
C45   H42   S    
C13   C44   S    
C35   H46   S    
C23   C31   A    
C41   H16   S    
