data_mof_unit_42844.cif
_audit_creation_date              2012-12-10T17:40:59-0500
_audit_creation_method            fapswitch 2.2
_symmetry_space_group_name_H-M    P1
_symmetry_Int_Tables_number       1
_space_group_crystal_system       triclinic
_cell_length_a                    14.898901
_cell_length_b                    15.05602
_cell_length_c                    9.952666
_cell_angle_alpha                 90.02652
_cell_angle_beta                  91.326549
_cell_angle_gamma                 90.695612
_cell_volume                      2231.80017976

loop_
_atom_site_label
_atom_site_type_symbol
_atom_type_description
_atom_site_fract_x
_atom_site_fract_y
_atom_site_fract_z
_atom_type_partial_charge
C1    C     C_R   0.394485 0.869206 0.500436 0.938432
C2    C     C_R   0.383707 0.122907 0.498872 1.021589
C3    C     C_R   0.894485 0.369206 0.500436 0.938424
C4    C     C_R   0.883706 0.622906 0.498872 1.021608
C5    C     C_R   0.236301 0.172945 0.446607 -0.091113
C6    C     C_R   0.318198 0.746773 0.383558 -0.242771
C7    C     C_R   0.736295 0.672939 0.446627 -0.091100
C8    C     C_R   0.818202 0.246768 0.383558 -0.242768
C9    C     C_R   0.671634 0.736673 0.445289 -0.197484
C10   C     C_R   0.748995 0.186188 0.386311 -0.242945
C11   C     C_R   0.171640 0.236679 0.445269 -0.197477
C12   C     C_R   0.248987 0.686198 0.386312 -0.242903
C13   C     C_R   0.690886 0.819012 0.502953 -0.066888
C14   C     C_R   0.713588 0.159728 0.509340 -0.073829
C15   C     C_R   0.190887 0.319013 0.502954 -0.066915
C16   C     C_R   0.213582 0.659735 0.509342 -0.073786
C17   C     C_R   0.342527 0.050316 0.131337 0.457719
C18   C     C_R   0.842527 0.550316 0.131339 0.457734
C19   C     C_R   0.283963 0.107791 0.062359 0.263930
C20   C     C_R   0.783964 0.607791 0.062361 0.263935
C21   C     C_R   0.286340 0.109172 0.921619 0.167135
C22   C     C_R   0.786340 0.609171 0.921622 0.167130
C23   C     C_R   0.342024 0.048525 0.859126 0.503766
C24   C     C_R   0.842023 0.548525 0.859127 0.503765
C25   C     C_R   0.422992 0.023703 0.925668 -0.091598
C26   C     C_R   0.922992 0.523703 0.925668 -0.091598
C27   C     C_R   0.423264 0.024542 0.069416 -0.099589
C28   C     C_R   0.923264 0.524541 0.069416 -0.099593
C29   C     C_R   0.573016 0.975755 0.073843 -0.098520
C30   C     C_R   0.073016 0.475755 0.073843 -0.098523
C31   C     C_R   0.628460 0.111356 0.502607 0.922742
C32   C     C_R   0.620645 0.881267 0.500976 0.826569
C33   C     C_R   0.128458 0.611359 0.502607 0.922765
C34   C     C_R   0.120646 0.381268 0.500976 0.826573
C35   C     C_R   0.572894 0.975522 0.931100 -0.073033
C36   C     C_R   0.072894 0.475523 0.931100 -0.073037
C37   C     C_R   0.435804 0.308248 0.570074 0.525417
C38   C     C_R   0.395599 0.745407 0.741123 0.563504
C39   C     C_R   0.935811 0.808257 0.570006 0.525421
C40   C     C_R   0.895600 0.245405 0.741124 0.563492
C41   C     C_R   0.452854 0.389841 0.634271 -0.220218
C42   C     C_R   0.369684 0.712717 0.865702 -0.261387
C43   C     C_R   0.952870 0.889862 0.634167 -0.220225
C44   C     C_R   0.869686 0.212713 0.865701 -0.261389
C45   C     C_R   0.882968 0.947502 0.658239 -0.229317
C46   C     C_R   0.793114 0.160776 0.874714 -0.276962
C47   C     C_R   0.382949 0.447480 0.658337 -0.229348
C48   C     C_R   0.293110 0.660784 0.874717 -0.276980
C49   C     C_R   0.796040 0.925099 0.615334 -0.190177
C50   C     C_R   0.742751 0.139977 0.759444 -0.190106
C51   C     C_R   0.296027 0.425086 0.615392 -0.190185
C52   C     C_R   0.242745 0.639987 0.759448 -0.190125
C53   C     C_R   0.776715 0.841576 0.555863 0.049128
C54   C     C_R   0.762602 0.178170 0.632236 0.048556
C55   C     C_R   0.276709 0.341571 0.555893 0.049149
C56   C     C_R   0.262597 0.678176 0.632237 0.048538
C57   C     C_R   0.345863 0.279939 0.542351 -0.028039
C58   C     C_R   0.337356 0.736409 0.626157 -0.024212
C59   C     C_R   0.845867 0.779944 0.542320 -0.028052
C60   C     C_R   0.837357 0.236407 0.626157 -0.024216
C61   C     C_R   0.322256 0.193993 0.494717 -0.103617
C62   C     C_R   0.352482 0.781635 0.503481 -0.129101
C63   C     C_R   0.822254 0.693992 0.494715 -0.103563
C64   C     C_R   0.852483 0.281633 0.503481 -0.129098
H1    H     H_    0.219305 0.106790 0.410589 0.179935
H2    H     H_    0.339484 0.771551 0.287469 0.162292
H3    H     H_    0.719296 0.606780 0.410625 0.179905
H4    H     H_    0.839487 0.271548 0.287469 0.162293
H5    H     H_    0.632628 0.955437 0.879996 0.127763
H6    H     H_    0.132628 0.455438 0.879996 0.127765
H7    H     H_    0.521240 0.410561 0.658227 0.149758
H8    H     H_    0.412690 0.722565 0.953825 0.154620
H9    H     H_    0.021259 0.910587 0.658092 0.149753
H10   H     H_    0.912691 0.222561 0.953825 0.154622
H11   H     H_    0.896864 0.011593 0.704055 0.169801
H12   H     H_    0.775856 0.131499 0.970247 0.162309
H13   H     H_    0.396840 0.511564 0.704178 0.169810
H14   H     H_    0.275850 0.631511 0.970252 0.162309
H15   H     H_    0.744653 0.973887 0.628054 0.140290
H16   H     H_    0.692386 0.090242 0.775727 0.179194
H17   H     H_    0.244641 0.473874 0.628108 0.140309
H18   H     H_    0.192376 0.590256 0.775737 0.179202
H19   H     H_    0.605170 0.720667 0.404826 0.136565
H20   H     H_    0.718797 0.165845 0.290930 0.160733
H21   H     H_    0.105180 0.220677 0.404789 0.136580
H22   H     H_    0.218787 0.665858 0.290931 0.160715
H23   H     H_    0.633035 0.956403 0.129000 0.143170
H24   H     H_    0.133036 0.456404 0.129000 0.143170
N1    N     N_R   0.498810 0.000000 0.142780 -0.078865
N2    N     N_R   0.998810 0.500000 0.142780 -0.078867
N3    N     N_R   0.498740 0.000000 0.857170 -0.069376
N4    N     N_R   0.998740 0.500000 0.857170 -0.069376
O1    O     O_R   0.408390 0.908380 0.614690 -0.524647
O2    O     O_R   0.408390 0.091620 0.614690 -0.562143
O3    O     O_R   0.908390 0.408380 0.614690 -0.524646
O4    O     O_R   0.908390 0.591620 0.614690 -0.562164
O5    O     O_R   0.408370 0.908380 0.385360 -0.578177
O6    O     O_R   0.408370 0.091620 0.385360 -0.574133
O7    O     O_R   0.908370 0.408380 0.385360 -0.578179
O8    O     O_R   0.908370 0.591620 0.385360 -0.574104
O9    O     O_R   0.591620 0.091610 0.614640 -0.631582
O10   O     O_R   0.591620 0.908390 0.614640 -0.606879
O11   O     O_R   0.091620 0.591610 0.614640 -0.631611
O12   O     O_R   0.091620 0.408390 0.614640 -0.606877
O13   O     O_R   0.591610 0.091610 0.385310 -0.631433
O14   O     O_R   0.591610 0.908390 0.385310 -0.637452
O15   O     O_R   0.091610 0.591610 0.385310 -0.631442
O16   O     O_R   0.091610 0.408390 0.385310 -0.637451
Zn1   Zn    Zn3+2 0.500010 1.000000 0.653130 1.022843
Zn2   Zn    Zn3+2 0.000010 0.500000 0.653130 1.022832
Zn3   Zn    Zn3+2 0.499980 0.000000 0.346870 0.981576
Zn4   Zn    Zn3+2 0.999980 0.500000 0.346870 0.981582
O17   O     O_3   0.227322 0.157509 0.843408 -0.764861
H25   H     H_    0.201615 0.204727 0.899655 0.364610
O18   O     O_3   0.727322 0.657510 0.843411 -0.764864
H26   H     H_    0.701615 0.704727 0.899659 0.364607
O19   O     O_3   0.307994 0.002356 0.749251 -0.526067
C65   C     C_3   0.245864 0.937465 0.792697 -0.294033
H27   H     H_    0.185280 0.968544 0.834843 0.151913
H28   H     H_    0.277170 0.891517 0.867255 0.142186
H29   H     H_    0.223236 0.897163 0.704641 0.192122
O20   O     O_3   0.807993 0.502357 0.749252 -0.526068
C66   C     C_3   0.745865 0.437464 0.792698 -0.294025
H30   H     H_    0.685280 0.468543 0.834847 0.151907
H31   H     H_    0.777173 0.391515 0.867253 0.142185
H32   H     H_    0.723236 0.397164 0.704640 0.192127
O21   O     O_3   0.507328 0.262973 0.519078 -0.630464
C67   C     C_3   0.525941 0.300005 0.391951 -0.347551
H33   H     H_    0.467283 0.292959 0.321143 0.169918
H34   H     H_    0.582189 0.264207 0.347063 0.198669
H35   H     H_    0.547193 0.370968 0.400635 0.158056
O22   O     O_3   0.482165 0.777253 0.730091 -0.598328
C68   C     C_3   0.538289 0.703983 0.710324 -0.320389
H36   H     H_    0.520049 0.668099 0.615530 0.144798
H37   H     H_    0.537346 0.657443 0.797199 0.171742
H38   H     H_    0.607729 0.729119 0.701959 0.247934
O23   O     O_3   0.007327 0.762972 0.519004 -0.630455
C69   C     C_3   0.025951 0.800010 0.391875 -0.347641
H39   H     H_    0.967264 0.793107 0.321116 0.169858
H40   H     H_    0.082093 0.764125 0.346893 0.198704
H41   H     H_    0.047345 0.870920 0.400601 0.158106
O24   O     O_3   0.982166 0.277253 0.730093 -0.598321
C70   C     C_3   0.038289 0.203985 0.710308 -0.320383
H42   H     H_    0.020049 0.168112 0.615505 0.144792
H43   H     H_    0.037344 0.157435 0.797170 0.171742
H44   H     H_    0.107729 0.229121 0.701951 0.247932
O25   O     O_3   0.307630 0.001978 0.235725 -0.538552
C71   C     C_3   0.261517 0.926938 0.181590 -0.353241
H45   H     H_    0.308887 0.880846 0.133461 0.161888
H46   H     H_    0.208302 0.945215 0.106902 0.122861
H47   H     H_    0.227713 0.891547 0.264325 0.192560
O26   O     O_3   0.807630 0.501977 0.235726 -0.538554
C72   C     C_3   0.761519 0.426937 0.181590 -0.353242
H48   H     H_    0.808890 0.380845 0.133462 0.161890
H49   H     H_    0.708304 0.445213 0.106901 0.122859
H50   H     H_    0.727715 0.391545 0.264324 0.192557
O27   O     O_3   0.222140 0.156693 0.132316 -0.578417
C73   C     C_3   0.136284 0.115862 0.123339 -0.315079
H51   H     H_    0.129457 0.065370 0.203727 0.177655
H52   H     H_    0.120242 0.085162 0.023686 0.155563
H53   H     H_    0.085097 0.167283 0.140583 0.180763
O28   O     O_3   0.722143 0.656696 0.132320 -0.578408
C74   C     C_3   0.636288 0.615864 0.123352 -0.315065
H54   H     H_    0.629467 0.565369 0.203737 0.177661
H55   H     H_    0.620240 0.585169 0.023698 0.155556
H56   H     H_    0.585101 0.667284 0.140608 0.180760

loop_
_geom_bond_atom_site_label_1
_geom_bond_atom_site_label_2
_ccdc_geom_bond_type
C43   H9    S    
C70   H44   S    
C39   O23   S    
C58   C62   A    
O27   C73   S    
C40   C60   A    
C40   O24   S    
O15   Zn4   S    
C13   C32   S    
C74   H54   S    
C33   O15   A    
C71   H47   S    
N2    Zn4   S    
C14   C31   S    
C30   N2    A    
N4    Zn2   S    
C1    C62   S    
C46   H12   S    
C53   C59   A    
C66   H30   S    
C54   C60   A    
C3    C64   S    
C2    O6    A    
C4    C63   S    
C50   C54   A    
O11   Zn2   S    
C31   O9    A    
C74   H55   S    
C71   H46   S    
C5    C11   A    
C6    C12   A    
O5    Zn3   S    
C66   H31   S    
O9    Zn1   S    
C70   H42   S    
C8    C64   A    
C70   H43   S    
C48   H14   S    
C9    C13   A    
C65   H27   S    
C73   H53   S    
C4    O4    A    
C11   C15   A    
O25   C71   S    
C44   C46   A    
O22   C68   S    
C38   O22   S    
C68   H38   S    
C40   C44   A    
C45   C49   A    
C72   H49   S    
C51   H17   S    
C15   C34   S    
C18   C20   A    
C2    C61   S    
C41   H7    S    
C36   N4    A    
O13   Zn3   S    
C39   C59   A    
C32   O14   A    
C67   H33   S    
C73   H52   S    
C31   O13   A    
C18   O26   S    
C29   N1    A    
C36   H6    S    
C46   C50   A    
C13   C53   A    
O14   Zn3   S    
C25   N3    A    
C19   O27   S    
C12   C16   A    
C2    O2    A    
C74   H56   S    
C18   C28   A    
C71   H45   S    
C21   O17   S    
C10   C14   A    
C1    O5    A    
C66   H32   S    
C47   C51   A    
O4    Zn2   S    
C69   H41   S    
C34   O12   A    
O16   Zn4   S    
C67   H34   S    
C65   H29   S    
C17   C27   A    
C42   C48   A    
C52   H18   S    
C16   C56   A    
C3    O7    A    
C16   C33   S    
C6    H2    S    
C20   O28   S    
C42   H8    S    
C41   C47   A    
C5    C61   A    
C38   C58   A    
C72   H50   S    
C44   H10   S    
C43   C45   A    
C7    C63   A    
C45   H11   S    
C69   H40   S    
C9    H19   S    
C5    H1    S    
C22   O18   S    
C14   C54   A    
C20   C22   A    
O8    Zn4   S    
C55   C57   A    
C68   H36   S    
C22   C24   A    
C25   C27   A    
C47   H13   S    
C30   H24   S    
O21   C67   S    
C67   H35   S    
O17   H25   S    
O23   C69   S    
C7    C9    A    
N1    Zn3   S    
O6    Zn3   S    
C17   O25   S    
C33   O11   A    
C26   C28   A    
C8    C10   A    
C24   C26   A    
O3    Zn2   S    
C50   H16   S    
C23   O19   S    
C39   C43   A    
C57   C61   A    
C32   O10   A    
C30   C36   A    
O28   C74   S    
C24   O20   S    
C29   C35   A    
O2    Zn1   S    
C59   C63   A    
C4    O8    A    
C12   H22   S    
C60   C64   A    
C34   O16   A    
N3    Zn1   S    
C8    H4    S    
C21   C23   A    
O20   C66   S    
O19   C65   S    
O12   Zn2   S    
C6    C62   A    
C73   H51   S    
C52   C56   A    
C11   H21   S    
C49   C53   A    
O7    Zn4   S    
C10   H20   S    
C17   C19   A    
C3    O3    A    
C56   C58   A    
C27   N1    A    
C51   C55   A    
C23   C25   A    
C37   C41   A    
C65   H28   S    
C29   H23   S    
C69   H39   S    
C7    H3    S    
C38   C42   A    
C49   H15   S    
C48   C52   A    
O26   C72   S    
C35   H5    S    
C1    O1    A    
O1    Zn1   S    
C68   H37   S    
O24   C70   S    
O10   Zn1   S    
C28   N2    A    
C37   O21   S    
C72   H48   S    
C26   N4    A    
C37   C57   A    
O18   H26   S    
C15   C55   A    
C19   C21   A    
C35   N3    A    
