data_mof_unit_42420.cif
_audit_creation_date              2013-03-05T15:59:01-0500
_audit_creation_method            fapswitch 2.2
_symmetry_space_group_name_H-M    P1
_symmetry_Int_Tables_number       1
_space_group_crystal_system       triclinic
_cell_length_a                    7.367836
_cell_length_b                    21.261499
_cell_length_c                    23.581911
_cell_angle_alpha                 89.999976
_cell_angle_beta                  89.996564
_cell_angle_gamma                 89.997414
_cell_volume                      3694.13553616

loop_
_atom_site_label
_atom_site_type_symbol
_atom_site_description
_atom_site_fract_x
_atom_site_fract_y
_atom_site_fract_z
_atom_type_partial_charge
O1    O     O_R   0.365470 0.806380 0.442440 -0.573793
O2    O     O_R   0.134530 0.193620 0.942440 -0.573793
O3    O     O_R   0.865470 0.693620 0.557560 -0.573784
O4    O     O_R   0.634530 0.306380 0.057560 -0.573782
O5    O     O_R   0.035730 0.813790 0.557160 -0.579728
O6    O     O_R   0.464270 0.186210 0.057160 -0.579731
O7    O     O_R   0.535730 0.686210 0.442840 -0.579738
O8    O     O_R   0.964270 0.313790 0.942840 -0.579737
C1    C     C_R   0.203872 0.828428 0.575511 0.956659
C2    C     C_R   0.296121 0.171573 0.075511 0.956668
C3    C     C_R   0.703886 0.671573 0.424490 0.956661
C4    C     C_R   0.796122 0.328427 0.924489 0.956642
O9    O     O_R   0.035760 0.813790 0.442850 -0.577931
O10   O     O_R   0.464240 0.186210 0.942850 -0.577941
O11   O     O_R   0.535760 0.686210 0.557150 -0.577936
O12   O     O_R   0.964240 0.313790 0.057150 -0.577924
O13   O     O_R   0.865450 0.693620 0.442430 -0.572147
O14   O     O_R   0.634550 0.306380 0.942430 -0.572127
O15   O     O_R   0.365450 0.806380 0.557570 -0.572116
O16   O     O_R   0.134550 0.193620 0.057570 -0.572126
C5    C     C_R   0.204006 0.828381 0.424471 0.951916
C6    C     C_R   0.296001 0.171618 0.924471 0.951934
C7    C     C_R   0.704004 0.671619 0.575529 0.951972
C8    C     C_R   0.795988 0.328380 0.075529 0.951945
O17   O     O_3   0.198970 0.710570 0.500000 -0.284513
O18   O     O_3   0.301030 0.289430 0.000000 -0.284499
O19   O     O_3   0.698970 0.789430 0.500000 -0.284499
O20   O     O_3   0.801030 0.210570 0.000000 -0.284509
V1    V     V_3+5 0.924120 0.757310 0.500000 1.255084
V2    V     V_3+5 0.575880 0.242690 0.000000 1.255081
V3    V     V_3+5 0.424120 0.742690 0.500000 1.255061
V4    V     V_3+5 0.075880 0.257310 0.000000 1.255074
C9    C     C_3   0.922511 0.561615 0.748303 0.322082
C10   C     C_3   0.577484 0.438371 0.248331 0.322110
C11   C     C_3   0.422528 0.938390 0.251698 0.322054
C12   C     C_3   0.077476 0.061602 0.751719 0.322032
C13   C     C_3   0.575199 0.544532 0.746889 0.105456
C14   C     C_3   0.924796 0.455451 0.246883 0.105399
C15   C     C_3   0.075211 0.955472 0.253117 0.105474
C16   C     C_3   0.424791 0.044515 0.753111 0.105527
C17   C     C_3   0.589438 0.492180 0.793408 -0.526540
C18   C     C_3   0.910599 0.507805 0.293404 -0.526684
C19   C     C_3   0.089448 0.007825 0.206598 -0.526499
C20   C     C_3   0.410522 0.992163 0.706594 -0.526404
H1    H     H_    0.460133 0.531806 0.719561 0.090424
H2    H     H_    0.039839 0.468174 0.219541 0.090490
H3    H     H_    0.960132 0.968196 0.280446 0.090414
H4    H     H_    0.539887 0.031789 0.780428 0.090356
H5    H     H_    0.554752 0.509345 0.836391 0.259192
H6    H     H_    0.945285 0.490627 0.336383 0.259157
H7    H     H_    0.054762 0.990667 0.163615 0.259191
H8    H     H_    0.445215 0.009312 0.663608 0.259218
H9    H     H_    0.484743 0.456244 0.784964 0.216228
H10   H     H_    0.015282 0.543745 0.284949 0.216208
H11   H     H_    0.984740 0.043758 0.215047 0.216231
H12   H     H_    0.515234 0.956232 0.715034 0.216246
C21   C     C_1   0.788782 0.374456 0.879201 -0.183957
C22   C     C_1   0.711249 0.625540 0.379206 -0.183876
C23   C     C_1   0.288777 0.125546 0.120800 -0.184005
C24   C     C_1   0.211196 0.874452 0.620803 -0.184067
C25   C     C_3   0.750176 0.543734 0.708586 -0.167225
C26   C     C_3   0.749799 0.456250 0.208597 -0.167239
C27   C     C_3   0.250179 0.956271 0.291417 -0.167204
C28   C     C_3   0.249837 0.043718 0.791426 -0.167180
C29   C     C_3   0.927797 0.513785 0.803174 0.350240
C30   C     C_3   0.572320 0.486166 0.303231 0.350269
C31   C     C_3   0.427843 0.986232 0.196836 0.350220
C32   C     C_3   0.072071 0.013736 0.696877 0.350197
C33   C     C_3   0.779561 0.460242 0.794058 -0.095683
C34   C     C_3   0.720462 0.539733 0.294079 -0.095687
C35   C     C_3   0.279559 0.039766 0.205948 -0.095679
C36   C     C_3   0.220419 0.960219 0.705962 -0.095692
C37   C     C_3   0.811169 0.427241 0.735124 0.072140
C38   C     C_3   0.688742 0.572727 0.235149 0.072136
C39   C     C_3   0.311114 0.072769 0.264881 0.072148
C40   C     C_3   0.188938 0.927209 0.764897 0.072197
C41   C     C_3   0.767517 0.472853 0.683385 0.232651
C42   C     C_3   0.732441 0.527132 0.183402 0.232680
C43   C     C_3   0.267489 0.027151 0.316620 0.232614
C44   C     C_3   0.232534 0.972837 0.816632 0.232547
C45   C     C_1   0.784301 0.412886 0.841101 0.199079
C46   C     C_1   0.715740 0.587102 0.341113 0.199454
C47   C     C_1   0.284297 0.087119 0.158902 0.198904
C48   C     C_1   0.215668 0.912875 0.658909 0.198594
C49   C     C_1   0.726667 0.589043 0.660242 0.233377
C50   C     C_1   0.773290 0.410948 0.160248 0.233389
C51   C     C_1   0.226671 0.910960 0.339760 0.233379
C52   C     C_1   0.273362 0.089033 0.839765 0.233388
C53   C     C_1   0.713323 0.626285 0.621326 -0.135542
C54   C     C_1   0.786646 0.373710 0.121328 -0.135497
C55   C     C_1   0.213328 0.873716 0.378675 -0.135574
C56   C     C_1   0.286698 0.126280 0.878677 -0.135613
H13   H     H_    0.957211 0.416770 0.733834 0.137807
H14   H     H_    0.542669 0.583159 0.233875 0.137665
H15   H     H_    0.457143 0.083254 0.266171 0.137850
H16   H     H_    0.042927 0.916702 0.766203 0.137949
N1    N     N_R   0.886503 0.545895 0.858191 0.282386
O21   O     O_R   0.945911 0.522436 0.905775 -0.326859
O22   O     O_R   0.770724 0.591770 0.861958 -0.253361
N2    N     N_R   0.613845 0.454049 0.358225 0.282382
O23   O     O_R   0.555432 0.477700 0.405849 -0.327378
O24   O     O_R   0.729153 0.408027 0.361912 -0.252991
N3    N     N_R   0.386640 0.954122 0.141815 0.282384
O25   O     O_R   0.446470 0.977489 0.094248 -0.326653
O26   O     O_R   0.270713 0.908300 0.138023 -0.253483
N4    N     N_R   0.113112 0.045841 0.641839 0.282387
O27   O     O_R   0.052548 0.022619 0.594303 -0.326252
O28   O     O_R   0.229389 0.091554 0.637990 -0.253754
C57   C     C_3   0.096366 0.558734 0.711199 -0.889478
H17   H     H_    0.140294 0.511054 0.699365 0.239266
H18   H     H_    0.080873 0.586601 0.671710 0.272782
H19   H     H_    0.208215 0.581048 0.734460 0.285594
C58   C     C_3   0.403605 0.441323 0.211252 -0.889770
H20   H     H_    0.359716 0.489028 0.199482 0.239237
H21   H     H_    0.419036 0.413507 0.171731 0.272834
H22   H     H_    0.291755 0.418994 0.234502 0.285622
C59   C     C_3   0.596370 0.941251 0.288801 -0.889369
H23   H     H_    0.640293 0.988925 0.300653 0.239270
H24   H     H_    0.580867 0.913368 0.328280 0.272775
H25   H     H_    0.708227 0.918945 0.265530 0.285588
C60   C     C_3   0.903648 0.058794 0.788841 -0.889134
H26   H     H_    0.859696 0.011138 0.800741 0.239276
H27   H     H_    0.919195 0.086715 0.828296 0.272745
H28   H     H_    0.791795 0.081089 0.765563 0.285564
C61   C     C_3   0.120997 0.484432 0.811711 -0.933548
H29   H     H_    0.175939 0.458459 0.775204 0.221608
H30   H     H_    0.218001 0.522321 0.822556 0.300517
H31   H     H_    0.123879 0.450427 0.847390 0.274792
C62   C     C_3   0.379113 0.515476 0.311859 -0.933349
H32   H     H_    0.324101 0.541512 0.275401 0.221528
H33   H     H_    0.282161 0.477560 0.322677 0.300531
H34   H     H_    0.376267 0.549420 0.347585 0.274818
C63   C     C_3   0.621031 0.015602 0.188321 -0.933560
H35   H     H_    0.675931 0.041561 0.224839 0.221630
H36   H     H_    0.718074 0.977722 0.177469 0.300510
H37   H     H_    0.623918 0.049620 0.152653 0.274783
C64   C     C_3   0.878887 0.984336 0.688430 -0.933698
H38   H     H_    0.824029 0.958426 0.724984 0.221688
H39   H     H_    0.781812 0.022197 0.677556 0.300507
H40   H     H_    0.875978 0.950272 0.652797 0.274759
N5    N     N_R   0.723226 0.365004 0.730354 0.265628
O29   O     O_R   0.817835 0.317056 0.712924 -0.227034
O30   O     O_R   0.557100 0.355512 0.747009 -0.358757
N6    N     N_R   0.776571 0.634983 0.230374 0.265644
O31   O     O_R   0.681806 0.682930 0.213028 -0.227086
O32   O     O_R   0.942745 0.644491 0.246971 -0.358710
N7    N     N_R   0.223118 0.135000 0.269654 0.265634
O33   O     O_R   0.317677 0.182953 0.287090 -0.226980
O34   O     O_R   0.056993 0.144483 0.252997 -0.358732
N8    N     N_R   0.276997 0.864987 0.769659 0.265652
O35   O     O_R   0.182440 0.817010 0.787045 -0.227035
O36   O     O_R   0.443165 0.855534 0.753023 -0.358747
N9    N     N_R   0.919932 0.628234 0.767884 0.296565
O37   O     O_R   0.039062 0.645830 0.805566 -0.219851
O38   O     O_R   0.854188 0.672505 0.735876 -0.302652
N10   N     N_R   0.579940 0.371738 0.267870 0.296594
O39   O     O_R   0.460745 0.354135 0.305534 -0.219940
O40   O     O_R   0.645765 0.327477 0.235865 -0.302636
N11   N     N_R   0.419933 0.871777 0.232103 0.296561
O41   O     O_R   0.539049 0.854183 0.194410 -0.219797
O42   O     O_R   0.354224 0.827502 0.264115 -0.302628
N12   N     N_R   0.080166 0.128206 0.732095 0.296535
O43   O     O_R   0.961106 0.145795 0.694388 -0.219741
O44   O     O_R   0.145803 0.172487 0.764111 -0.302679
N13   N     N_R   0.526198 0.607236 0.769462 0.288653
O45   O     O_R   0.452252 0.612512 0.819356 -0.258308
O46   O     O_R   0.496532 0.652906 0.733901 -0.312225
N14   N     N_R   0.973796 0.392745 0.269450 0.288656
O47   O     O_R   0.047744 0.387464 0.319340 -0.258457
O48   O     O_R   0.003452 0.347077 0.233885 -0.312181
N15   N     N_R   0.026237 0.892769 0.230542 0.288646
O49   O     O_R   0.952305 0.887494 0.180649 -0.258275
O50   O     O_R   0.996571 0.847098 0.266102 -0.312255
N16   N     N_R   0.473768 0.107217 0.730532 0.288643
O51   O     O_R   0.547708 0.112487 0.680636 -0.258169
O52   O     O_R   0.503435 0.152890 0.766088 -0.312289
N17   N     N_R   0.911718 0.467643 0.639463 0.246952
O53   O     O_R   0.908402 0.503911 0.595003 -0.369945
O54   O     O_R   0.014087 0.417756 0.636776 -0.308942
N18   N     N_R   0.588252 0.532345 0.139482 0.246958
O55   O     O_R   0.591593 0.496086 0.095016 -0.369982
O56   O     O_R   0.485888 0.582233 0.136801 -0.308895
N19   N     N_R   0.411689 0.032361 0.360536 0.246949
O57   O     O_R   0.408396 0.996088 0.404992 -0.369993
O58   O     O_R   0.514031 0.082252 0.363223 -0.308927
N20   N     N_R   0.088317 0.967627 0.860548 0.246925
O59   O     O_R   0.091548 0.003919 0.904992 -0.369990
O60   O     O_R   0.986034 0.917723 0.863252 -0.308933
C65   C     C_3   0.590690 0.451757 0.652140 -0.641475
H41   H     H_    0.545526 0.487985 0.621322 0.222559
H42   H     H_    0.616263 0.407915 0.627725 0.294420
H43   H     H_    0.476155 0.441313 0.680994 0.225379
C66   C     C_3   0.909266 0.548243 0.152157 -0.641390
H44   H     H_    0.954440 0.512024 0.121330 0.222551
H45   H     H_    0.883684 0.592091 0.127752 0.294413
H46   H     H_    0.023800 0.558682 0.181009 0.225400
C67   C     C_3   0.090653 0.048242 0.347874 -0.641483
H47   H     H_    0.045508 0.012011 0.378693 0.222556
H48   H     H_    0.116204 0.092084 0.372288 0.294421
H49   H     H_    0.976111 0.058682 0.319024 0.225384
C68   C     C_3   0.409362 0.951757 0.847888 -0.641493
H50   H     H_    0.454468 0.987988 0.878710 0.222559
H51   H     H_    0.383819 0.907911 0.872299 0.294415
H52   H     H_    0.523929 0.941327 0.819041 0.225378

loop_
_geom_bond_atom_site_label_1
_geom_bond_atom_site_label_2
_geom_bond_distance
_ccdc_geom_bond_type
O17   V3    1.793968 S    
C16   N16   1.480205 S    
N15   O49   1.301437 A    
O1    C5    1.346705 A    
N13   O45   1.301438 A    
C43   C67   1.562571 S    
C51   C55   1.216089 T    
O19   V1    1.793911 S    
O13   V1    1.965658 S    
C68   H50   1.110051 S    
C38   H14   1.099263 S    
O3    C7    1.346710 A    
N7    O33   1.301540 A    
C37   H13   1.099221 S    
C36   C40   1.574137 S    
O4    V2    1.965461 S    
O15   V3    1.965593 S    
C10   C30   1.646263 S    
N1    O21   1.303661 A    
C9    C29   1.646219 S    
C37   N5    1.477695 S    
C10   C58   1.552372 S    
O7    C3    1.348701 A    
C64   H39   1.106921 S    
C39   C43   1.591444 S    
C42   N18   1.487862 S    
C17   C33   1.556754 S    
N10   O39   1.303900 A    
C31   C63   1.567259 S    
C23   C47   1.214884 T    
C14   C18   1.566371 S    
N5    O30   1.301196 A    
C5    C55   1.449172 S    
O4    C8    1.346698 A    
C9    N9    1.489895 S    
N14   O48   1.301484 A    
N4    O27   1.303689 A    
O1    V3    1.965435 S    
O2    V4    1.965400 S    
C30   N2    1.497262 S    
O3    V1    1.965424 S    
C37   C41   1.591429 S    
N16   O51   1.301436 A    
C60   H28   1.097833 S    
C15   N15   1.480203 S    
C57   H18   1.109615 S    
C28   C44   1.625037 S    
C20   C36   1.556740 S    
N5    O29   1.301539 A    
C1    O15   1.347547 A    
N9    O37   1.303895 A    
C52   C56   1.216095 T    
C65   H43   1.106521 S    
C2    O16   1.347538 A    
N17   O54   1.303013 A    
C34   C38   1.574150 S    
C61   H31   1.109549 S    
N11   O42   1.300147 A    
C33   C37   1.574151 S    
O14   V2    1.965621 S    
C11   C31   1.646196 S    
N9    O38   1.300144 A    
C3    C22   1.449545 S    
C35   C47   1.498556 S    
O8    C4    1.348699 A    
C30   C62   1.567179 S    
C27   C51   1.502568 S    
C20   H8    1.107170 S    
O11   C7    1.349337 A    
O12   C8    1.349341 A    
C12   N12   1.489920 S    
C68   H51   1.111683 S    
C32   C64   1.567301 S    
C67   H47   1.110053 S    
C32   N4    1.497291 S    
O10   V2    1.983723 S    
C17   H5    1.107206 S    
N1    O22   1.298791 A    
N18   O56   1.303018 A    
N12   O44   1.300152 A    
C64   H40   1.109561 S    
O7    V3    1.983679 S    
C39   H15   1.099201 S    
O8    V4    1.983746 S    
C33   C45   1.498566 S    
C22   C46   1.214879 T    
C58   H20   1.100155 S    
C50   C54   1.216082 T    
C59   H25   1.097813 S    
C25   C41   1.625004 S    
C49   C53   1.216088 T    
O18   V4    1.793968 S    
C15   C19   1.566322 S    
C39   N7    1.477699 S    
C31   N3    1.497271 S    
C41   N17   1.487857 S    
C14   C26   1.574162 S    
C42   C66   1.562575 S    
C29   C61   1.567236 S    
C67   H49   1.106518 S    
C14   N14   1.480200 S    
N19   O57   1.301707 A    
C18   C34   1.556766 S    
O5    C1    1.348692 A    
C63   H37   1.109554 S    
N19   O58   1.303013 A    
N15   O50   1.301485 A    
C20   H12   1.103825 S    
N11   O41   1.303894 A    
C40   N8    1.477714 S    
C32   C36   1.592232 S    
C66   H46   1.106513 S    
C66   H45   1.111682 S    
C7    C53   1.449173 S    
O9    C5    1.349330 A    
N3    O26   1.298753 A    
C13   N13   1.480202 S    
C67   H48   1.111681 S    
C61   H30   1.106916 S    
C17   H9    1.103857 S    
C60   H26   1.100128 S    
C36   C48   1.498556 S    
C25   C49   1.502569 S    
C18   H6    1.107237 S    
C4    C21   1.449559 S    
N6    O32   1.301207 A    
N14   O47   1.301434 A    
O6    V2    1.983722 S    
N2    O24   1.298740 A    
N17   O53   1.301708 A    
C63   H35   1.099954 S    
C68   H52   1.106511 S    
N8    O36   1.301199 A    
C57   H19   1.097811 S    
C9    C57   1.552413 S    
O9    V1    1.983655 S    
C13   H1    1.098785 S    
O5    V1    1.983790 S    
C60   H27   1.109613 S    
N18   O55   1.301707 A    
C26   C50   1.502553 S    
C15   H3    1.098796 S    
N12   O43   1.303891 A    
O16   V4    1.965629 S    
C19   H11   1.103847 S    
C16   H4    1.098801 S    
C44   C68   1.562559 S    
C38   N6    1.477687 S    
C3    O13   1.347530 A    
C19   C35   1.556752 S    
N7    O34   1.301193 A    
C26   C42   1.624982 S    
C6    C56   1.449185 S    
C40   C44   1.591479 S    
N6    O31   1.301547 A    
C8    C54   1.449158 S    
O6    C2    1.348692 A    
C13   C25   1.574188 S    
C12   C32   1.646165 S    
C58   H22   1.097785 S    
O11   V3    1.983676 S    
C27   C43   1.625012 S    
C10   N10   1.489874 S    
O12   V4    1.983609 S    
C15   C27   1.574187 S    
C64   H38   1.099960 S    
C30   C34   1.592210 S    
C16   C28   1.574208 S    
C4    O14   1.347542 A    
C1    C24   1.449570 S    
C41   C65   1.562571 S    
C62   H34   1.109542 S    
C59   H24   1.109612 S    
C2    C23   1.449553 S    
C62   H32   1.099949 S    
C29   N1    1.497281 S    
O20   V2    1.793911 S    
C10   C26   1.623028 S    
C12   C28   1.623012 S    
O2    C6    1.346714 A    
C18   H10   1.103891 S    
C35   C39   1.574150 S    
C24   C48   1.214890 T    
O10   C6    1.349331 A    
C61   H29   1.099959 S    
N4    O28   1.298803 A    
C19   H7    1.107191 S    
C9    C25   1.623015 S    
C29   C33   1.592219 S    
N10   O40   1.300139 A    
N2    O23   1.303558 A    
C43   N19   1.487851 S    
C12   C60   1.552440 S    
C31   C35   1.592231 S    
C13   C17   1.566335 S    
C65   H41   1.110052 S    
C34   C46   1.498571 S    
C21   C45   1.214885 T    
N16   O52   1.301482 A    
C14   H2    1.098773 S    
C11   N11   1.489902 S    
C11   C59   1.552410 S    
C16   C20   1.566300 S    
N13   O46   1.301482 A    
C66   H44   1.110060 S    
C38   C42   1.591389 S    
C57   H17   1.100140 S    
N3    O25   1.303578 A    
C63   H36   1.106919 S    
C44   N20   1.487846 S    
N8    O35   1.301553 A    
C11   C27   1.623014 S    
C62   H33   1.106911 S    
N20   O59   1.301708 A    
C59   H23   1.100134 S    
N20   O60   1.303015 A    
C28   C52   1.502586 S    
C40   H16   1.099173 S    
C65   H42   1.111683 S    
C58   H21   1.109617 S    
