data_mof_unit_48486.cif
_audit_creation_date              2013-03-05T16:10:15-0500
_audit_creation_method            fapswitch 2.2
_symmetry_space_group_name_H-M    P1
_symmetry_Int_Tables_number       1
_space_group_crystal_system       triclinic
_cell_length_a                    9.859244
_cell_length_b                    10.680896
_cell_length_c                    13.153822
_cell_angle_alpha                 90.996609
_cell_angle_beta                  71.14805
_cell_angle_gamma                 90.661252
_cell_volume                      1310.64147338

loop_
_atom_site_label
_atom_site_type_symbol
_atom_site_description
_atom_site_fract_x
_atom_site_fract_y
_atom_site_fract_z
_atom_type_partial_charge
O1    O     O_R   0.385370 0.683250 0.500010 -0.632798
O2    O     O_R   0.614700 0.683220 0.500010 -0.565698
C1    C     C_R   0.500334 0.740017 0.500490 0.869747
O3    O     O_R   0.328400 0.499990 0.653620 -0.635527
O4    O     O_R   0.557730 0.499960 0.653620 -0.585391
C2    C     C_R   0.421421 0.493567 0.703491 0.903069
Zn1   Zn    Zn3+2 0.346870 0.500020 0.500000 0.993351
Zn2   Zn    Zn3+2 0.653130 0.499980 0.500000 0.990600
O5    O     O_R   0.385300 0.316780 0.499990 -0.574465
O6    O     O_R   0.614630 0.316750 0.499990 -0.649129
O7    O     O_R   0.442270 0.500040 0.346380 -0.556094
O8    O     O_R   0.671600 0.500010 0.346380 -0.614604
C3    C     C_R   0.499622 0.259994 0.499597 0.864684
C4    C     C_R   0.578166 0.496863 0.296055 0.880811
C5    C     C_R   0.767683 0.356496 0.024481 -0.166778
H1    H     H_    0.825129 0.386467 0.167137 0.179632
H2    H     H_    0.867030 0.308524 0.983542 0.182210
C6    C     C_R   0.620271 0.468713 0.181514 -0.098368
C7    C     C_R   0.236628 0.529069 0.878385 -0.428761
C8    C     C_R   0.187114 0.525766 0.991204 0.504591
C9    C     C_R   0.278012 0.477022 0.043519 0.428561
C10   C     C_R   0.422347 0.445654 0.984612 -0.122063
C11   C     C_R   0.459579 0.427734 0.873243 -0.048850
C12   C     C_R   0.530878 0.431363 0.032186 0.054149
C13   C     C_R   0.661549 0.371064 0.975207 0.034283
C14   C     C_R   0.684284 0.329008 0.869570 0.492006
C15   C     C_R   0.583483 0.357424 0.819273 -0.242956
C16   C     C_R   0.517218 0.486359 0.131508 -0.127949
C17   C     C_R   0.745988 0.403586 0.128045 -0.158393
C18   C     C_R   0.371035 0.480012 0.819777 -0.131483
H3    H     H_    0.425496 0.544145 0.171520 0.198206
H4    H     H_    0.170144 0.566528 0.835093 0.179002
H5    H     H_    0.602695 0.321946 0.738384 0.180058
C19   C     C_R   0.630272 0.936434 0.459020 -0.195890
H6    H     H_    0.731022 0.887475 0.425888 0.163929
C20   C     C_R   0.629808 0.064726 0.458348 -0.185499
H7    H     H_    0.730524 0.114505 0.425184 0.161161
C21   C     C_R   0.499417 0.127576 0.499173 -0.012229
C22   C     C_R   0.369576 0.063627 0.540785 -0.127241
H8    H     H_    0.268830 0.112588 0.573920 0.175957
C23   C     C_R   0.370068 0.935327 0.541589 -0.181653
H9    H     H_    0.269352 0.885543 0.574799 0.146018
C24   C     C_R   0.500486 0.872469 0.500813 -0.017497
C25   C     C_R   0.945211 0.403140 0.455037 -0.265757
H10   H     H_    0.903879 0.325731 0.419491 0.177203
C26   C     C_R   0.088431 0.401704 0.455415 0.381853
N1    N     N_R   0.142790 0.500030 0.500030 -0.145667
C27   C     C_R   0.053315 0.595752 0.547542 -0.305080
H11   H     H_    0.094233 0.668958 0.587501 0.162031
C28   C     C_R   0.907949 0.597117 0.547530 0.597412
N2    N     N_R   0.857180 0.499940 0.500010 -0.135181
N3    N     N_R   0.172514 0.293044 0.412747 0.203076
O9    O     O_R   0.290208 0.303080 0.332204 -0.360734
O10   O     O_R   0.116106 0.182402 0.437572 -0.466916
O11   O     O_3   0.810915 0.687861 0.602936 -0.578108
C29   C     C_3   0.873290 0.808628 0.592547 -0.308131
H12   H     H_    0.786040 0.878643 0.612723 0.211076
H13   H     H_    0.943841 0.827209 0.508957 0.163022
H14   H     H_    0.932179 0.823160 0.650970 0.157870
O12   O     O_3   0.803818 0.258748 0.815863 -0.618629
C30   C     C_3   0.905486 0.337286 0.744579 -0.290788
H15   H     H_    0.936546 0.417603 0.787803 0.149179
H16   H     H_    0.864688 0.371773 0.680848 0.170961
H17   H     H_    0.003627 0.282245 0.704694 0.201332
O13   O     O_3   0.218941 0.446219 0.150485 -0.589501
C31   C     C_3   0.159049 0.324691 0.154795 -0.146939
H18   H     H_    0.245090 0.253089 0.132322 0.175135
H19   H     H_    0.089659 0.313257 0.103050 0.116541
H20   H     H_    0.089136 0.306802 0.237795 0.193164
O14   O     O_3   0.048684 0.558537 0.054929 -0.588145
C32   C     C_3   0.985163 0.648724 0.007784 -0.304545
H21   H     H_    0.944313 0.604257 0.946286 0.163595
H22   H     H_    0.059754 0.727769 0.973781 0.159021
H23   H     H_    0.891279 0.688492 0.071191 0.198943

loop_
_geom_bond_atom_site_label_1
_geom_bond_atom_site_label_2
_geom_bond_distance
_ccdc_geom_bond_type
C3    C21   1.414235 S    
O1    C1    1.281022 A    
O4    Zn2   1.933807 S    
C31   H19   1.114597 S    
O11   C29   1.412161 S    
C16   H3    1.081538 S    
C5    H2    1.083071 S    
O14   C32   1.410810 S    
C11   C15   1.415071 A    
C29   H13   1.114594 S    
C30   H17   1.109700 S    
C12   C16   1.389773 A    
C23   H9    1.084048 S    
C4    C6    1.454527 S    
C28   O11   1.389977 S    
C29   H14   1.110805 S    
Zn2   O8    1.969409 S    
C13   C14   1.400758 A    
C8    O14   1.396195 S    
C8    C9    1.403400 A    
C20   C21   1.397466 A    
C28   N2    1.373396 A    
O8    C4    1.296340 A    
C6    C16   1.393238 A    
C32   H21   1.111263 S    
C22   C23   1.370663 A    
C6    C17   1.397988 A    
O1    Zn1   1.989231 S    
C9    C10   1.423750 A    
C25   H10   1.081752 S    
Zn1   O7    1.933808 S    
C23   C24   1.397665 A    
Zn2   N2    2.011826 S    
C1    C24   1.414631 S    
C14   C15   1.398705 A    
O4    C2    1.292584 A    
O3    Zn1   1.969408 S    
C7    H4    1.081301 S    
C25   N2    1.356405 A    
C27   C28   1.433486 A    
C27   H11   1.079747 S    
C2    C18   1.456859 S    
N3    O10   1.301291 A    
C5    C17   1.394571 A    
C19   C20   1.370524 A    
O13   C31   1.414222 S    
C30   H15   1.114655 S    
O7    C4    1.289033 A    
C10   C12   1.414104 A    
C5    C13   1.408836 A    
C31   H20   1.105201 S    
C29   H12   1.109075 S    
O3    C2    1.291489 A    
C11   C18   1.410733 A    
C26   N3    1.431108 S    
C25   C26   1.413913 A    
C21   C22   1.394592 A    
C12   C13   1.419388 A    
Zn2   O6    1.989233 S    
C19   H6    1.083679 S    
C32   H22   1.113511 S    
C22   H8    1.083667 S    
Zn1   O5    1.997783 S    
O5    C3    1.284614 A    
C26   N1    1.379642 A    
C20   H7    1.083964 S    
O2    Zn2   1.997783 S    
O2    C1    1.284722 A    
C31   H18   1.112175 S    
C32   H23   1.109358 S    
C9    O13   1.381749 S    
H1    C17   1.082833 S    
C10   C11   1.400616 A    
C7    C18   1.402376 A    
C14   O12   1.383852 S    
C30   H16   1.110094 S    
C15   H5    1.081183 S    
C19   C24   1.394489 A    
C7    C8    1.405376 A    
N3    O9    1.298849 A    
O12   C30   1.410035 S    
N1    C27   1.362490 A    
O6    C3    1.281022 A    
Zn1   N1    2.011948 S    
