data_mof_unit_32055.cif
_audit_creation_date              2012-12-11T15:53:44-0500
_audit_creation_method            fapswitch 2.2
_symmetry_space_group_name_H-M    P1
_symmetry_Int_Tables_number       1
_space_group_crystal_system       triclinic
_cell_length_a                    6.931898
_cell_length_b                    14.546417
_cell_length_c                    15.962824
_cell_angle_alpha                 90.5102
_cell_angle_beta                  90.052
_cell_angle_gamma                 90.024685
_cell_volume                      1609.53521478

loop_
_atom_site_label
_atom_site_type_symbol
_atom_type_description
_atom_site_fract_x
_atom_site_fract_y
_atom_site_fract_z
_atom_type_partial_charge
O1    O     O_R   0.361600 0.167310 0.164620 -0.540561
O2    O     O_R   0.638400 0.832690 0.835380 -0.540562
O3    O     O_R   0.691080 0.157570 0.338750 -0.544184
O4    O     O_R   0.308920 0.842430 0.661250 -0.544184
O5    O     O_R   0.861410 0.336420 0.339360 -0.537439
O6    O     O_R   0.138590 0.663580 0.660640 -0.537439
C1    C     C_R   0.522048 0.135202 0.367480 0.686926
C2    C     C_R   0.477952 0.864798 0.632520 0.686926
O7    O     O_R   0.691320 0.156280 0.165240 -0.543450
O8    O     O_R   0.308680 0.843720 0.834760 -0.543450
O9    O     O_R   0.861640 0.335130 0.164600 -0.540829
O10   O     O_R   0.138360 0.664870 0.835400 -0.540829
C3    C     C_R   0.522222 0.133810 0.136082 0.686786
C4    C     C_R   0.477778 0.866190 0.863918 0.686786
O11   O     O_R   0.361370 0.168600 0.339370 -0.540723
O12   O     O_R   0.638630 0.831400 0.660630 -0.540723
O13   O     O_3   0.527990 0.310540 0.251980 -0.368087
O14   O     O_3   0.472010 0.689460 0.748020 -0.368087
V1    V     V_3+5 0.802830 0.240980 0.251990 1.397159
V2    V     V_3+5 0.197170 0.759020 0.748010 1.397159
O15   O     O_R   0.191360 0.346160 0.165220 -0.543631
O16   O     O_R   0.808640 0.653840 0.834780 -0.543631
C5    C     C_R   0.022279 0.368229 0.136052 0.683613
C6    C     C_R   0.977721 0.631771 0.863948 0.683614
O17   O     O_R   0.191130 0.347440 0.338740 -0.542111
O18   O     O_R   0.808870 0.652560 0.661260 -0.542110
C7    C     C_R   0.022369 0.369662 0.367643 0.680266
C8    C     C_R   0.977631 0.630338 0.632357 0.680266
V3    V     V_3+5 0.302840 0.262750 0.251990 1.399431
V4    V     V_3+5 0.697160 0.737250 0.748010 1.399431
O19   O     O_3   0.027820 0.193180 0.251990 -0.370243
O20   O     O_3   0.972180 0.806820 0.748010 -0.370244
C9    C     C_3   0.922778 0.419965 0.524293 -0.141424
C10   C     C_3   0.077222 0.580035 0.475707 -0.141424
C11   C     C_3   0.096670 0.468590 0.566797 -0.139962
C12   C     C_3   0.903329 0.531410 0.433203 -0.139962
H1    H     H_    0.176242 0.443061 0.622300 0.103043
H2    H     H_    0.823758 0.556939 0.377700 0.103043
H3    H     H_    0.859132 0.353508 0.543894 0.101515
H4    H     H_    0.140868 0.646492 0.456106 0.101515
C13   C     C_3   0.988050 0.560694 0.562107 -0.007797
C14   C     C_3   0.011949 0.439306 0.437893 -0.007797
C15   C     C_3   0.813973 0.512863 0.520387 -0.115243
C16   C     C_3   0.186027 0.487137 0.479613 -0.115243
H5    H     H_    0.660469 0.523697 0.537576 0.107255
H6    H     H_    0.339531 0.476303 0.462424 0.107255
C17   C     C_R   0.820596 0.525160 0.967312 -0.157507
C18   C     C_R   0.179404 0.474840 0.032688 -0.157507
C19   C     C_R   0.831595 0.462123 0.033015 -0.153161
C20   C     C_R   0.168405 0.537876 0.966985 -0.153161
H7    H     H_    0.698767 0.433722 0.057332 0.118472
H8    H     H_    0.301232 0.566278 0.942668 0.118472
C21   C     C_R   0.011157 0.436059 0.066683 -0.047055
C22   C     C_R   0.988843 0.563941 0.933317 -0.047055
C23   C     C_R   0.679435 0.026078 0.468047 -0.160709
C24   C     C_R   0.320564 0.973922 0.531953 -0.160709
H9    H     H_    0.820147 0.045051 0.444400 0.116545
H10   H     H_    0.179853 0.954948 0.555600 0.116545
C25   C     C_R   0.668518 0.960925 0.531823 -0.154459
C26   C     C_R   0.331482 0.039075 0.468176 -0.154459
H11   H     H_    0.801340 0.931666 0.555347 0.118333
H12   H     H_    0.198659 0.068333 0.444653 0.118333
C27   C     C_R   0.488937 0.933989 0.564664 -0.046063
C28   C     C_R   0.511063 0.066011 0.435336 -0.046063
C29   C     C_R   0.679436 0.025626 0.032817 -0.157471
C30   C     C_R   0.320564 0.974374 0.967183 -0.157471
C31   C     C_R   0.668479 0.961545 0.967041 -0.152682
C32   C     C_R   0.331521 0.038455 0.032959 -0.152682
H13   H     H_    0.801294 0.932684 0.942745 0.118788
H14   H     H_    0.198706 0.067316 0.057255 0.118788
C33   C     C_R   0.488892 0.935050 0.933292 -0.046507
C34   C     C_R   0.511107 0.064950 0.066708 -0.046507
H15   H     H_    0.679832 0.543504 0.943246 0.116347
H16   H     H_    0.320168 0.456496 0.056754 0.116347
H17   H     H_    0.820178 0.044340 0.057014 0.116817
H18   H     H_    0.179822 0.955660 0.942986 0.116817

loop_
_geom_bond_atom_site_label_1
_geom_bond_atom_site_label_2
_ccdc_geom_bond_type
C30   C32   A    
O11   V3    S    
C23   C25   A    
O13   V3    S    
C4    C33   S    
C12   C14   S    
O4    C2    A    
V1    O19   S    
C17   C19   A    
O9    V1    S    
C9    H3    S    
C10   H4    S    
C9    C14   S    
C11   H1    S    
O3    C1    A    
O12   V4    S    
C8    C13   S    
C26   H12   S    
O9    C5    A    
O7    C3    A    
O13   V1    S    
O5    C7    A    
O7    V1    S    
O6    C8    A    
O8    V2    S    
C29   C31   A    
C20   H8    S    
O3    V1    S    
O14   V4    S    
O14   V2    S    
C18   C20   A    
C2    O12   A    
C13   C15   S    
C10   C13   S    
C14   C16   S    
O2    C4    A    
C16   H6    S    
C5    C21   S    
O15   C5    A    
O17   V3    S    
C18   C21   A    
C25   H11   S    
C9    C15   S    
C18   H16   S    
C10   C16   S    
C17   H15   S    
O8    C4    A    
C19   H7    S    
O15   V3    S    
C24   C26   A    
C31   H13   S    
C30   C33   A    
C32   C34   A    
C30   H18   S    
C23   C28   A    
O10   V2    S    
O1    V3    S    
C24   C27   A    
C20   C22   A    
C11   C16   S    
C15   H5    S    
C17   C22   A    
O18   V4    S    
C23   H9    S    
O16   C6    A    
O1    C3    A    
V2    O20   S    
O16   V4    S    
C25   C27   A    
O5    V1    S    
C3    C34   S    
O17   C7    A    
C29   C34   A    
O6    V2    S    
O10   C6    A    
O18   C8    A    
C29   H17   S    
C26   C28   A    
O2    V4    S    
C12   H2    S    
V3    O19   S    
V4    O20   S    
C7    C14   S    
C19   C21   A    
C1    O11   A    
C9    C11   S    
C10   C12   S    
C24   H10   S    
C31   C33   A    
C11   C13   S    
C1    C28   S    
C2    C27   S    
O4    V2    S    
C32   H14   S    
C12   C15   S    
C6    C22   S    
