data_mof_unit_9315.cif
_audit_creation_date              2012-12-11T14:52:44-0500
_audit_creation_method            fapswitch 2.2
_symmetry_space_group_name_H-M    P1
_symmetry_Int_Tables_number       1
_space_group_crystal_system       triclinic
_cell_length_a                    19.101438
_cell_length_b                    11.119022
_cell_length_c                    18.90396
_cell_angle_alpha                 90.013925
_cell_angle_beta                  90.965127
_cell_angle_gamma                 89.970744
_cell_volume                      4014.42877626

loop_
_atom_site_label
_atom_site_type_symbol
_atom_type_description
_atom_site_fract_x
_atom_site_fract_y
_atom_site_fract_z
_atom_type_partial_charge
Br1   Br    Br    0.332114 0.863489 0.022214 -0.535435
Br2   Br    Br    0.548140 0.058306 0.904724 -0.223479
Br3   Br    Br    0.951457 0.558058 0.095519 -0.218795
Br4   Br    Br    0.048140 0.558306 0.904724 -0.223499
Br5   Br    Br    0.396274 0.519242 0.936197 -0.124529
Br6   Br    Br    0.603867 0.518920 0.063839 -0.123750
Br7   Br    Br    0.896274 0.019242 0.936197 -0.124531
Br8   Br    Br    0.103867 0.018920 0.063839 -0.123743
Br9   Br    Br    0.101759 0.720814 0.079835 -0.172433
Br10  Br    Br    0.897914 0.721458 0.919992 -0.175542
Br11  Br    Br    0.601758 0.220813 0.079835 -0.172439
Br12  Br    Br    0.667724 0.863585 0.977782 -0.538453
Br13  Br    Br    0.397914 0.221457 0.919993 -0.175535
Br14  Br    Br    0.133189 0.800625 0.926510 -0.116677
Br15  Br    Br    0.866668 0.800765 0.073474 -0.115852
Br16  Br    Br    0.633189 0.300625 0.926510 -0.116674
Br17  Br    Br    0.366668 0.300765 0.073474 -0.115856
Br18  Br    Br    0.540116 0.097053 0.428880 -0.117184
Br19  Br    Br    0.554332 0.057098 0.600771 -0.233819
Br20  Br    Br    0.040110 0.597046 0.428887 -0.117198
Br21  Br    Br    0.054348 0.557090 0.600779 -0.234018
Br22  Br    Br    0.832114 0.363489 0.022214 -0.535425
Br23  Br    Br    0.167723 0.363585 0.977783 -0.538464
Br24  Br    Br    0.363009 0.394834 0.432239 -0.085669
Br25  Br    Br    0.612300 0.579726 0.600294 -0.211165
Br26  Br    Br    0.863001 0.894819 0.432243 -0.085887
Br27  Br    Br    0.112241 0.079203 0.600217 -0.210577
Br28  Br    Br    0.451456 0.058058 0.095519 -0.218823
C1    C     C_R   0.273478 0.044454 0.852728 0.584517
C2    C     C_R   0.687371 0.584492 0.025281 0.166827
C3    C     C_3   0.029579 0.330756 0.063968 -0.070173
C4    C     C_R   0.812642 0.084524 0.974728 0.166586
C5    C     C_R   0.187371 0.084492 0.025281 0.166829
C6    C     C_R   0.304120 0.571535 0.047333 0.426519
C7    C     C_R   0.695876 0.571494 0.952672 0.426595
C8    C     C_R   0.804120 0.071535 0.047333 0.426519
C9    C     C_R   0.195876 0.071494 0.952672 0.426593
C10   C     C_R   0.241333 0.597299 0.078287 0.000153
C11   C     C_R   0.758599 0.597420 0.921680 0.000761
C12   C     C_R   0.741333 0.097298 0.078287 0.000156
C13   C     C_R   0.726504 0.044415 0.147252 0.589688
C14   C     C_R   0.258600 0.097420 0.921680 0.000756
C15   C     C_R   0.189590 0.663533 0.039833 0.157151
C16   C     C_R   0.810265 0.663800 0.960105 0.157155
C17   C     C_R   0.689590 0.163532 0.039832 0.157152
C18   C     C_R   0.310266 0.163799 0.960106 0.157156
C19   C     C_R   0.200967 0.691801 0.969382 0.183128
C20   C     C_R   0.798924 0.691973 0.030586 0.182719
C21   C     C_R   0.700967 0.191801 0.969382 0.183124
C22   C     C_R   0.298924 0.191973 0.030586 0.182722
C23   C     C_R   0.260851 0.645580 0.934212 -0.048290
C24   C     C_R   0.773478 0.544454 0.852728 0.584525
C25   C     C_R   0.739116 0.645638 0.065782 -0.048500
C26   C     C_R   0.760851 0.145580 0.934212 -0.048289
C27   C     C_R   0.239116 0.145638 0.065782 -0.048503
C28   C     C_R   0.463432 0.732679 0.526816 0.389727
C29   C     C_R   0.471294 0.738588 0.454757 0.428410
C30   C     C_R   0.963471 0.232655 0.526829 0.389741
C31   C     C_R   0.971330 0.238565 0.454771 0.428383
C32   C     C_R   0.502192 0.839041 0.424247 -0.041242
C33   C     C_R   0.486580 0.827405 0.571168 -0.041266
C34   C     C_R   0.002215 0.339027 0.424257 -0.041274
C35   C     C_R   0.226504 0.544415 0.147252 0.589685
C36   C     C_R   0.986613 0.327388 0.571179 -0.041164
C37   C     C_R   0.519286 0.940423 0.467381 0.137036
C38   C     C_R   0.516190 0.930693 0.541275 0.154279
C39   C     C_R   0.019312 0.440405 0.467390 0.137052
C40   C     C_R   0.016225 0.430671 0.541285 0.154245
C41   C     C_R   0.442482 0.818476 0.862772 0.551748
C42   C     C_R   0.557458 0.818441 0.137225 0.552386
C43   C     C_R   0.942482 0.318476 0.862772 0.551739
C44   C     C_R   0.057458 0.318441 0.137225 0.552397
C45   C     C_R   0.220716 0.702285 0.522710 0.349400
C46   C     C_3   0.520265 0.735232 0.965390 0.424879
C47   C     C_R   0.812249 0.573166 0.454917 0.373252
C48   C     C_R   0.720730 0.202307 0.522707 0.349436
C49   C     C_R   0.312280 0.073356 0.454934 0.373091
C50   C     C_R   0.220575 0.687029 0.450672 0.385707
C51   C     C_R   0.820517 0.562711 0.526724 0.374443
C52   C     C_R   0.720584 0.187041 0.450669 0.385752
C53   C     C_R   0.320540 0.062971 0.526743 0.374424
C54   C     C_R   0.254051 0.587392 0.421950 -0.088310
C55   C     C_R   0.761797 0.565910 0.570926 -0.064194
C56   C     C_R   0.754053 0.087394 0.421949 -0.088254
C57   C     C_3   0.479712 0.735160 0.034593 0.425385
C58   C     C_R   0.261794 0.065947 0.570926 -0.064552
C59   C     C_R   0.297308 0.512958 0.465642 0.146406
C60   C     C_R   0.694133 0.575438 0.542351 0.165900
C61   C     C_R   0.797307 0.012957 0.465642 0.146416
C62   C     C_R   0.194118 0.075206 0.542320 0.165850
C63   C     C_R   0.294702 0.525727 0.538287 0.369060
C64   C     C_R   0.686061 0.587317 0.469897 0.364051
C65   C     C_R   0.794704 0.025733 0.538286 0.369078
C66   C     C_R   0.186054 0.087016 0.469860 0.364121
C67   C     C_R   0.255586 0.618661 0.567044 -0.058153
C68   C     C_3   0.020264 0.235232 0.965390 0.424876
C69   C     C_R   0.745652 0.590769 0.426564 -0.035673
C70   C     C_R   0.755592 0.118675 0.567042 -0.058115
C71   C     C_R   0.245668 0.090704 0.426552 -0.035965
C72   C     C_R   0.271396 0.677361 0.859393 0.545057
C73   C     C_R   0.728593 0.677355 0.140623 0.546308
C74   C     C_R   0.771396 0.177361 0.859393 0.545055
C75   C     C_R   0.228593 0.177355 0.140623 0.546306
C76   C     C_R   0.273451 0.041319 0.644561 0.597300
C77   C     C_R   0.729596 0.045437 0.353412 0.583669
C78   C     C_R   0.773452 0.541312 0.644563 0.597465
C79   C     C_3   0.979712 0.235161 0.034593 0.425387
C80   C     C_R   0.229596 0.545437 0.353412 0.583619
C81   C     C_R   0.467263 0.822551 0.645681 0.603017
C82   C     C_R   0.530617 0.824881 0.353091 0.604243
C83   C     C_R   0.967274 0.322549 0.645687 0.603071
C84   C     C_R   0.030622 0.324879 0.353094 0.604086
C85   C     C_R   0.261539 0.644449 0.641421 0.615368
C86   C     C_R   0.739049 0.637941 0.356241 0.609164
C87   C     C_R   0.761541 0.144455 0.641419 0.615404
C88   C     C_R   0.239053 0.137923 0.356238 0.608966
C89   C     C_3   0.480133 0.929082 0.035315 0.159835
C90   C     C_R   0.312642 0.584524 0.974728 0.166585
C91   C     C_3   0.519630 0.929154 0.964790 0.159700
C92   C     C_3   0.980133 0.429082 0.035315 0.159836
C93   C     C_3   0.019630 0.429154 0.964790 0.159699
C94   C     C_3   0.429758 0.832046 0.005976 0.042719
C95   C     C_3   0.570109 0.832157 0.994058 0.042310
C96   C     C_3   0.929758 0.332046 0.005976 0.042722
C97   C     C_3   0.070109 0.332157 0.994058 0.042307
C98   C     C_3   0.470296 0.830788 0.936065 -0.069868
C99   C     C_3   0.529579 0.830756 0.063968 -0.070167
C100  C     C_3   0.970296 0.330788 0.936065 -0.069862
Cr1   Cr    Cr6+3 0.229630 0.835900 0.747350 1.216332
Cr2   Cr    Cr6+3 0.614200 0.677120 0.250660 1.230115
Cr3   Cr    Cr6+3 0.885800 0.177120 0.749340 1.226194
Cr4   Cr    Cr6+3 0.114200 0.177120 0.250660 1.230110
Cr5   Cr    Cr6+3 0.770370 0.835900 0.252650 1.204275
Cr6   Cr    Cr6+3 0.729630 0.335900 0.747350 1.216393
Cr7   Cr    Cr6+3 0.270370 0.335900 0.252650 1.204251
Cr8   Cr    Cr6+3 0.387410 0.989850 0.750850 1.198210
Cr9   Cr    Cr6+3 0.612590 0.989850 0.249150 1.188392
Cr10  Cr    Cr6+3 0.887410 0.489850 0.750850 1.198218
Cr11  Cr    Cr6+3 0.112590 0.489850 0.249150 1.188395
Cr12  Cr    Cr6+3 0.385800 0.677120 0.749340 1.226212
F1    F     F_    0.186724 0.799691 0.548597 -0.529349
F2    F     F_    0.620402 0.603421 0.442924 -0.536665
F3    F     F_    0.831301 0.948722 0.580860 -0.508219
F4    F     F_    0.120365 0.102796 0.442856 -0.536056
F5    F     F_    0.535856 0.631827 0.929875 -0.445545
F6    F     F_    0.464254 0.631683 0.070049 -0.444832
F7    F     F_    0.035856 0.131827 0.929876 -0.445552
F8    F     F_    0.964253 0.131683 0.070049 -0.444828
F9    F     F_    0.357716 0.540035 0.090348 -0.475209
F10   F     F_    0.642320 0.539778 0.909687 -0.476118
F11   F     F_    0.857716 0.040035 0.090348 -0.475204
F12   F     F_    0.869498 0.571447 0.413257 -0.533937
F13   F     F_    0.142320 0.039778 0.909687 -0.476129
F14   F     F_    0.433183 0.632010 0.552825 -0.507710
F15   F     F_    0.449608 0.643846 0.414659 -0.508331
F16   F     F_    0.933219 0.131986 0.552836 -0.507668
F17   F     F_    0.949642 0.143823 0.414673 -0.508230
F18   F     F_    0.686754 0.299732 0.548593 -0.529414
F19   F     F_    0.369555 0.071831 0.413299 -0.533770
F20   F     F_    0.185017 0.766922 0.409147 -0.512865
F21   F     F_    0.886424 0.549192 0.552888 -0.552301
F22   F     F_    0.685029 0.266936 0.409141 -0.512940
F23   F     F_    0.386464 0.049722 0.552919 -0.551837
F24   F     F_    0.331303 0.448720 0.580859 -0.508172
O1    O     O_R   0.214270 0.709000 0.827470 -0.438301
O2    O     O_R   0.543270 0.717630 0.330160 -0.380068
O3    O     O_R   0.956730 0.217630 0.669840 -0.412791
O4    O     O_R   0.043270 0.217630 0.330160 -0.380174
O5    O     O_R   0.320620 0.625640 0.672920 -0.425589
O6    O     O_R   0.679380 0.625640 0.327080 -0.435987
O7    O     O_R   0.820620 0.125640 0.672920 -0.425578
O8    O     O_R   0.179380 0.125640 0.327080 -0.436028
O9    O     O_3   0.334280 0.834290 0.749180 -0.403590
O10   O     O_3   0.665720 0.834290 0.250820 -0.399994
O11   O     O_3   0.834280 0.334290 0.749180 -0.403569
O12   O     O_R   0.785730 0.709000 0.172530 -0.433596
O13   O     O_3   0.165720 0.334290 0.250820 -0.400019
O14   O     O_R   0.236160 0.958490 0.823130 -0.446499
O15   O     O_R   0.763840 0.958490 0.176870 -0.444096
O16   O     O_R   0.736160 0.458490 0.823130 -0.446499
O17   O     O_R   0.263840 0.458490 0.176870 -0.444092
O18   O     O_R   0.332080 0.075470 0.831280 -0.487071
O19   O     O_R   0.667920 0.075470 0.168720 -0.482187
O20   O     O_R   0.832080 0.575470 0.831280 -0.487081
O21   O     O_R   0.167920 0.575470 0.168720 -0.482184
O22   O     O_R   0.446300 0.918110 0.826620 -0.455699
O23   O     O_R   0.714270 0.209000 0.827470 -0.438304
O24   O     O_R   0.553700 0.918110 0.173380 -0.453134
O25   O     O_R   0.946300 0.418110 0.826620 -0.455724
O26   O     O_R   0.053700 0.418110 0.173380 -0.453114
O27   O     O_R   0.457110 0.716200 0.831760 -0.402192
O28   O     O_R   0.542890 0.716200 0.168240 -0.400736
O29   O     O_R   0.957110 0.216200 0.831760 -0.402217
O30   O     O_R   0.042890 0.216200 0.168240 -0.400706
O31   O     O_R   0.320980 0.624310 0.823030 -0.476061
O32   O     O_R   0.679020 0.624310 0.176970 -0.476120
O33   O     O_R   0.820980 0.124310 0.823030 -0.476060
O34   O     O_R   0.285730 0.209000 0.172530 -0.433603
O35   O     O_R   0.179020 0.124310 0.176970 -0.476105
O36   O     O_R   0.213890 0.710430 0.665540 -0.423392
O37   O     O_R   0.786110 0.710430 0.334460 -0.437113
O38   O     O_R   0.713890 0.210430 0.665540 -0.423411
O39   O     O_R   0.286110 0.210430 0.334460 -0.437022
O40   O     O_R   0.235810 0.959820 0.673020 -0.453597
O41   O     O_R   0.764190 0.959820 0.326980 -0.488232
O42   O     O_R   0.735810 0.459820 0.673020 -0.453547
O43   O     O_R   0.264190 0.459820 0.326980 -0.488242
O44   O     O_R   0.331700 0.076900 0.669350 -0.418113
O45   O     O_R   0.445950 0.919440 0.676520 -0.439147
O46   O     O_R   0.668300 0.076900 0.330650 -0.421676
O47   O     O_R   0.831700 0.576900 0.669350 -0.418189
O48   O     O_R   0.168300 0.576900 0.330650 -0.421675
O49   O     O_R   0.554050 0.919440 0.323480 -0.482038
O50   O     O_R   0.945950 0.419440 0.676520 -0.439005
O51   O     O_R   0.054050 0.419440 0.323480 -0.481995
O52   O     O_R   0.456730 0.717630 0.669840 -0.412674

loop_
_geom_bond_atom_site_label_1
_geom_bond_atom_site_label_2
_ccdc_geom_bond_type
C42   C99   S    
C6    C90   A    
C5    C27   A    
Cr12  O5    S    
C35   O17   A    
C59   C63   A    
C1    C14   S    
C82   O2    A    
Cr12  O31   S    
Br20  C39   S    
C83   O50   A    
C65   C70   A    
C52   C56   A    
C81   O52   A    
C33   C81   S    
C41   O27   A    
Cr7   O34   S    
C42   O28   A    
C45   F1    S    
Cr2   O10   S    
Br26  C61   S    
C29   F15   S    
C88   O8    A    
C2    C7    A    
Br27  C62   S    
C76   O40   A    
Cr3   O33   S    
C67   C85   S    
C41   C98   S    
Cr2   O32   S    
Br28  C89   S    
C89   C91   S    
C44   O30   A    
Br13  C18   S    
Cr6   O42   S    
Cr5   O41   S    
C54   C59   A    
C84   O4    A    
C87   O38   A    
C27   C75   S    
Cr10  O47   S    
C47   C69   A    
C23   C90   A    
C28   C29   A    
C68   C100  S    
Br19  C38   S    
C14   C18   A    
C84   O51   A    
C44   O26   A    
C9    C14   A    
Cr2   O2    S    
Br1   C94   S    
C46   F5    S    
Cr1   O40   S    
Cr9   O46   S    
C33   C38   A    
C60   C64   A    
C25   C73   S    
Cr12  O9    S    
C35   O21   A    
C68   C97   S    
C45   C50   A    
C62   C66   A    
C7    F10   S    
C46   C95   S    
Cr10  O20   S    
Cr5   O10   S    
C53   C58   A    
C65   F3    S    
C73   O32   A    
C42   O24   A    
Cr4   O13   S    
Br23  C97   S    
Cr9   O24   S    
Cr9   O49   S    
Br24  C59   S    
Cr11  O26   S    
C76   O44   A    
C55   C60   A    
Cr3   O3    S    
C21   C26   A    
C6    C10   A    
Cr4   O30   S    
C53   F23   S    
Cr1   O9    S    
Cr3   O29   S    
C3    C79   S    
C79   C96   S    
C51   F21   S    
C80   O43   A    
C81   O45   A    
C4    C26   A    
C80   O48   A    
C6    F9    S    
Cr2   O28   S    
C64   C69   A    
Cr6   O38   S    
Cr5   O37   S    
C12   C17   A    
C2    C25   A    
Br9   C15   S    
Cr6   O11   S    
Br10  C16   S    
C39   C40   A    
C24   O20   A    
C8    C12   A    
C82   O49   A    
C32   C82   S    
C57   F6    S    
Cr7   O13   S    
C93   C100  S    
C87   O7    A    
C58   C62   A    
C74   O33   A    
Cr11  O51   S    
C71   C88   S    
Cr8   O44   S    
Cr5   O15   S    
C29   C32   A    
C85   O5    A    
C30   C36   A    
C30   C31   A    
Br25  C60   S    
C5    C9    A    
C77   O46   A    
C72   O1    A    
Br18  C37   S    
C75   O34   A    
C94   C98   S    
Br17  C22   S    
C7    C11   A    
C89   C94   S    
C24   O16   A    
C93   C97   S    
Cr11  O13   S    
C9    F13   S    
C50   C54   A    
C95   C99   S    
C49   C53   A    
C47   F12   S    
Br2   C91   S    
C22   C27   A    
Cr3   O7    S    
Cr7   O17   S    
C17   C21   A    
C86   O37   A    
C34   C84   S    
C57   C94   S    
C75   O35   A    
C43   O25   A    
Br22  C96   S    
C89   C99   S    
C52   F22   S    
C11   C16   A    
C30   F16   S    
C49   F19   S    
C34   C39   A    
C28   F14   S    
C3    C44   S    
Br6   C2    S    
C68   C79   S    
C32   C37   A    
C54   C80   S    
C1    O14   A    
Br21  C40   S    
C63   F24   S    
C57   C99   S    
Cr10  O25   S    
C56   C77   S    
C56   C61   A    
C45   C67   A    
C36   C40   A    
Br16  C21   S    
C88   O39   A    
C64   F2    S    
C92   C93   S    
Cr7   O43   S    
C10   C35   S    
C72   O31   A    
C50   F20   S    
C23   C72   S    
C86   O6    A    
C68   F7    S    
Cr8   O9    S    
Cr10  O50   S    
C31   C34   A    
Br7   C4    S    
Cr8   O22   S    
C1    O18   A    
Br15  C20   S    
Cr6   O23   S    
C13   O15   A    
Cr4   O4    S    
C36   C83   S    
C58   C76   S    
C78   O42   A    
C19   C23   A    
C48   C52   A    
C4    C8    A    
C8    F11   S    
C77   O41   A    
Br14  C19   S    
Cr9   O19   S    
C91   C95   S    
Cr11  O48   S    
Cr4   O8    S    
Cr1   O14   S    
C18   C22   A    
C74   O23   A    
C55   C78   S    
C96   C100  S    
Br5   C90   S    
C26   C74   S    
Cr10  O11   S    
C66   F4    S    
Cr9   O10   S    
C51   C55   A    
C79   F8    S    
C31   F17   S    
Cr7   O39   S    
C70   C87   S    
C46   C98   S    
Br12  C95   S    
C47   C51   A    
C66   C71   A    
Cr2   O6    S    
Br11  C17   S    
C78   O47   A    
C48   F18   S    
Cr3   O11   S    
C20   C25   A    
C85   O36   A    
Br4   C93   S    
C11   C24   S    
C48   C70   A    
Br8   C5    S    
Cr4   O35   S    
C46   C57   S    
C61   C65   A    
C43   C100  S    
Cr5   O12   S    
C3    C92   S    
Cr1   O36   S    
C43   O29   A    
Br3   C92   S    
Cr12  O52   S    
C63   C67   A    
Cr8   O45   S    
C91   C98   S    
C92   C96   S    
C10   C15   A    
C83   O3    A    
C37   C38   A    
Cr8   O18   S    
Cr1   O1    S    
Cr12  O27   S    
C3    C97   S    
C28   C33   A    
C13   O19   A    
C73   O12   A    
C12   C13   S    
C49   C71   A    
Cr6   O16   S    
C69   C86   S    
Cr11  O21   S    
C15   C19   A    
C41   O22   A    
C16   C20   A    
