data_mof_unit_64659.cif
_audit_creation_date              2012-12-10T19:11:03-0500
_audit_creation_method            fapswitch 2.2
_symmetry_space_group_name_H-M    P1
_symmetry_Int_Tables_number       1
_space_group_crystal_system       triclinic
_cell_length_a                    37.639606
_cell_length_b                    30.206523
_cell_length_c                    21.662508
_cell_angle_alpha                 90.058069
_cell_angle_beta                  53.408021
_cell_angle_gamma                 90.124778
_cell_volume                      19774.9524835

loop_
_atom_site_label
_atom_site_type_symbol
_atom_type_description
_atom_site_fract_x
_atom_site_fract_y
_atom_site_fract_z
_atom_type_partial_charge
C1    C     C_R   0.086387 0.500099 0.414274 0.978394
C2    C     C_R   0.973826 0.467050 0.245104 0.017421
C3    C     C_R   0.202502 0.961230 0.781195 0.433748
C4    C     C_R   0.274746 0.505123 0.234485 -0.154006
C5    C     C_R   0.725618 0.501074 0.767583 -0.144786
C6    C     C_R   0.774746 0.005125 0.234491 -0.153988
C7    C     C_R   0.225617 0.001077 0.767582 -0.144762
C8    C     C_R   0.999941 0.413754 0.000048 0.990184
C9    C     C_R   0.499941 0.913754 0.000050 0.990317
C10   C     C_R   0.000566 0.499426 0.879431 0.987653
C11   C     C_R   0.999423 0.499299 0.120598 0.985421
C12   C     C_R   0.500565 0.999427 0.879432 0.987653
C13   C     C_R   0.525171 0.966456 0.756051 0.011948
C14   C     C_R   0.499423 0.999300 0.120599 0.985445
C15   C     C_R   0.000044 0.585987 0.000090 1.092064
C16   C     C_R   0.500044 0.085987 0.000090 1.092046
C17   C     C_R   0.499988 0.413854 0.999980 1.099140
C18   C     C_R   0.999988 0.913854 0.999980 1.099126
C19   C     C_R   0.413978 0.500010 0.086850 1.042622
C20   C     C_R   0.586045 0.500095 0.913201 1.064922
C21   C     C_R   0.913978 0.000010 0.086850 1.042604
C22   C     C_R   0.086045 0.000094 0.913201 1.064916
C23   C     C_R   0.499911 0.586326 0.000108 1.022386
C24   C     C_R   0.473814 0.967060 0.245117 0.017450
C25   C     C_R   0.999910 0.086326 0.000109 1.022388
C26   C     C_R   0.028941 0.296734 0.008100 0.573055
C27   C     C_R   0.969330 0.296862 0.994403 0.571427
C28   C     C_R   0.528953 0.796737 0.008088 0.573079
C29   C     C_R   0.469335 0.796860 0.994413 0.571295
C30   C     C_R   0.959211 0.605402 0.711678 0.325287
C31   C     C_R   0.046255 0.603503 0.283391 0.327669
C32   C     C_R   0.459184 0.105391 0.711704 0.325296
C33   C     C_R   0.546265 0.103496 0.283386 0.327667
C34   C     C_R   0.030613 0.342793 0.004845 0.302892
C35   C     C_R   0.025365 0.467263 0.691596 0.508173
C36   C     C_R   0.968371 0.342938 0.996560 0.302504
C37   C     C_R   0.530620 0.842796 0.004841 0.302946
C38   C     C_R   0.468370 0.842936 0.996575 0.302461
C39   C     C_R   0.999703 0.365827 0.000352 -0.426971
C40   C     C_R   0.499704 0.865827 0.000358 -0.427063
C41   C     C_R   0.998976 0.274128 0.001474 -0.127474
C42   C     C_R   0.498988 0.774128 0.001468 -0.127771
C43   C     C_R   0.513228 0.703666 0.933930 0.578770
C44   C     C_R   0.484633 0.703423 0.068471 0.581171
C45   C     C_R   0.013233 0.203666 0.933930 0.578740
C46   C     C_R   0.973451 0.468221 0.309750 0.507832
C47   C     C_R   0.984597 0.203423 0.068491 0.581256
C48   C     C_R   0.513521 0.657823 0.933374 0.453450
C49   C     C_R   0.484826 0.657569 0.068312 0.462379
C50   C     C_R   0.013530 0.157823 0.933372 0.453427
C51   C     C_R   0.984797 0.157568 0.068330 0.462291
C52   C     C_R   0.499469 0.634451 0.000574 -0.525945
C53   C     C_R   0.999463 0.134451 0.000580 -0.525903
C54   C     C_R   0.498895 0.726316 0.001332 -0.222172
C55   C     C_R   0.998880 0.226316 0.001342 -0.222223
C56   C     C_R   0.999754 0.702371 0.944141 0.551829
C57   C     C_R   0.525378 0.967277 0.691584 0.508194
C58   C     C_R   0.001001 0.702492 0.055311 0.554266
C59   C     C_R   0.499748 0.202371 0.944147 0.551833
C60   C     C_R   0.501008 0.202492 0.055303 0.554273
C61   C     C_R   0.001408 0.656303 0.942346 0.322931
C62   C     C_R   0.999197 0.656410 0.057340 0.320450
C63   C     C_R   0.501401 0.156303 0.942353 0.322939
C64   C     C_R   0.499204 0.156410 0.057333 0.320450
C65   C     C_R   0.000178 0.633615 0.999974 -0.437954
C66   C     C_R   0.500178 0.133615 0.999974 -0.437963
C67   C     C_R   0.945456 0.563147 0.745707 -0.187560
C68   C     C_R   0.473443 0.968229 0.309759 0.507787
C69   C     C_R   0.057566 0.560828 0.250782 -0.199761
C70   C     C_R   0.445437 0.063133 0.745724 -0.187598
C71   C     C_R   0.557574 0.060822 0.250775 -0.199790
C72   C     C_R   0.000372 0.725515 0.999715 -0.222030
C73   C     C_R   0.500372 0.225515 0.999714 -0.222032
C74   C     C_R   0.466267 0.296978 0.065706 0.439445
C75   C     C_R   0.534133 0.297187 0.933856 0.435888
C76   C     C_R   0.966263 0.796978 0.065704 0.439453
C77   C     C_R   0.034134 0.797187 0.933860 0.435885
C78   C     C_R   0.467321 0.343063 0.066332 0.480741
C79   C     C_R   0.000843 0.500124 0.685886 -0.277680
C80   C     C_R   0.532809 0.343253 0.933297 0.498230
C81   C     C_R   0.967317 0.843063 0.066330 0.480728
C82   C     C_R   0.032811 0.843253 0.933300 0.498224
C83   C     C_R   0.500032 0.366027 0.999861 -0.488227
C84   C     C_R   0.000032 0.866027 0.999861 -0.488235
C85   C     C_R   0.500276 0.273893 0.999771 -0.163126
C86   C     C_R   0.000275 0.773893 0.999772 -0.163131
C87   C     C_R   0.901071 0.550291 0.784972 0.490428
C88   C     C_R   0.101749 0.546812 0.207237 0.482826
C89   C     C_R   0.401053 0.050271 0.784995 0.490436
C90   C     C_R   0.999330 0.500184 0.313992 -0.261931
C91   C     C_R   0.601757 0.046806 0.207221 0.482849
C92   C     C_R   0.870279 0.579257 0.790644 0.255904
C93   C     C_R   0.134845 0.575249 0.194823 0.259652
C94   C     C_R   0.370254 0.079234 0.790687 0.255908
C95   C     C_R   0.634855 0.075242 0.194801 0.259641
C96   C     C_R   0.884471 0.620204 0.752200 0.243736
C97   C     C_R   0.123346 0.616727 0.231500 0.219333
C98   C     C_R   0.384437 0.120184 0.752254 0.243746
C99   C     C_R   0.623358 0.116719 0.231482 0.219323
C100  C     C_R   0.978101 0.532191 0.806097 0.589867
C101  C     C_R   0.500843 0.000127 0.685885 -0.277678
C102  C     C_R   0.022780 0.531580 0.193053 0.590264
C103  C     C_R   0.478087 0.032184 0.806109 0.589897
C104  C     C_R   0.522787 0.031575 0.193046 0.590283
C105  C     C_3   0.849383 0.636779 0.699447 -0.149784
C106  C     C_3   0.165855 0.634384 0.269922 -0.012227
C107  C     C_3   0.349342 0.136768 0.699519 -0.149805
C108  C     C_3   0.665873 0.134373 0.269893 -0.012228
C109  C     C_3   0.118209 0.288643 0.739645 -0.094200
C110  C     C_3   0.879023 0.289875 0.261967 -0.090793
C111  C     C_3   0.618231 0.788661 0.739624 -0.094385
C112  C     C_R   0.913742 0.499989 0.586287 1.031040
C113  C     C_R   0.499330 0.000185 0.313992 -0.261927
C114  C     C_3   0.379045 0.789856 0.261967 -0.091221
C115  C     C_3   0.240473 0.443248 0.150020 -0.177044
C116  C     C_3   0.766015 0.472534 0.872708 -0.161996
C117  C     C_3   0.740470 0.943217 0.150056 -0.177044
C118  C     C_3   0.266016 0.972506 0.872697 -0.161969
C119  C     C_3   0.138688 0.393262 0.353635 -0.122820
C120  C     C_3   0.861810 0.403937 0.704157 -0.110861
C121  C     C_3   0.638688 0.893260 0.353705 -0.122844
C122  C     C_3   0.361808 0.903925 0.704122 -0.110873
C123  C     C_3   0.123323 0.565737 0.496530 -0.121570
C124  C     C_R   0.976792 0.532459 0.743679 0.029189
C125  C     C_3   0.855033 0.590061 0.538450 -0.098632
C126  C     C_3   0.623332 0.065730 0.496529 -0.121697
C127  C     C_3   0.355032 0.090074 0.538467 -0.098587
C128  C     C_3   0.274079 0.569847 0.115875 -0.219435
C129  C     C_3   0.731970 0.591268 0.835946 -0.243727
C130  C     C_3   0.774079 0.069822 0.115849 -0.219435
C131  C     C_3   0.231957 0.091259 0.835997 -0.243729
C132  C     C_3   0.376283 0.605396 0.116235 -0.157754
C133  C     C_3   0.627939 0.601319 0.827075 -0.136446
C134  C     C_3   0.876282 0.105395 0.116192 -0.157737
C135  C     C_R   0.024400 0.531726 0.255153 0.027459
C136  C     C_3   0.127937 0.101328 0.827118 -0.136422
C137  C     C_3   0.266167 0.451329 0.365924 -0.195203
C138  C     C_3   0.732062 0.415973 0.678226 -0.196952
C139  C     C_3   0.766169 0.951364 0.365955 -0.195163
C140  C     C_3   0.232065 0.915995 0.678185 -0.196895
C141  C     C_3   0.102032 0.363709 0.947746 0.005464
C142  C     C_3   0.897246 0.364413 0.052793 0.007806
C143  C     C_3   0.602038 0.863720 0.947729 0.005479
C144  C     C_3   0.397243 0.864408 0.052828 0.007843
C145  C     C_3   0.046009 0.628913 0.821391 -0.220185
C146  C     C_R   0.476780 0.032452 0.743690 0.029174
C147  C     C_3   0.955023 0.629496 0.178759 -0.215973
C148  C     C_3   0.545992 0.128910 0.821398 -0.220212
C149  C     C_3   0.455038 0.129494 0.178750 -0.215951
C150  C     C_3   0.397320 0.268504 0.126478 -0.186691
C151  C     C_3   0.603350 0.269672 0.872765 -0.183965
C152  C     C_3   0.897318 0.768505 0.126463 -0.186696
C153  C     C_3   0.103350 0.769672 0.872782 -0.183948
C154  C     C_3   0.007335 0.651947 0.710511 -0.132691
C155  C     C_3   0.997914 0.650370 0.286511 -0.133943
C156  C     C_3   0.507305 0.151942 0.710538 -0.132695
C157  C     C_R   0.524406 0.031722 0.255147 0.027452
C158  C     C_3   0.497923 0.150366 0.286513 -0.133959
C159  C     C_3   0.803779 0.580082 0.907216 -0.231447
C160  C     C_3   0.196265 0.572647 0.071828 -0.194578
C161  C     C_3   0.303762 0.080043 0.907271 -0.231424
C162  C     C_3   0.696268 0.072647 0.071800 -0.194551
C163  C     C_3   0.089678 0.445128 0.579335 -0.327257
C164  C     C_3   0.908480 0.451152 0.424005 -0.251584
C165  C     C_3   0.589724 0.945205 0.579301 -0.327439
C166  C     C_3   0.408474 0.951176 0.424031 -0.251504
C167  C     C_R   0.088301 0.431809 0.748368 0.442178
C168  C     C_R   0.910243 0.433101 0.252946 0.443811
C169  C     C_R   0.588334 0.931835 0.748298 0.442339
C170  C     C_R   0.410197 0.933151 0.253028 0.443647
C171  C     C_R   0.107340 0.395477 0.758536 0.507403
C172  C     C_R   0.586387 0.000098 0.414274 0.978350
C173  C     C_R   0.890793 0.396996 0.242897 0.511003
C174  C     C_R   0.607386 0.895511 0.758455 0.507439
C175  C     C_R   0.390716 0.897059 0.243020 0.511351
C176  C     C_R   0.084485 0.355127 0.785668 0.244573
C177  C     C_R   0.913069 0.356407 0.216336 0.243727
C178  C     C_R   0.584535 0.855159 0.785615 0.244637
C179  C     C_R   0.412969 0.856458 0.216456 0.243959
C180  C     C_R   0.041834 0.351779 0.804672 -0.424591
C181  C     C_R   0.955607 0.352607 0.197667 -0.425672
C182  C     C_R   0.541873 0.851805 0.804664 -0.424689
C183  C     C_R   0.413741 0.999989 0.586287 1.030988
C184  C     C_R   0.455523 0.852640 0.197715 -0.426209
C185  C     C_R   0.022517 0.388119 0.795424 0.642872
C186  C     C_R   0.975304 0.388694 0.206917 0.641987
C187  C     C_R   0.522544 0.888139 0.795428 0.642688
C188  C     C_R   0.475249 0.888713 0.206929 0.642036
C189  C     C_R   0.999872 0.499999 0.620451 0.935253
C190  C     C_R   0.000425 0.499997 0.379265 0.951684
C191  C     C_R   0.499874 0.999999 0.620449 0.935335
C192  C     C_R   0.500426 0.999998 0.379264 0.951643
C193  C     C_R   0.045609 0.428394 0.767312 -0.223421
C194  C     C_R   0.001984 0.499542 0.812122 -0.279992
C195  C     C_R   0.952752 0.429187 0.234587 -0.230198
C196  C     C_R   0.545633 0.928413 0.767284 -0.223229
C197  C     C_R   0.452715 0.929213 0.234623 -0.230097
C198  C     C_R   0.205753 0.467680 0.272752 0.403341
C199  C     C_R   0.794941 0.475887 0.745859 0.404696
C200  C     C_R   0.705754 0.967674 0.272772 0.403329
C201  C     C_R   0.294940 0.975881 0.745850 0.404699
C202  C     C_R   0.159565 0.465048 0.320242 0.352232
C203  C     C_R   0.841215 0.473770 0.698887 0.336915
C204  C     C_R   0.659566 0.965041 0.320262 0.352208
C205  C     C_R   0.997985 0.499484 0.187972 -0.275282
C206  C     C_R   0.341214 0.973763 0.698878 0.336911
C207  C     C_R   0.134527 0.500603 0.369797 -0.427258
C208  C     C_R   0.865750 0.500161 0.632394 -0.400590
C209  C     C_R   0.634528 0.000602 0.369802 -0.427310
C210  C     C_R   0.365749 0.000162 0.632393 -0.400605
C211  C     C_R   0.155842 0.536531 0.377283 0.267056
C212  C     C_R   0.844862 0.526265 0.608776 0.272981
C213  C     C_R   0.655841 0.036532 0.377284 0.267102
C214  C     C_R   0.344862 0.026274 0.608783 0.272974
C215  C     C_R   0.201796 0.537734 0.332397 0.533007
C216  C     C_R   0.501981 0.999544 0.812124 -0.280057
C217  C     C_R   0.798489 0.524486 0.652316 0.517458
C218  C     C_R   0.701795 0.037738 0.332394 0.532914
C219  C     C_R   0.298489 0.024496 0.652324 0.517434
C220  C     C_R   0.226647 0.503671 0.280335 -0.165782
C221  C     C_R   0.773878 0.500547 0.721224 -0.151374
C222  C     C_R   0.726647 0.003672 0.280342 -0.165739
C223  C     C_R   0.273878 0.000550 0.721224 -0.151346
C224  C     C_R   0.298442 0.539157 0.180097 0.431615
C225  C     C_R   0.702571 0.541236 0.799511 0.438576
C226  C     C_R   0.798441 0.039152 0.180087 0.431604
C227  C     C_R   0.497984 0.999486 0.187972 -0.275280
C228  C     C_R   0.202570 0.041236 0.799529 0.438567
C229  C     C_R   0.344737 0.538217 0.132700 0.295963
C230  C     C_R   0.656265 0.541124 0.846038 0.293794
C231  C     C_R   0.844737 0.038212 0.132687 0.295966
C232  C     C_R   0.156264 0.041124 0.846056 0.293781
C233  C     C_R   0.366432 0.502016 0.137030 -0.430967
C234  C     C_R   0.633684 0.500758 0.863404 -0.418594
C235  C     C_R   0.866432 0.002017 0.137032 -0.430978
C236  C     C_R   0.133684 0.000758 0.863404 -0.418594
C237  C     C_R   0.928725 0.633230 0.713208 0.441761
C238  C     C_R   0.025161 0.466444 0.756062 0.011928
C239  C     C_R   0.079151 0.630691 0.275640 0.454185
C240  C     C_R   0.428689 0.133216 0.713253 0.441742
C241  C     C_R   0.579163 0.130684 0.275630 0.454188
C242  C     C_R   0.342886 0.469132 0.192686 0.487190
C243  C     C_R   0.656502 0.461148 0.830727 0.477015
C244  C     C_R   0.842886 0.969141 0.192705 0.487218
C245  C     C_R   0.156503 0.961151 0.830708 0.477019
C246  C     C_R   0.297043 0.471036 0.242778 0.423467
C247  C     C_R   0.702501 0.461225 0.781215 0.433767
C248  C     C_R   0.797043 0.971047 0.242799 0.423455
F1    F     F_    0.981259 0.384127 0.813996 -0.567635
F2    F     F_    0.634102 0.422427 0.846981 -0.587803
F3    F     F_    0.864398 0.934949 0.197855 -0.565138
F4    F     F_    0.134104 0.922431 0.846944 -0.587774
F5    F     F_    0.942124 0.672547 0.675441 -0.596636
F6    F     F_    0.068323 0.670710 0.310975 -0.594043
F7    F     F_    0.442080 0.172537 0.675497 -0.596653
F8    F     F_    0.568337 0.170701 0.310967 -0.594047
F9    F     F_    0.056313 0.273977 0.017998 -0.602896
F10   F     F_    0.941713 0.274210 0.984790 -0.607090
F11   F     F_    0.556333 0.773984 0.017972 -0.602808
F12   F     F_    0.016459 0.384273 0.188586 -0.564095
F13   F     F_    0.441714 0.774206 0.984811 -0.607030
F14   F     F_    0.527442 0.726080 0.868619 -0.607652
F15   F     F_    0.470169 0.725603 0.134120 -0.605587
F16   F     F_    0.027463 0.226081 0.868610 -0.607661
F17   F     F_    0.970108 0.225604 0.134152 -0.605416
F18   F     F_    0.528414 0.636527 0.866778 -0.597293
F19   F     F_    0.469895 0.635991 0.134683 -0.585894
F20   F     F_    0.028442 0.136527 0.866767 -0.597333
F21   F     F_    0.969849 0.135989 0.134707 -0.585922
F22   F     F_    0.997379 0.724398 0.892052 -0.604930
F23   F     F_    0.481277 0.884140 0.814040 -0.567637
F24   F     F_    0.003517 0.724659 0.107201 -0.602444
F25   F     F_    0.497368 0.224398 0.892064 -0.604928
F26   F     F_    0.503530 0.224659 0.107187 -0.602438
F27   F     F_    0.435473 0.365352 0.130783 -0.554915
F28   F     F_    0.564421 0.365714 0.868765 -0.561528
F29   F     F_    0.935467 0.865352 0.130778 -0.554917
F30   F     F_    0.064426 0.865714 0.868770 -0.561501
F31   F     F_    0.887527 0.509824 0.818830 -0.594180
F32   F     F_    0.112968 0.506008 0.174392 -0.596866
F33   F     F_    0.387518 0.009801 0.818845 -0.594183
F34   F     F_    0.516415 0.884273 0.188544 -0.564071
F35   F     F_    0.612974 0.006003 0.174371 -0.596872
F36   F     F_    0.954874 0.563043 0.862486 -0.628117
F37   F     F_    0.046809 0.561853 0.135804 -0.631860
F38   F     F_    0.454851 0.063030 0.862507 -0.628116
F39   F     F_    0.546824 0.061843 0.135790 -0.631851
F40   F     F_    0.111328 0.470324 0.720346 -0.621352
F41   F     F_    0.887836 0.471911 0.280112 -0.610972
F42   F     F_    0.611357 0.970352 0.720253 -0.621380
F43   F     F_    0.387810 0.971971 0.280198 -0.610993
F44   F     F_    0.148273 0.399272 0.741317 -0.602990
F45   F     F_    0.222174 0.572206 0.340018 -0.618983
F46   F     F_    0.850039 0.401265 0.259575 -0.598636
F47   F     F_    0.648327 0.899313 0.741200 -0.602914
F48   F     F_    0.349952 0.901350 0.259747 -0.598434
F49   F     F_    0.777084 0.544089 0.626628 -0.646127
F50   F     F_    0.722172 0.072216 0.340004 -0.619026
F51   F     F_    0.277083 0.044107 0.626644 -0.646135
F52   F     F_    0.364397 0.434933 0.197821 -0.565161
H1    H     H_    0.023579 0.321024 0.827104 0.266170
H2    H     H_    0.191175 0.657931 0.261052 0.192918
H3    H     H_    0.250170 0.884488 0.652376 0.184676
H4    H     H_    0.123575 0.383877 0.955965 0.174326
H5    H     H_    0.104252 0.378068 0.898320 0.173576
H6    H     H_    0.115224 0.329398 0.934152 0.196444
H7    H     H_    0.876056 0.384580 0.043891 0.173953
H8    H     H_    0.895029 0.379065 0.102070 0.173380
H9    H     H_    0.883633 0.330217 0.067012 0.197163
H10   H     H_    0.623582 0.883889 0.955946 0.174317
H11   H     H_    0.604252 0.878083 0.898310 0.173495
H12   H     H_    0.615233 0.829411 0.934124 0.196444
H13   H     H_    0.335056 0.102941 0.709794 0.154264
H14   H     H_    0.376045 0.884560 0.043926 0.173965
H15   H     H_    0.395032 0.879078 0.102090 0.173254
H16   H     H_    0.383635 0.830211 0.067072 0.197162
H17   H     H_    0.046926 0.606248 0.780150 0.180772
H18   H     H_    0.067426 0.614070 0.835497 0.160885
H19   H     H_    0.059678 0.661445 0.792491 0.190245
H20   H     H_    0.954272 0.607052 0.220016 0.181176
H21   H     H_    0.933139 0.614590 0.165612 0.161342
H22   H     H_    0.941819 0.662174 0.207244 0.192551
H23   H     H_    0.546903 0.106244 0.780163 0.180761
H24   H     H_    0.381287 0.138973 0.640963 0.173929
H25   H     H_    0.567412 0.114065 0.835497 0.160888
H26   H     H_    0.559662 0.161441 0.792495 0.190250
H27   H     H_    0.454291 0.107050 0.220003 0.181179
H28   H     H_    0.433152 0.114586 0.165609 0.161348
H29   H     H_    0.441833 0.162170 0.207237 0.192543
H30   H     H_    0.407301 0.248408 0.075358 0.143014
H31   H     H_    0.383377 0.300806 0.125782 0.199646
H32   H     H_    0.370673 0.250155 0.178319 0.190762
H33   H     H_    0.593630 0.249800 0.923933 0.145796
H34   H     H_    0.617087 0.302260 0.873164 0.211141
H35   H     H_    0.325912 0.160160 0.701795 0.180438
H36   H     H_    0.630071 0.251433 0.820948 0.186946
H37   H     H_    0.907302 0.748408 0.075341 0.143011
H38   H     H_    0.883376 0.800806 0.125762 0.199632
H39   H     H_    0.870668 0.750155 0.178302 0.190763
H40   H     H_    0.093627 0.749800 0.923953 0.145787
H41   H     H_    0.117087 0.802260 0.873185 0.211133
H42   H     H_    0.130074 0.751433 0.820968 0.186951
H43   H     H_    0.988482 0.645114 0.773193 0.209423
H44   H     H_    0.996753 0.683998 0.701340 0.231326
H45   H     H_    0.042735 0.655377 0.686504 0.157551
H46   H     H_    0.680173 0.100584 0.258258 0.177463
H47   H     H_    0.014284 0.641366 0.225226 0.207216
H48   H     H_    0.010938 0.682517 0.290103 0.228239
H49   H     H_    0.962162 0.654905 0.313918 0.159404
H50   H     H_    0.488454 0.145105 0.773218 0.209412
H51   H     H_    0.496717 0.183993 0.701375 0.231331
H52   H     H_    0.542704 0.155375 0.686528 0.157552
H53   H     H_    0.514292 0.141364 0.225228 0.207189
H54   H     H_    0.510947 0.182512 0.290107 0.228239
H55   H     H_    0.462171 0.154900 0.313922 0.159407
H56   H     H_    0.804386 0.616762 0.911608 0.193575
H57   H     H_    0.636253 0.137358 0.330843 0.194094
H58   H     H_    0.817383 0.564023 0.935274 0.203456
H59   H     H_    0.768663 0.569794 0.939276 0.157752
H60   H     H_    0.196297 0.609095 0.064216 0.181521
H61   H     H_    0.178212 0.555576 0.052512 0.208056
H62   H     H_    0.231116 0.561280 0.034050 0.158275
H63   H     H_    0.304364 0.116723 0.911676 0.193569
H64   H     H_    0.317374 0.063980 0.935312 0.203474
H65   H     H_    0.268646 0.069751 0.939338 0.157755
H66   H     H_    0.696300 0.109096 0.064197 0.181522
H67   H     H_    0.678211 0.055582 0.052490 0.208057
H68   H     H_    0.691196 0.157917 0.261016 0.192931
H69   H     H_    0.731119 0.061279 0.034012 0.158284
H70   H     H_    0.106481 0.463219 0.600200 0.186478
H71   H     H_    0.090607 0.465074 0.535542 0.142723
H72   H     H_    0.108926 0.414539 0.550631 0.194249
H73   H     H_    0.910296 0.480673 0.452504 0.185217
H74   H     H_    0.890537 0.424921 0.468263 0.182828
H75   H     H_    0.889021 0.458840 0.401973 0.205614
H76   H     H_    0.606448 0.963523 0.600115 0.186243
H77   H     H_    0.590654 0.964955 0.535327 0.143099
H78   H     H_    0.609055 0.914619 0.550833 0.194340
H79   H     H_    0.143768 0.303212 0.682181 0.150762
H80   H     H_    0.410305 0.980693 0.452519 0.185199
H81   H     H_    0.390528 0.924948 0.468294 0.182811
H82   H     H_    0.389009 0.958874 0.402015 0.205641
H83   H     H_    0.090618 0.274379 0.740577 0.197137
H84   H     H_    0.133882 0.261049 0.749070 0.190356
H85   H     H_    0.973495 0.321711 0.175451 0.264376
H86   H     H_    0.853934 0.304305 0.319752 0.151740
H87   H     H_    0.906726 0.275155 0.260049 0.198248
H88   H     H_    0.862795 0.262640 0.252844 0.192810
H89   H     H_    0.643763 0.803211 0.682127 0.150788
H90   H     H_    0.590615 0.774385 0.740646 0.197210
H91   H     H_    0.633926 0.761078 0.749025 0.190344
H92   H     H_    0.354072 0.804217 0.319879 0.151668
H93   H     H_    0.406855 0.775088 0.259678 0.198649
H94   H     H_    0.362722 0.762669 0.252952 0.192805
H95   H     H_    0.268933 0.466452 0.118350 0.123717
H96   H     H_    0.523619 0.821051 0.827121 0.266131
H97   H     H_    0.211658 0.456688 0.153790 0.199012
H98   H     H_    0.250732 0.412238 0.116025 0.198619
H99   H     H_    0.744865 0.502296 0.889494 0.122562
H100  H     H_    0.798702 0.481412 0.859028 0.247260
H101  H     H_    0.749265 0.450174 0.923273 0.190173
H102  H     H_    0.768922 0.966430 0.118376 0.123713
H103  H     H_    0.711650 0.956638 0.153823 0.199010
H104  H     H_    0.750739 0.912201 0.116072 0.198614
H105  H     H_    0.244867 0.002270 0.889496 0.122577
H106  H     H_    0.298703 0.981377 0.859020 0.247269
H107  H     H_    0.473404 0.821742 0.175468 0.264220
H108  H     H_    0.249264 0.950139 0.923254 0.190164
H109  H     H_    0.172544 0.379950 0.325776 0.192896
H110  H     H_    0.123440 0.401833 0.414690 0.125078
H111  H     H_    0.118439 0.366483 0.353753 0.184803
H112  H     H_    0.828105 0.389683 0.744170 0.196186
H113  H     H_    0.873871 0.399055 0.643538 0.129792
H114  H     H_    0.884150 0.385144 0.711984 0.194074
H115  H     H_    0.672544 0.879950 0.325858 0.192895
H116  H     H_    0.623438 0.901847 0.414755 0.125161
H117  H     H_    0.618441 0.866472 0.353838 0.184800
H118  H     H_    0.835077 0.602960 0.709758 0.154287
H119  H     H_    0.328103 0.889670 0.744130 0.196189
H120  H     H_    0.373869 0.899052 0.643501 0.129798
H121  H     H_    0.384149 0.885126 0.711940 0.194054
H122  H     H_    0.096756 0.540756 0.530055 0.116955
H123  H     H_    0.110975 0.597276 0.529075 0.203833
H124  H     H_    0.153344 0.556161 0.492090 0.155209
H125  H     H_    0.883624 0.612224 0.499838 0.167665
H126  H     H_    0.834655 0.605988 0.596040 0.136918
H127  H     H_    0.835884 0.587491 0.514703 0.219400
H128  H     H_    0.596835 0.040676 0.530002 0.116702
H129  H     H_    0.881333 0.638958 0.640891 0.173908
H130  H     H_    0.610897 0.097241 0.529142 0.203862
H131  H     H_    0.653382 0.056246 0.492058 0.155436
H132  H     H_    0.383621 0.112240 0.499859 0.167659
H133  H     H_    0.334652 0.105999 0.596059 0.136922
H134  H     H_    0.335883 0.087504 0.514717 0.219403
H135  H     H_    0.252658 0.541274 0.125968 0.167146
H136  H     H_    0.307283 0.566083 0.059972 0.188961
H137  H     H_    0.258809 0.599994 0.111822 0.219811
H138  H     H_    0.757796 0.569457 0.828793 0.176644
H139  H     H_    0.700980 0.589151 0.895743 0.184477
H140  H     H_    0.825970 0.660181 0.701691 0.180428
H141  H     H_    0.744315 0.625784 0.826555 0.209774
H142  H     H_    0.752655 0.041250 0.125956 0.167174
H143  H     H_    0.807283 0.066048 0.059950 0.188952
H144  H     H_    0.758815 0.099967 0.111775 0.219819
H145  H     H_    0.257781 0.069446 0.828849 0.176680
H146  H     H_    0.200964 0.089138 0.895787 0.184494
H147  H     H_    0.244301 0.125775 0.826621 0.209781
H148  H     H_    0.396137 0.632004 0.073731 0.184585
H149  H     H_    0.395545 0.592825 0.136387 0.152782
H150  H     H_    0.344665 0.620366 0.164953 0.202329
H151  H     H_    0.180158 0.600596 0.258288 0.177471
H152  H     H_    0.609798 0.632748 0.853370 0.194674
H153  H     H_    0.608063 0.580762 0.815216 0.175656
H154  H     H_    0.660450 0.609840 0.772372 0.195855
H155  H     H_    0.896137 0.131997 0.073675 0.184584
H156  H     H_    0.895544 0.092832 0.136350 0.152803
H157  H     H_    0.844665 0.120368 0.164902 0.202327
H158  H     H_    0.109797 0.132756 0.853426 0.194681
H159  H     H_    0.108061 0.080777 0.815251 0.175679
H160  H     H_    0.160449 0.109853 0.772419 0.195853
H161  H     H_    0.245499 0.481766 0.389112 0.140720
H162  H     H_    0.136232 0.637367 0.330871 0.194094
H163  H     H_    0.297778 0.456636 0.358555 0.195950
H164  H     H_    0.247673 0.424710 0.409174 0.190632
H165  H     H_    0.752860 0.443064 0.637318 0.155817
H166  H     H_    0.700224 0.413520 0.685561 0.201605
H167  H     H_    0.750167 0.384464 0.652432 0.184667
H168  H     H_    0.745500 0.981801 0.389128 0.140723
H169  H     H_    0.797779 0.956678 0.358583 0.195942
H170  H     H_    0.747674 0.924752 0.409219 0.190648
H171  H     H_    0.252863 0.943090 0.637289 0.155825
H172  H     H_    0.200226 0.913547 0.685518 0.201606
O1    O     O_R   0.065470 0.536950 0.434540 -0.592456
O2    O     O_R   0.565480 0.500010 0.986250 -0.615304
O3    O     O_3   0.678457 0.061877 0.148511 -0.594570
O4    O     O_3   0.045673 0.433044 0.638727 -0.554424
O5    O     O_3   0.951080 0.435484 0.365119 -0.574767
O6    O     O_3   0.545726 0.933080 0.638675 -0.554497
O7    O     O_3   0.451066 0.935495 0.365134 -0.574792
O8    O     O_R   0.934520 0.000010 0.013750 -0.609886
O9    O     O_R   0.065480 0.000010 0.986250 -0.615310
O10   O     O_R   0.500000 0.565470 0.051720 -0.570235
O11   O     O_R   0.500000 0.565470 0.948280 -0.570919
O12   O     O_R   0.000000 0.065470 0.051720 -0.570240
O13   O     O_R   1.000000 0.065470 0.948280 -0.570936
O14   O     O_R   0.065450 0.463030 0.434550 -0.600527
O15   O     O_R   0.934550 0.463030 0.565450 -0.623957
O16   O     O_R   0.565450 0.963030 0.434550 -0.600539
O17   O     O_R   0.934530 0.536950 0.565460 -0.615466
O18   O     O_R   0.434550 0.963030 0.565450 -0.623942
O19   O     O_R   0.000000 0.536950 0.591620 -0.622419
O20   O     O_R   0.000000 0.536950 0.408380 -0.603349
O21   O     O_R   0.500000 0.036950 0.591620 -0.622362
O22   O     O_R   0.500000 0.036950 0.408380 -0.603328
O23   O     O_R   0.999990 0.463030 0.591630 -0.564984
O24   O     O_R   0.000010 0.463030 0.408370 -0.565202
O25   O     O_R   0.499990 0.963030 0.591630 -0.565046
O26   O     O_R   0.500010 0.963030 0.408370 -0.565219
O27   O     O_R   0.963040 0.434500 0.036950 -0.627391
O28   O     O_R   0.565470 0.036950 0.434540 -0.592412
O29   O     O_R   0.036960 0.434500 0.963050 -0.626255
O30   O     O_R   0.463040 0.934500 0.036950 -0.627429
O31   O     O_R   0.536960 0.934500 0.963050 -0.626289
O32   O     O_R   0.963030 0.499970 0.945350 -0.560215
O33   O     O_R   0.036970 0.499970 0.054650 -0.558625
O34   O     O_R   0.463030 0.999970 0.945350 -0.560167
O35   O     O_R   0.536970 0.999970 0.054650 -0.558595
O36   O     O_R   0.036950 0.499990 0.871430 -0.618660
O37   O     O_R   0.963050 0.499990 0.128570 -0.618339
O38   O     O_R   0.536950 0.999990 0.871430 -0.618765
O39   O     O_R   0.434530 0.036950 0.565460 -0.615442
O40   O     O_R   0.463050 0.999990 0.128570 -0.618421
O41   O     O_R   0.963030 0.565430 0.036970 -0.616395
O42   O     O_R   0.036970 0.565430 0.963030 -0.618248
O43   O     O_R   0.463030 0.065430 0.036970 -0.616381
O44   O     O_R   0.536970 0.065430 0.963030 -0.618241
O45   O     O_R   0.499980 0.434540 0.051730 -0.584465
O46   O     O_R   0.500020 0.434540 0.948270 -0.598048
O47   O     O_R   0.999980 0.934540 0.051730 -0.584473
O48   O     O_R   0.000020 0.934540 0.948270 -0.598049
O49   O     O_3   0.854570 0.648868 0.756456 -0.532013
O50   O     O_R   0.434520 0.500000 0.117190 -0.596192
O51   O     O_3   0.155693 0.645408 0.218917 -0.557888
O52   O     O_3   0.354527 0.148846 0.756533 -0.532024
O53   O     O_3   0.655707 0.145399 0.218894 -0.557888
O54   O     O_3   0.102800 0.320091 0.798583 -0.578646
O55   O     O_3   0.894346 0.321628 0.203494 -0.581077
O56   O     O_3   0.602864 0.820132 0.798515 -0.578663
O57   O     O_3   0.394200 0.821694 0.203676 -0.581089
O58   O     O_3   0.230222 0.433309 0.222572 -0.561981
O59   O     O_3   0.770280 0.450131 0.811577 -0.569598
O60   O     O_3   0.730224 0.933296 0.222610 -0.561977
O61   O     O_R   0.565480 0.500000 0.882810 -0.619465
O62   O     O_3   0.270279 0.950116 0.811558 -0.569615
O63   O     O_3   0.139015 0.429705 0.312538 -0.542965
O64   O     O_3   0.862753 0.448886 0.720991 -0.551788
O65   O     O_3   0.639018 0.929688 0.312579 -0.542981
O66   O     O_3   0.362752 0.948870 0.720972 -0.551797
O67   O     O_3   0.132292 0.572370 0.424051 -0.564656
O68   O     O_3   0.871396 0.547976 0.538153 -0.613202
O69   O     O_3   0.632287 0.072367 0.424062 -0.564615
O70   O     O_3   0.371397 0.047991 0.538166 -0.613195
O71   O     O_3   0.276518 0.575102 0.177834 -0.553253
O72   O     O_R   0.934520 1.000000 0.117190 -0.596160
O73   O     O_3   0.725028 0.581100 0.780436 -0.562377
O74   O     O_3   0.776517 0.075091 0.177807 -0.553282
O75   O     O_3   0.225026 0.081099 0.780471 -0.562401
O76   O     O_3   0.368711 0.571800 0.080063 -0.578949
O77   O     O_3   0.633104 0.580049 0.879159 -0.593857
O78   O     O_3   0.868710 0.071789 0.080035 -0.578952
O79   O     O_3   0.133102 0.080046 0.879193 -0.593871
O80   O     O_3   0.273965 0.437783 0.296526 -0.535067
O81   O     O_3   0.724845 0.421803 0.749474 -0.535501
O82   O     O_3   0.773966 0.937801 0.296565 -0.535067
O83   O     O_R   0.065480 0.000000 0.882810 -0.619442
O84   O     O_3   0.224847 0.921810 0.749436 -0.535515
O85   O     O_3   0.058402 0.365469 0.015947 -0.547592
O86   O     O_3   0.940979 0.365704 0.984786 -0.549432
O87   O     O_3   0.558410 0.865475 0.015937 -0.547457
O88   O     O_3   0.440972 0.865698 0.984812 -0.549318
O89   O     O_3   0.001716 0.633264 0.886880 -0.535708
O90   O     O_3   0.999156 0.633465 0.112555 -0.539038
O91   O     O_3   0.501702 0.133264 0.886894 -0.535719
O92   O     O_3   0.499169 0.133465 0.112542 -0.539039
O93   O     O_3   0.432919 0.274556 0.130829 -0.521064
O94   O     O_R   0.434520 0.500010 0.013750 -0.609889
O95   O     O_3   0.567592 0.274965 0.868696 -0.525407
O96   O     O_3   0.932913 0.774556 0.130824 -0.521056
O97   O     O_3   0.067596 0.774964 0.868703 -0.525401
O98   O     O_3   0.003304 0.617296 0.671343 -0.577370
O99   O     O_3   0.002545 0.617005 0.326752 -0.566010
O100  O     O_3   0.503275 0.117293 0.671365 -0.577360
O101  O     O_3   0.502555 0.116999 0.326752 -0.565994
O102  O     O_3   0.826647 0.566427 0.830134 -0.604665
O103  O     O_3   0.178447 0.561883 0.148545 -0.594571
O104  O     O_3   0.326623 0.066398 0.830185 -0.604679
Zn1   Zn    Zn3+2 1.000000 0.549340 0.500000 1.077429
Zn2   Zn    Zn3+2 0.500010 0.500000 0.930920 1.098888
Zn3   Zn    Zn3+2 0.999990 0.000000 0.069080 1.118742
Zn4   Zn    Zn3+2 0.000010 1.000000 0.930920 1.098894
Zn5   Zn    Zn3+2 0.500000 0.049340 0.500000 1.077488
Zn6   Zn    Zn3+2 0.000000 0.450640 0.500000 1.062201
Zn7   Zn    Zn3+2 0.500000 0.950640 0.500000 1.062202
Zn8   Zn    Zn3+2 0.950630 0.499960 0.049360 1.086042
Zn9   Zn    Zn3+2 0.049370 0.499960 0.950640 1.083490
Zn10  Zn    Zn3+2 0.450630 0.999960 0.049360 1.085994
Zn11  Zn    Zn3+2 0.549370 0.999960 0.950640 1.083421
Zn12  Zn    Zn3+2 0.499990 0.500000 0.069080 1.118739

loop_
_geom_bond_atom_site_label_1
_geom_bond_atom_site_label_2
_ccdc_geom_bond_type
C109  O54   S    
C136  O79   S    
C29   C42   A    
C96   C237  A    
C109  H84   S    
C104  C157  A    
C156  H52   S    
C108  H46   S    
C143  H12   S    
C128  H135  S    
O17   Zn1   S    
C125  H126  S    
C153  O97   S    
C19   O50   A    
C81   F29   S    
C123  H124  S    
C102  F37   S    
C6    C248  A    
C153  H42   S    
C92   O102  S    
C119  H110  S    
C120  H113  S    
C94   O104  S    
C190  O20   A    
C58   F24   S    
C80   F28   S    
C134  H157  S    
C2    C195  S    
C131  H146  S    
C89   C94   A    
O43   Zn10  S    
C229  O76   S    
C210  C214  A    
C56   C72   A    
C18   C84   S    
C201  C206  A    
C36   O86   S    
C37   O87   S    
C59   C73   A    
O13   Zn4   S    
C219  F51   S    
C117  H103  S    
C30   O98   S    
C56   F22   S    
C69   C135  S    
C243  F2    S    
C123  O67   S    
O28   Zn5   S    
C212  O68   S    
C111  H91   S    
C139  H169  S    
C80   C83   A    
C97   C239  A    
C158  H55   S    
O32   Zn8   S    
C110  H86   S    
C228  O75   S    
C114  H94   S    
C217  C221  A    
C71   C157  S    
C188  F34   S    
C50   C53   A    
C174  F47   S    
C149  H29   S    
C147  H22   S    
C164  H75   S    
C170  F43   S    
C45   F16   S    
C1    O1    A    
C145  H17   S    
C136  H159  S    
C209  C213  A    
C100  C124  A    
C137  H164  S    
C64   C66   A    
C129  H138  S    
C160  H60   S    
C155  H47   S    
C133  H154  S    
C167  F40   S    
C7    C223  S    
C43   C54   A    
C72   C86   S    
C208  C212  A    
C28   F11   S    
C35   O4    S    
C100  F36   S    
C241  F8    S    
O11   Zn2   S    
C148  H26   S    
C178  C182  A    
C69   C88   A    
C161  O104  S    
C166  H82   S    
C245  F4    S    
C155  O99   S    
C82   C84   A    
O26   Zn7   S    
O14   Zn6   S    
C27   C36   A    
C130  H144  S    
C12   C216  S    
C143  H10   S    
C138  H167  S    
C12   O34   A    
C17   O46   A    
C114  H92   S    
C123  H122  S    
C149  O92   S    
C25   C53   S    
C101  C191  S    
C121  H116  S    
C43   F14   S    
C133  O77   S    
O38   Zn11  S    
C150  O93   S    
C59   C63   A    
C225  C230  A    
C106  H162  S    
C60   C64   A    
C163  O4    S    
C10   C194  S    
C115  H98   S    
C217  F49   S    
C142  O86   S    
C144  H14   S    
C224  C229  A    
C151  H33   S    
C132  H150  S    
C127  O70   S    
C248  O82   S    
C215  F45   S    
C26   F9    S    
C45   C50   A    
C178  O56   S    
C230  C234  A    
C148  O91   S    
C95   C99   A    
C57   O6    S    
C192  O26   A    
C33   C71   A    
C185  F1    S    
C191  O25   A    
C61   C65   A    
C48   C52   A    
C63   O91   S    
C139  O82   S    
C79   C189  S    
C112  C208  S    
C16   O43   A    
C111  H89   S    
C113  C157  A    
C173  C177  A    
C159  H56   S    
C103  C216  A    
C99   O53   S    
C108  H68   S    
C6    C222  S    
C189  O23   A    
C18   O48   A    
C56   C61   A    
C158  H54   S    
C33   C241  A    
C44   F15   S    
O40   Zn10  S    
C145  H19   S    
C138  O81   S    
C163  H71   S    
C122  O66   S    
C159  O102  S    
C15   O42   A    
C60   F26   S    
C77   C82   A    
C37   C40   A    
C225  O73   S    
C108  H57   S    
C68   O7    S    
C13   C57   A    
C141  H6    S    
C6    C226  A    
C92   C96   A    
C23   O10   A    
C62   O90   S    
C179  O57   S    
C31   O99   S    
C107  H13   S    
C102  C135  A    
C119  H111  S    
C20   O2    A    
C137  O80   S    
C166  H80   S    
C5    C225  A    
C13   C196  S    
C29   C38   A    
C198  C202  A    
C130  H142  S    
C91   F35   S    
C106  H151  S    
C70   C146  S    
C131  H147  S    
C77   O97   S    
O27   Zn8   S    
C25   O12   A    
C30   C67   A    
C150  H32   S    
C47   F17   S    
C232  O79   S    
C207  C211  A    
C175  F48   S    
C167  C193  A    
C115  O58   S    
C82   F30   S    
C149  H27   S    
O24   Zn6   S    
C64   O92   S    
O41   Zn8   S    
C140  H172  S    
C34   C39   A    
C172  C209  S    
C144  H16   S    
C32   C70   A    
O20   Zn1   S    
C114  O57   S    
C154  H43   S    
C51   C53   A    
C191  O21   A    
C21   O8    A    
C152  O96   S    
C164  H74   S    
C206  C210  A    
C169  C174  A    
O1    Zn1   S    
C136  H158  S    
C172  O16   A    
C176  O54   S    
C140  O84   S    
C137  H161  S    
C194  C238  A    
C134  H156  S    
C214  O70   S    
C73   C85   S    
C11   O33   A    
C161  H64   S    
C247  O81   S    
C46   O5    S    
C183  O39   A    
C230  O77   S    
C202  C207  A    
C10   O32   A    
C202  O63   S    
C120  O64   S    
C70   C89   A    
C32   O100  S    
C105  O49   S    
C93   C97   A    
C204  O65   S    
C179  C184  A    
C90   C190  S    
C158  O101  S    
C113  C192  S    
C76   O96   S    
C109  H83   S    
C36   C39   A    
C98   O52   S    
C143  H11   S    
C95   O3    S    
C181  C186  A    
O94   Zn2   S    
O35   Zn11  S    
C57   C101  A    
C79   C124  A    
C68   C113  A    
C20   C234  S    
C126  H130  S    
C147  H20   S    
C213  C218  A    
C123  H123  S    
O34   Zn10  S    
C190  O24   A    
C153  H41   S    
C106  H2    S    
O33   Zn9   S    
C163  H72   S    
C119  H109  S    
C184  H107  S    
C120  H114  S    
C90   C135  A    
C23   C52   S    
C121  O65   S    
C28   C37   A    
C177  C181  A    
C35   C79   A    
O2    Zn12  S    
C160  H61   S    
C131  H145  S    
C74   C85   A    
C229  C233  A    
C162  H66   S    
C193  C238  S    
C12   O38   A    
C150  H30   S    
C91   C95   A    
C44   C54   A    
C233  C242  A    
C176  C180  A    
O31   Zn11  S    
C20   O61   A    
C45   C55   A    
C33   O101  S    
C118  O62   S    
C201  C223  A    
C231  C235  A    
C30   C237  A    
C170  C197  A    
C122  H119  S    
C117  H102  S    
O15   Zn6   S    
C58   C62   A    
C118  H105  S    
C134  O78   S    
C244  F3    S    
C187  C196  A    
C141  H4    S    
C116  H99   S    
C107  H35   S    
C125  O68   S    
C7    C228  A    
O42   Zn9   S    
C110  H87   S    
C183  C210  S    
C9    O30   A    
C242  C246  A    
C237  F5    S    
C8    O29   A    
C147  H21   S    
C3    C7    A    
C93   O103  S    
C201  O62   S    
C98   C240  A    
C212  C217  A    
C94   C98   A    
C165  H78   S    
C15   C65   S    
C60   C73   A    
C136  H160  S    
C142  H9    S    
C137  H163  S    
C145  O89   S    
C127  H132  S    
C162  O3    S    
C41   C55   S    
O44   Zn11  S    
C133  H153  S    
C11   O37   A    
C127  H134  S    
O21   Zn5   S    
C78   C83   A    
C75   C85   A    
C128  H137  S    
C128  O71   S    
O83   Zn4   S    
C4    C220  S    
C168  C195  A    
C204  C209  A    
C23   O11   A    
C61   O89   S    
C24   C227  A    
C174  C178  A    
C148  H23   S    
C38   O88   S    
C140  H171  S    
C131  O75   S    
O36   Zn9   S    
C171  F44   S    
C63   C66   A    
C187  F23   S    
C168  F41   S    
C87   C92   A    
C162  H69   S    
C199  C203  A    
C218  F50   S    
O30   Zn10  S    
C213  O69   S    
C156  H51   S    
O29   Zn9   S    
C164  O5    S    
C246  O80   S    
C226  O74   S    
C152  H39   S    
C10   O36   A    
C170  C175  A    
C17   O45   A    
C125  H127  S    
C21   O72   A    
C50   F20   S    
C3    O84   S    
C126  H128  S    
C183  O18   A    
C163  H70   S    
C121  H115  S    
C107  O52   S    
C105  H118  S    
C206  O66   S    
C47   C51   A    
C180  H1    S    
C9    C40   S    
C244  C248  A    
C160  O103  S    
C199  O59   S    
C115  H97   S    
C129  H141  S    
C151  H36   S    
C22   O83   A    
C48   F18   S    
C152  H37   S    
C49   C52   A    
C22   O9    A    
C87   F31   S    
C88   F32   S    
C4    C246  A    
C106  O51   S    
C117  H104  S    
C128  H136  S    
C19   O94   A    
O10   Zn12  S    
C108  O53   S    
C24   C197  S    
C243  C247  A    
C110  O55   S    
C16   O44   A    
O16   Zn7   S    
C16   C66   S    
C139  H170  S    
C112  O17   A    
C159  H58   S    
C76   C86   A    
C228  C232  A    
C125  H125  S    
C99   C241  A    
C104  C227  A    
C171  C176  A    
C114  H93   S    
C27   F10   S    
C31   C239  A    
C236  C245  A    
C167  C171  A    
C132  O76   S    
C46   C90   A    
C145  H18   S    
C132  H148  S    
C89   F33   S    
C142  H7    S    
C15   O41   A    
C9    O31   A    
C75   O95   S    
O45   Zn12  S    
C129  H139  S    
C155  H48   S    
C42   C54   S    
C38   C40   A    
C144  O88   S    
C21   C235  S    
C188  C197  A    
C117  O60   S    
C141  H5    S    
C177  O55   S    
C133  H152  S    
C203  C208  A    
C142  H8    S    
C235  C244  A    
C24   C68   A    
C219  C223  A    
C166  H81   S    
C211  O67   S    
C74   C78   A    
C130  H143  S    
C109  H79   S    
C14   O35   A    
C3    C245  A    
C200  O60   S    
C138  H166  S    
O18   Zn7   S    
C44   C49   A    
C116  O59   S    
C5    C221  S    
O61   Zn2   S    
C192  O22   A    
C232  C236  A    
C203  O64   S    
C121  H117  S    
C67   C124  S    
C130  O74   S    
C2    C46   A    
C118  H108  S    
C165  H76   S    
C111  O56   S    
C13   C216  A    
C107  H24   S    
C115  H95   S    
C214  C219  A    
C151  H34   S    
C132  H149  S    
C211  C215  A    
C226  C231  A    
C59   F25   S    
O19   Zn1   S    
C148  H25   S    
C154  H44   S    
C96   O49   S    
C74   O93   S    
O50   Zn12  S    
C26   C34   A    
O37   Zn8   S    
C186  F12   S    
C242  F52   S    
C29   F13   S    
C111  H90   S    
C199  C221  A    
C8    C39   S    
C139  H168  S    
C43   C48   A    
C161  H63   S    
C234  C243  A    
C18   O47   A    
O22   Zn5   S    
C154  O98   S    
C158  H53   S    
C35   C238  A    
C78   F27   S    
C5    C247  A    
C19   C233  S    
C156  O100  S    
C218  C222  A    
C169  C196  A    
C49   F19   S    
C105  H140  S    
C168  C173  A    
C189  O19   A    
C101  C146  A    
C181  H85   S    
C186  C195  A    
C224  O71   S    
C14   O40   A    
C172  O28   A    
C156  H50   S    
C126  O69   S    
C34   O85   S    
C152  H38   S    
C175  C179  A    
C32   C240  A    
C4    C224  A    
O46   Zn2   S    
C126  H131  S    
C184  C188  A    
C17   C83   S    
C166  O7    S    
C153  H40   S    
C103  F38   S    
C151  O95   S    
C200  C204  A    
C27   C41   A    
C140  H3    S    
C31   C69   A    
C200  C222  A    
C239  F6    S    
O25   Zn7   S    
C2    C205  A    
C160  H62   S    
C71   C91   A    
C141  O85   S    
C162  H67   S    
C147  O90   S    
C25   O13   A    
C112  O15   A    
C150  H31   S    
O72   Zn3   S    
C22   C236  S    
C77   C86   A    
O48   Zn4   S    
C215  C220  A    
C51   F21   S    
O23   Zn6   S    
C119  O63   S    
C198  O58   S    
C149  H28   S    
C120  H112  S    
C81   C84   A    
C122  H120  S    
C47   C55   A    
C75   C80   A    
O12   Zn3   S    
C118  H106  S    
C88   C93   A    
C240  F7    S    
C138  H165  S    
C62   C65   A    
C116  H100  S    
C1    O14   A    
C97   O51   S    
C198  C220  A    
C185  C193  A    
C144  H15   S    
C159  H59   S    
C76   C81   A    
C110  H88   S    
C100  C194  A    
C11   C205  S    
C173  F46   S    
C67   C87   A    
C143  O87   S    
O9    Zn3   S    
C129  O73   S    
C14   C227  S    
C122  H121  S    
C105  H129  S    
C169  F42   S    
C164  H73   S    
C58   C72   A    
C116  H101  S    
C165  H77   S    
O39   Zn5   S    
C28   C42   A    
C165  O6    S    
C182  C187  A    
C134  H155  S    
C1    C207  S    
C102  C205  A    
C155  H49   S    
C161  H65   S    
C180  C185  A    
C104  F39   S    
O47   Zn3   S    
C127  H133  S    
O8    Zn4   S    
C26   C41   A    
C231  O78   S    
C8    O27   A    
C182  H96   S    
C103  C146  A    
C154  H45   S    
