data_mof_unit_57531.cif
_audit_creation_date              2012-12-11T15:24:43-0500
_audit_creation_method            fapswitch 2.2
_symmetry_space_group_name_H-M    P1
_symmetry_Int_Tables_number       1
_space_group_crystal_system       triclinic
_cell_length_a                    23.009093
_cell_length_b                    6.982616
_cell_length_c                    20.675779
_cell_angle_alpha                 90.000014
_cell_angle_beta                  93.226755
_cell_angle_gamma                 90.0
_cell_volume                      3316.57985412

loop_
_atom_site_label
_atom_site_type_symbol
_atom_type_description
_atom_site_fract_x
_atom_site_fract_y
_atom_site_fract_z
_atom_type_partial_charge
O1    O     O_R   0.188030 0.379840 0.189340 -0.539277
O2    O     O_R   0.811970 0.620160 0.810660 -0.539458
O3    O     O_R   0.311970 0.879840 0.310660 -0.539458
O4    O     O_R   0.688030 0.120160 0.689340 -0.539277
O5    O     O_R   0.307090 0.708420 0.185790 -0.536524
O6    O     O_R   0.692910 0.291580 0.814210 -0.536570
O7    O     O_R   0.192910 0.208420 0.314210 -0.536570
O8    O     O_R   0.807090 0.791580 0.685790 -0.536525
C1    C     C_R   0.326671 0.540777 0.170738 0.728603
C2    C     C_R   0.673338 0.459225 0.829273 0.728378
C3    C     C_R   0.173338 0.040775 0.329273 0.728379
C4    C     C_R   0.826671 0.959223 0.670738 0.728604
O9    O     O_R   0.188180 0.709480 0.181650 -0.542493
O10   O     O_R   0.811820 0.290520 0.818350 -0.542731
O11   O     O_R   0.311820 0.209480 0.318350 -0.542731
O12   O     O_R   0.688180 0.790520 0.681650 -0.542494
O13   O     O_R   0.192210 0.880960 0.306500 -0.535109
O14   O     O_R   0.807790 0.119040 0.693500 -0.535080
O15   O     O_R   0.307790 0.380960 0.193500 -0.535080
O16   O     O_R   0.692210 0.619040 0.806500 -0.535109
C5    C     C_R   0.167853 0.540693 0.165482 0.702454
C6    C     C_R   0.832166 0.459345 0.834555 0.703326
C7    C     C_R   0.332166 0.040655 0.334555 0.703325
C8    C     C_R   0.667853 0.959307 0.665482 0.702454
O17   O     O_3   0.251460 0.546730 0.290970 -0.369699
O18   O     O_3   0.748540 0.453270 0.709030 -0.369656
O19   O     O_3   0.248540 0.046730 0.209030 -0.369656
O20   O     O_3   0.751460 0.953270 0.790970 -0.369700
V1    V     V_3+5 0.249730 0.821120 0.242400 1.410589
V2    V     V_3+5 0.750270 0.178880 0.757600 1.410667
V3    V     V_3+5 0.250270 0.321120 0.257600 1.410668
V4    V     V_3+5 0.749730 0.678880 0.742400 1.410590
C9    C     C_R   0.575364 0.829612 0.613612 -0.201206
C10   C     C_R   0.423733 0.173578 0.388024 -0.207461
C11   C     C_R   0.923733 0.326422 0.888024 -0.207460
C12   C     C_R   0.075363 0.670387 0.113612 -0.201206
C13   C     C_R   0.618843 0.969266 0.615821 -0.089688
C14   C     C_R   0.381353 0.030236 0.384081 -0.091481
C15   C     C_R   0.881353 0.469764 0.884081 -0.091480
C16   C     C_R   0.118843 0.530733 0.115821 -0.089689
C17   C     C_R   0.615218 0.120041 0.571439 -0.200250
C18   C     C_R   0.386505 0.874664 0.426493 -0.203667
C19   C     C_R   0.886505 0.625336 0.926493 -0.203668
C20   C     C_R   0.115218 0.379959 0.071439 -0.200249
C21   C     C_R   0.567864 0.136789 0.525175 0.059984
C22   C     C_R   0.432577 0.862299 0.474535 0.061618
C23   C     C_R   0.932577 0.637701 0.974536 0.061618
C24   C     C_R   0.067864 0.363211 0.025175 0.059985
C25   C     C_R   0.524303 0.991977 0.522565 -0.041201
C26   C     C_R   0.476690 0.004781 0.476456 -0.036807
C27   C     C_R   0.976690 0.495218 0.976457 -0.036806
C28   C     C_R   0.024303 0.508022 0.022565 -0.041202
C29   C     C_R   0.528367 0.835005 0.566512 0.067395
C30   C     C_R   0.472902 0.160228 0.432052 0.067693
C31   C     C_R   0.972902 0.339771 0.932052 0.067693
C32   C     C_R   0.028367 0.664994 0.066512 0.067393
C33   C     C_R   0.563542 0.294536 0.481572 0.150271
C34   C     C_R   0.435206 0.709989 0.520152 0.147921
C35   C     C_R   0.935206 0.790010 0.020153 0.147921
C36   C     C_R   0.063542 0.205463 0.981573 0.150271
C37   C     C_R   0.518076 0.298911 0.432171 0.157141
C38   C     C_R   0.485037 0.689207 0.563365 0.157487
C39   C     C_R   0.985037 0.810792 0.063365 0.157487
C40   C     C_R   0.018076 0.201088 0.932171 0.157141
H1    H     H_    0.578187 0.720842 0.650778 0.128232
H2    H     H_    0.418015 0.294257 0.355516 0.134940
H3    H     H_    0.918015 0.205743 0.855516 0.134940
H4    H     H_    0.078187 0.779158 0.150778 0.128232
H5    H     H_    0.650741 0.221449 0.573039 0.133926
H6    H     H_    0.353627 0.764192 0.421586 0.138978
H7    H     H_    0.853627 0.735807 0.921586 0.138978
H8    H     H_    0.150741 0.278552 0.073039 0.133926
C41   C     C_3   0.051023 0.035663 0.533053 -0.180162
C42   C     C_3   0.949054 0.964322 0.467046 -0.180419
C43   C     C_3   0.449054 0.535678 0.967046 -0.180419
C44   C     C_3   0.551023 0.464337 0.033052 -0.180162
C45   C     C_3   0.011683 0.858389 0.543175 -0.183919
C46   C     C_3   0.988393 0.141597 0.456925 -0.184144
C47   C     C_3   0.488393 0.358403 0.956925 -0.184144
C48   C     C_3   0.511683 0.641611 0.043175 -0.183919
H9    H     H_    0.021472 0.748139 0.580619 0.125445
H10   H     H_    0.978602 0.251848 0.419481 0.125220
H11   H     H_    0.478602 0.248152 0.919481 0.125221
H12   H     H_    0.521472 0.751861 0.080619 0.125445
H13   H     H_    0.092978 0.066672 0.560184 0.121264
H14   H     H_    0.907099 0.933312 0.439915 0.121008
H15   H     H_    0.407099 0.566688 0.939915 0.121008
H16   H     H_    0.592978 0.433329 0.060184 0.121264
C49   C     C_1   0.872139 0.968919 0.624973 -0.191068
C50   C     C_1   0.127895 0.031073 0.375071 -0.191012
C51   C     C_1   0.627895 0.468927 0.875071 -0.191012
C52   C     C_1   0.372139 0.531081 0.124974 -0.191068
C53   C     C_3   0.996460 0.164698 0.531314 0.217065
C54   C     C_3   0.003616 0.835286 0.468786 0.217043
C55   C     C_3   0.503616 0.664713 0.968786 0.217043
C56   C     C_3   0.496460 0.335302 0.031314 0.217065
C57   C     C_3   0.957689 0.989745 0.541188 0.127028
C58   C     C_3   0.042387 0.010240 0.458910 0.126960
C59   C     C_3   0.542387 0.489760 0.958910 0.126960
C60   C     C_3   0.457689 0.510255 0.041188 0.127028
C61   C     C_1   0.910532 0.978079 0.587081 -0.041057
C62   C     C_1   0.089525 0.021909 0.412993 -0.041045
C63   C     C_1   0.589525 0.478091 0.912993 -0.041045
C64   C     C_1   0.410532 0.521920 0.087081 -0.041057
C65   C     C_3   0.606055 0.461047 0.489317 -0.777755
H17   H     H_    0.588031 0.596464 0.468750 0.223569
H18   H     H_    0.615512 0.496829 0.541029 0.203340
H19   H     H_    0.647216 0.425000 0.466573 0.203616
C66   C     C_3   0.383509 0.575329 0.523965 -0.792814
H20   H     H_    0.383656 0.491736 0.569445 0.218771
H21   H     H_    0.342464 0.659001 0.523725 0.199667
H22   H     H_    0.381925 0.475254 0.482178 0.215158
C67   C     C_3   0.883508 0.924669 0.023965 -0.792809
H23   H     H_    0.883655 0.008263 0.069446 0.218770
H24   H     H_    0.881925 0.024745 0.982178 0.215156
H25   H     H_    0.842464 0.840997 0.023726 0.199666
C68   C     C_3   0.106054 0.038951 0.989317 -0.777759
H26   H     H_    0.088029 0.903534 0.968752 0.223570
H27   H     H_    0.147214 0.074993 0.966571 0.203617
H28   H     H_    0.115514 0.003172 0.041029 0.203339
C69   C     C_3   0.518932 0.444493 0.377504 -0.794284
H29   H     H_    0.562470 0.507399 0.371564 0.217618
H30   H     H_    0.508252 0.373954 0.330204 0.198223
H31   H     H_    0.487073 0.560408 0.385418 0.215688
C70   C     C_3   0.492174 0.509210 0.604562 -0.777583
H32   H     H_    0.472358 0.382707 0.579515 0.221336
H33   H     H_    0.538224 0.466177 0.612999 0.203236
H34   H     H_    0.472368 0.531085 0.651715 0.204158
C71   C     C_3   0.992174 0.990789 0.104562 -0.777583
H35   H     H_    0.972358 0.117291 0.079516 0.221336
H36   H     H_    0.972369 0.968912 0.151716 0.204158
H37   H     H_    0.038224 0.033822 0.112998 0.203237
C72   C     C_3   0.018931 0.055505 0.877505 -0.794284
H38   H     H_    0.062469 0.992594 0.871565 0.217619
H39   H     H_    0.987071 0.939593 0.885418 0.215688
H40   H     H_    0.008252 0.126044 0.830205 0.198223
C73   C     C_3   0.006053 0.649252 0.431452 -0.812455
H41   H     H_    0.967773 0.562022 0.442770 0.211729
H42   H     H_    0.004188 0.679372 0.378677 0.211487
H43   H     H_    0.046900 0.571390 0.445372 0.218486
C74   C     C_3   0.994024 0.350715 0.568659 -0.812218
H44   H     H_    0.032305 0.437950 0.557347 0.211809
H45   H     H_    0.953178 0.428586 0.554744 0.218388
H46   H     H_    0.995890 0.320567 0.621433 0.211379
C75   C     C_3   0.494024 0.149285 0.068659 -0.812218
H47   H     H_    0.532305 0.062050 0.057347 0.211809
H48   H     H_    0.495890 0.179434 0.121433 0.211378
H49   H     H_    0.453178 0.071414 0.054745 0.218388
C76   C     C_3   0.506053 0.850748 0.931452 -0.812454
H50   H     H_    0.467773 0.937978 0.942770 0.211729
H51   H     H_    0.546900 0.928610 0.945372 0.218486
H52   H     H_    0.504188 0.820628 0.878677 0.211487

loop_
_geom_bond_atom_site_label_1
_geom_bond_atom_site_label_2
_ccdc_geom_bond_type
C34   C38   A    
C59   C63   S    
O1    C5    A    
O19   V1    S    
C34   C66   S    
O13   V1    S    
C42   C54   S    
O3    C7    A    
C41   C53   S    
C48   H12   S    
O15   V3    S    
C10   H2    S    
C75   H47   S    
C43   C55   S    
C44   C59   S    
O7    C3    A    
C56   C75   S    
C65   H18   S    
C21   C33   A    
C26   C30   A    
O9    V1    S    
C14   C18   A    
C24   C28   A    
C76   H51   S    
O4    C8    A    
C55   C59   S    
C54   C58   S    
C46   C53   S    
C45   C54   S    
C18   H6    S    
O2    V4    S    
C18   C22   A    
O3    V1    S    
C50   C62   T    
C12   C16   A    
C66   H21   S    
C74   H44   S    
C1    O15   A    
C60   C64   S    
C2    O16   A    
C69   H31   S    
C46   C58   S    
C70   H34   S    
C45   C57   S    
C55   C76   S    
C45   H9    S    
C44   H16   S    
O8    C4    A    
C71   H37   S    
O11   C7    A    
C73   H41   S    
O12   C8    A    
C22   C34   A    
C9    C29   A    
O10   V2    S    
C1    C52   S    
C75   H48   S    
C24   C36   A    
C42   C57   S    
O5    V1    S    
O1    V3    S    
O17   V1    S    
C41   C58   S    
C73   H43   S    
O7    V3    S    
C33   C65   S    
C11   C31   A    
C27   C28   A    
O8    V4    S    
C4    C49   S    
O20   V4    S    
C66   H20   S    
C76   H52   S    
O18   V4    S    
C15   C19   A    
C58   C62   S    
O19   V3    S    
C9    C13   A    
C9    H1    S    
C74   H45   S    
C11   C15   A    
O5    C1    A    
C12   C32   A    
C70   H33   S    
C72   H40   S    
C73   H42   S    
C29   C38   A    
C46   H10   S    
C21   C25   A    
C35   C67   S    
C57   C61   S    
C31   C40   A    
C8    C13   S    
C32   C39   A    
O9    C5    A    
C36   C68   S    
C65   H19   S    
C42   H14   S    
C48   C55   S    
C33   C37   A    
C41   H13   S    
C69   H29   S    
O14   V2    S    
C43   H15   S    
O6    V2    S    
C2    C51   S    
C10   C30   A    
C70   H32   S    
C66   H22   S    
C53   C57   S    
C75   H49   S    
C53   C74   S    
C17   H5    S    
C67   H23   S    
O16   V4    S    
C47   C59   S    
C40   C72   S    
C3    O13   A    
C19   H7    S    
C49   C61   T    
C10   C14   A    
O17   V3    S    
C44   C48   S    
C37   C69   S    
C51   C63   T    
O6    C2    A    
C38   C70   S    
C23   C27   A    
C12   H4    S    
C67   H25   S    
O11   V3    S    
C74   H46   S    
C30   C37   A    
O12   V4    S    
C7    C14   S    
C65   H17   S    
C22   C26   A    
C35   C39   A    
C36   C40   A    
O2    C6    A    
C68   H27   S    
C71   H35   S    
C47   C56   S    
C17   C21   A    
C76   H50   S    
C44   C56   S    
C47   H11   S    
C3    C50   S    
O10   C6    A    
C72   H38   S    
C5    C16   S    
C43   C47   S    
C25   C29   A    
C6    C15   S    
C56   C60   S    
O20   V2    S    
C43   C60   S    
C68   H28   S    
C20   H8    S    
C27   C31   A    
C39   C71   S    
C13   C17   A    
O4    V2    S    
C69   H30   S    
C11   H3    S    
C52   C64   T    
C23   C35   A    
C28   C32   A    
C16   C20   A    
C25   C26   A    
C42   C46   S    
C4    O14   A    
C72   H39   S    
C54   C73   S    
C41   C45   S    
C67   H24   S    
C68   H26   S    
C19   C23   A    
C48   C60   S    
C20   C24   A    
C71   H36   S    
O18   V2    S    
