data_mof_unit_45100.cif
_audit_creation_date              2012-12-10T20:28:01-0500
_audit_creation_method            fapswitch 2.2
_symmetry_space_group_name_H-M    P1
_symmetry_Int_Tables_number       1
_space_group_crystal_system       triclinic
_cell_length_a                    18.742423
_cell_length_b                    18.945041
_cell_length_c                    18.834587
_cell_angle_alpha                 110.099266
_cell_angle_beta                  109.526173
_cell_angle_gamma                 109.981725
_cell_volume                      5070.84875193

loop_
_atom_site_label
_atom_site_type_symbol
_atom_type_description
_atom_site_fract_x
_atom_site_fract_y
_atom_site_fract_z
_atom_type_partial_charge
C1    C     C_R   0.382062 0.500788 0.380131 0.886710
C2    C     C_R   0.827246 0.829771 0.845684 0.481078
C3    C     C_R   0.083161 0.258670 0.764085 0.020019
C4    C     C_R   0.764578 0.182854 0.704764 -0.318255
C5    C     C_R   0.680028 0.170049 0.660710 0.474760
C6    C     C_R   0.668305 0.219303 0.621642 0.603821
C7    C     C_R   0.739951 0.280230 0.625825 -0.300959
C8    C     C_R   0.823891 0.293419 0.670094 -0.260486
C9    C     C_R   0.836590 0.244176 0.708915 0.059094
C10   C     C_R   0.822055 0.824556 0.576384 -0.193357
C11   C     C_R   0.810708 0.811707 0.495131 -0.098408
C12   C     C_R   0.734311 0.738660 0.415603 -0.004055
C13   C     C_R   0.674767 0.675468 0.420680 -0.267871
C14   C     C_R   0.687576 0.687386 0.502249 -0.085699
C15   C     C_R   0.759875 0.764100 0.581243 0.072435
C16   C     C_R   0.630293 0.702805 0.266198 -0.156759
C17   C     C_R   0.608401 0.682624 0.180333 -0.133874
C18   C     C_R   0.669828 0.683520 0.153896 -0.123933
C19   C     C_R   0.621672 0.620533 0.501856 0.877910
C20   C     C_R   0.753682 0.705996 0.213721 -0.137143
C21   C     C_R   0.775839 0.726890 0.299780 -0.103132
C22   C     C_R   0.714247 0.724561 0.326761 0.133095
C23   C     C_R   0.472873 0.789459 0.548064 0.497537
C24   C     C_R   0.397691 0.710845 0.471800 -0.250534
C25   C     C_R   0.403319 0.667269 0.398598 0.086741
C26   C     C_R   0.483522 0.701712 0.400722 -0.181807
C27   C     C_R   0.557913 0.778787 0.475704 -0.212301
C28   C     C_R   0.552864 0.821312 0.549211 -0.126942
C29   C     C_R   0.262408 0.579078 0.257111 -0.222158
C30   C     C_R   0.619560 0.500926 0.620662 0.955698
C31   C     C_R   0.190295 0.498293 0.184543 -0.073459
C32   C     C_R   0.182385 0.418463 0.174962 -0.007498
C33   C     C_R   0.247735 0.421160 0.239740 -0.267551
C34   C     C_R   0.318694 0.501747 0.313084 -0.083262
C35   C     C_R   0.327025 0.581511 0.322396 0.024972
C36   C     C_R   0.043956 0.276720 0.107051 -0.124750
C37   C     C_R   0.974646 0.194097 0.034628 -0.139863
C38   C     C_R   0.969769 0.165752 0.953228 -0.092954
C39   C     C_R   0.034275 0.219841 0.944184 -0.116281
C40   C     C_R   0.103169 0.302935 0.016196 -0.155584
C41   C     C_R   0.379327 0.379768 0.499355 0.869612
C42   C     C_R   0.108190 0.331854 0.097966 0.132193
C43   C     C_R   0.208863 0.514283 0.558151 -0.235628
C44   C     C_R   0.223196 0.447631 0.562167 -0.243569
C45   C     C_R   0.223525 0.388879 0.492348 0.148038
C46   C     C_R   0.207958 0.396820 0.417929 -0.245107
C47   C     C_R   0.192657 0.463000 0.413796 -0.212872
C48   C     C_R   0.193684 0.522034 0.484051 0.697214
C49   C     C_R   0.176938 0.253478 0.497881 -0.261527
C50   C     C_R   0.188264 0.185128 0.500492 -0.084441
C51   C     C_R   0.262918 0.181124 0.503945 -0.012459
C52   C     C_R   0.814757 0.885448 0.816420 -0.295296
C53   C     C_R   0.324938 0.246115 0.502989 -0.252647
C54   C     C_R   0.312664 0.313604 0.498808 -0.076801
C55   C     C_R   0.238820 0.318432 0.497007 0.026010
C56   C     C_R   0.344073 0.123793 0.579473 -0.113470
C57   C     C_R   0.355536 0.054795 0.580030 -0.125348
C58   C     C_R   0.299515 0.970386 0.505534 -0.139359
C59   C     C_R   0.231821 0.954728 0.430504 -0.113217
C60   C     C_R   0.219544 0.023355 0.429962 -0.130265
C61   C     C_R   0.275651 0.108356 0.504524 0.137911
C62   C     C_2   0.729024 0.427905 0.761969 0.559764
C63   C     C_R   0.788399 0.862205 0.729166 0.565685
C64   C     C_2   0.815956 0.486737 0.804665 -0.460382
C65   C     C_2   0.672266 0.425618 0.683926 -0.289771
C66   C     C_2   0.680535 0.500536 0.690904 -0.413283
C67   C     C_R   0.997427 0.876847 0.380303 0.901099
C68   C     C_R   0.878866 0.877955 0.497241 0.868403
C69   C     C_R   0.000857 0.121098 0.620199 0.892613
C70   C     C_R   0.120893 0.119286 0.499699 0.883072
C71   C     C_R   0.001504 0.379714 0.881518 0.878020
C72   C     C_R   0.123155 0.499143 0.121054 0.892461
C73   C     C_R   0.002077 0.620470 0.121990 0.931012
C74   C     C_R   0.775373 0.782799 0.669857 0.015425
C75   C     C_R   0.882591 0.496735 0.880655 0.938119
C76   C     C_R   0.043085 0.753006 0.540698 0.567689
C77   C     C_R   0.054104 0.767763 0.475946 -0.105701
C78   C     C_R   0.984561 0.718047 0.388105 0.072419
C79   C     C_R   0.905778 0.646589 0.363094 -0.111539
C80   C     C_R   0.894297 0.629115 0.425802 -0.192873
C81   C     C_R   0.961736 0.681690 0.513996 -0.247423
C82   C     C_R   0.996399 0.675050 0.255365 0.585964
C83   C     C_R   0.001021 0.686748 0.187218 -0.237441
C84   C     C_R   0.004908 0.760928 0.183146 -0.065627
C85   C     C_R   0.787237 0.726548 0.698852 -0.289596
C86   C     C_R   0.001174 0.821004 0.246889 -0.278872
C87   C     C_R   0.996536 0.809420 0.314692 -0.173000
C88   C     C_R   0.994822 0.736367 0.320282 -0.118715
C89   C     C_R   0.084033 0.858479 0.139680 -0.175803
C90   C     C_R   0.093871 0.875103 0.075710 -0.134997
C91   C     C_R   0.034538 0.811850 0.986561 -0.069616
C92   C     C_R   0.964744 0.732450 0.961395 -0.107174
C93   C     C_R   0.953110 0.716480 0.024970 -0.114228
C94   C     C_R   0.013957 0.778543 0.114761 0.164223
C95   C     C_R   0.296101 0.256054 0.843449 0.559743
C96   C     C_R   0.813299 0.749999 0.786101 -0.256590
C97   C     C_R   0.217433 0.252066 0.835385 -0.187747
C98   C     C_R   0.169489 0.270478 0.776765 0.054177
C99   C     C_R   0.201182 0.295128 0.726453 -0.148470
C100  C     C_R   0.279828 0.300758 0.734314 -0.184916
C101  C     C_R   0.326886 0.280786 0.791449 -0.256053
C102  C     C_R   0.080970 0.321032 0.827414 -0.275566
C103  C     C_R   0.000119 0.313609 0.814028 -0.074742
C104  C     C_R   0.920225 0.244469 0.736236 0.055298
C105  C     C_R   0.922441 0.181073 0.674230 -0.231473
C106  C     C_R   0.002820 0.187958 0.687715 -0.091744
H1    H     H_    0.652317 0.666628 0.087055 0.134003
H2    H     H_    0.801329 0.706678 0.193298 0.144486
H3    H     H_    0.840679 0.744376 0.345351 0.100850
H4    H     H_    0.611483 0.880227 0.607448 0.193116
H5    H     H_    0.335721 0.681355 0.469579 0.162584
H6    H     H_    0.488575 0.667790 0.344928 0.128247
H7    H     H_    0.619928 0.805253 0.477330 0.183322
H8    H     H_    0.267433 0.640001 0.263522 0.157857
H9    H     H_    0.242497 0.360326 0.233877 0.159366
H10   H     H_    0.827129 0.947828 0.862131 0.168064
H11   H     H_    0.047492 0.297925 0.170008 0.131363
H12   H     H_    0.924929 0.151903 0.041676 0.136725
H13   H     H_    0.916296 0.101764 0.897243 0.153564
H14   H     H_    0.030902 0.197066 0.881384 0.148694
H15   H     H_    0.153091 0.344285 0.008721 0.113694
H16   H     H_    0.209330 0.559775 0.612441 0.157869
H17   H     H_    0.234774 0.442188 0.619875 0.151309
H18   H     H_    0.207142 0.351546 0.363136 0.137394
H19   H     H_    0.179783 0.468479 0.356087 0.171752
H20   H     H_    0.119475 0.256022 0.496293 0.159242
H21   H     H_    0.382887 0.244175 0.505437 0.171755
H22   H     H_    0.387851 0.188801 0.637529 0.110403
H23   H     H_    0.408215 0.066856 0.637929 0.153111
H24   H     H_    0.308972 0.917236 0.505600 0.127105
H25   H     H_    0.189032 0.889422 0.372772 0.142719
H26   H     H_    0.166743 0.010518 0.371553 0.103601
H27   H     H_    0.840512 0.527990 0.780038 0.124855
H28   H     H_    0.621206 0.363538 0.623473 0.213644
H29   H     H_    0.780068 0.666386 0.655010 0.154760
H30   H     H_    0.724753 0.561346 0.754286 0.142858
H31   H     H_    0.948622 0.665133 0.559437 0.133727
H32   H     H_    0.117089 0.819708 0.494780 0.151358
H33   H     H_    0.852423 0.605467 0.295059 0.152215
H34   H     H_    0.832567 0.574749 0.406021 0.163786
H35   H     H_    0.003431 0.878160 0.244583 0.167776
H36   H     H_    0.131476 0.907498 0.208587 0.130438
H37   H     H_    0.148011 0.936659 0.095281 0.136754
H38   H     H_    0.825863 0.707587 0.807691 0.132194
H39   H     H_    0.042708 0.824233 0.937013 0.130109
H40   H     H_    0.919788 0.682984 0.892596 0.106292
H41   H     H_    0.897525 0.655357 0.004304 0.089601
H42   H     H_    0.385953 0.284063 0.792831 0.131841
H43   H     H_    0.192093 0.232001 0.873437 0.146028
H44   H     H_    0.164392 0.308885 0.680414 0.123952
H45   H     H_    0.303736 0.319420 0.694907 0.163080
H46   H     H_    0.142284 0.375835 0.886818 0.154314
H47   H     H_    0.861359 0.127615 0.613615 0.164116
H48   H     H_    0.879742 0.882813 0.636693 0.170680
H49   H     H_    0.773490 0.143438 0.733237 0.182839
H50   H     H_    0.730417 0.316979 0.594177 0.179870
H51   H     H_    0.878295 0.339077 0.670572 0.170338
H52   H     H_    0.616931 0.617169 0.360611 0.158455
H53   H     H_    0.581627 0.701081 0.285307 0.118963
H54   H     H_    0.543508 0.665510 0.134072 0.131857
O1    O     O_R   0.408620 0.551720 0.460350 -0.607487
O2    O     O_R   0.949210 0.908400 0.357560 -0.625086
O3    O     O_R   0.959770 0.908340 0.551360 -0.641027
O4    O     O_R   0.856990 0.908380 0.448600 -0.611422
O5    O     O_R   0.050790 0.091560 0.642400 -0.612703
O6    O     O_R   0.948010 0.091600 0.539640 -0.627304
O7    O     O_R   0.143010 0.091580 0.551350 -0.605696
O8    O     O_R   0.040230 0.091620 0.448600 -0.627076
O9    O     O_R   0.055540 0.460120 0.912140 -0.632655
O10   O     O_R   0.952100 0.356700 0.912170 -0.609080
O11   O     O_R   0.145980 0.551740 0.094190 -0.635656
O12   O     O_R   0.409320 0.448300 0.357580 -0.627102
O13   O     O_R   0.042530 0.448320 0.094220 -0.595550
O14   O     O_R   0.054350 0.643370 0.094170 -0.625109
O15   O     O_R   0.950900 0.539950 0.094200 -0.572134
O16   O     O_R   0.963910 0.551750 0.912120 -0.636918
O17   O     O_R   0.860470 0.448330 0.912150 -0.563696
O18   O     O_R   0.591270 0.643330 0.551380 -0.601425
O19   O     O_R   0.591970 0.539910 0.448620 -0.630499
O20   O     O_R   0.590680 0.551700 0.642420 -0.624409
O21   O     O_R   0.591380 0.448280 0.539650 -0.612344
O22   O     O_R   0.408030 0.460090 0.551380 -0.613977
O23   O     O_R   0.408730 0.356670 0.448620 -0.622740
O24   O     O_R   0.051990 0.908360 0.460320 -0.626952
Zn1   Zn    Zn3+2 0.499530 0.569060 0.568620 0.983217
Zn2   Zn    Zn3+2 0.500470 0.430940 0.431380 0.960044
Zn3   Zn    Zn3+2 0.068630 0.999950 0.568590 0.969058
Zn4   Zn    Zn3+2 0.931370 1.000000 0.431370 0.960243
Zn5   Zn    Zn3+2 0.072290 0.569090 0.003150 0.953828
Zn6   Zn    Zn3+2 0.934150 0.430980 0.003190 1.040313
O25   O     O_3   0.864232 0.860329 0.934817 -0.638497
C107  C     C_3   0.808047 0.803514 0.950092 0.090483
H55   H     H_    0.806312 0.740168 0.926507 0.137462
H56   H     H_    0.739592 0.790782 0.916730 0.132629
C108  C     C_3   0.844195 0.847364 0.049150 -0.294800
H57   H     H_    0.914470 0.866082 0.083911 0.239552
H58   H     H_    0.841133 0.908114 0.072573 0.218795
C109  C     C_3   0.791898 0.786737 0.072084 -0.996056
H59   H     H_    0.721385 0.767487 0.038350 0.262282
H60   H     H_    0.819266 0.821533 0.144265 0.281893
H61   H     H_    0.796808 0.726950 0.052204 0.261535
O26   O     O_3   0.474363 0.835035 0.624938 -0.661641
C110  C     C_3   0.391753 0.826014 0.609641 0.070471
H62   H     H_    0.349479 0.763248 0.602661 0.192935
H63   H     H_    0.357618 0.828026 0.549876 0.123892
C111  C     C_3   0.406837 0.902074 0.688530 -0.367886
H64   H     H_    0.444368 0.904045 0.749744 0.240144
H65   H     H_    0.446559 0.964779 0.694067 0.220602
C112  C     C_3   0.319618 0.892806 0.679317 -0.873855
H66   H     H_    0.281081 0.891595 0.619101 0.266738
H67   H     H_    0.332917 0.949288 0.737272 0.257393
H68   H     H_    0.280036 0.831414 0.675869 0.293037
F1    F     F_    0.179469 0.586485 0.480110 -0.684231
F2    F     F_    0.778332 0.918472 0.703276 -0.706015
O27   O     O_3   0.697123 0.370720 0.789673 -0.614651
C113  C     C_3   0.606917 0.339223 0.763771 0.150837
H69   H     H_    0.584775 0.285519 0.777223 0.148611
H70   H     H_    0.563604 0.306719 0.691554 0.180538
C114  C     C_3   0.593405 0.411041 0.816840 -0.407643
H71   H     H_    0.584470 0.401040 0.868792 0.198350
H72   H     H_    0.652306 0.477340 0.850545 0.235637
C115  C     C_3   0.512864 0.409511 0.758187 -0.939138
H73   H     H_    0.523114 0.426064 0.709942 0.277849
H74   H     H_    0.502177 0.458370 0.799215 0.265921
H75   H     H_    0.452981 0.343677 0.721859 0.248198
O28   O     O_3   0.115191 0.809580 0.626721 -0.671067
C116  C     C_3   0.096578 0.809571 0.693641 0.059117
H76   H     H_    0.161125 0.849575 0.756266 0.171814
H77   H     H_    0.067189 0.743414 0.685196 0.131561
C117  C     C_3   0.042120 0.853097 0.704638 -0.352884
H78   H     H_    0.077896 0.920986 0.718441 0.239273
H79   H     H_    0.977198 0.816196 0.643334 0.225598
C118  C     C_3   0.026068 0.856351 0.779663 -0.957500
H80   H     H_    0.988658 0.788893 0.766134 0.263513
H81   H     H_    0.986852 0.888278 0.786020 0.274395
H82   H     H_    0.089890 0.894763 0.842780 0.262014
F3    F     F_    0.996205 0.604887 0.260176 -0.643804
O29   O     O_3   0.335623 0.231902 0.900629 -0.662648
C119  C     C_3   0.418060 0.242124 0.913284 0.086909
H83   H     H_    0.453044 0.247695 0.977375 0.173535
H84   H     H_    0.462244 0.304551 0.921043 0.118847
C120  C     C_3   0.405441 0.160815 0.841649 -0.374762
H85   H     H_    0.366384 0.101941 0.842205 0.231786
H86   H     H_    0.368306 0.150309 0.775499 0.217901
C121  C     C_3   0.494184 0.169919 0.857211 -0.949501
H87   H     H_    0.535002 0.229318 0.858573 0.259326
H88   H     H_    0.483328 0.111550 0.803343 0.268218
H89   H     H_    0.530287 0.174892 0.920668 0.269041
O30   O     O_3   0.609298 0.112679 0.659273 -0.631944
C122  C     C_3   0.573010 0.025909 0.591741 0.043062
H90   H     H_    0.534927 0.981253 0.608030 0.199195
H91   H     H_    0.624600 0.010488 0.588474 0.126818
C123  C     C_3   0.509692 0.007487 0.501943 -0.314605
H92   H     H_    0.464990 0.032090 0.508526 0.274714
H93   H     H_    0.548254 0.042400 0.478749 0.227763
C124  C     C_3   0.454049 0.909749 0.432857 -0.970254
H94   H     H_    0.497318 0.884158 0.423280 0.276863
H95   H     H_    0.409161 0.899297 0.369218 0.271269
H96   H     H_    0.413217 0.872909 0.453133 0.258501
F4    F     F_    0.586929 0.206827 0.578167 -0.716793

loop_
_geom_bond_atom_site_label_1
_geom_bond_atom_site_label_2
_ccdc_geom_bond_type
C56   C61   A    
C105  H47   S    
C29   H8    S    
C124  H96   S    
C101  H42   S    
C93   C94   A    
O8    Zn4   S    
C19   O19   A    
C62   O27   S    
C36   C42   A    
C119  H83   S    
C51   C61   S    
C113  C114  S    
O9    Zn5   S    
C74   C85   A    
C110  H62   S    
C60   H26   S    
O15   Zn6   S    
C97   C98   A    
O16   Zn5   S    
C7    C8    A    
O19   Zn2   S    
C77   C78   A    
C44   C45   A    
C65   C66   D    
C81   H31   S    
C40   H15   S    
C110  H63   S    
C59   H25   S    
C26   C27   A    
O5    Zn3   S    
C86   H35   S    
O6    Zn4   S    
C57   H23   S    
C36   C37   A    
C113  H70   S    
C67   O24   A    
C10   C15   A    
C5    C6    A    
C85   C96   A    
C111  H65   S    
C96   H38   S    
C122  H91   S    
C39   H14   S    
C98   C99   A    
C82   F3    S    
C12   C22   S    
O13   Zn6   S    
C73   O14   A    
C112  H68   S    
C56   C57   A    
O11   Zn5   S    
C117  C118  S    
O3    Zn3   S    
C34   C35   A    
C46   C47   A    
C89   C94   A    
C17   H54   S    
C18   H1    S    
C92   C93   A    
C62   C64   D    
C53   H21   S    
C112  H67   S    
C30   O20   A    
C48   F1    S    
O18   Zn1   S    
C7    H50   S    
C47   C48   A    
O12   Zn2   S    
C16   C17   A    
C124  H95   S    
O10   Zn6   S    
C95   C101  A    
O1    Zn1   S    
C23   C24   A    
C71   O9    A    
C109  H59   S    
C43   C48   A    
C123  H92   S    
C65   H28   S    
C108  C109  S    
C122  C123  S    
C40   C42   A    
C1    O1    A    
C59   C60   A    
C3    C106  A    
C13   C14   A    
C16   H53   S    
C46   H18   S    
C115  H73   S    
C24   H5    S    
C8    H51   S    
C69   O6    A    
C104  C105  A    
C99   H44   S    
C1    C34   S    
C47   H19   S    
C57   C58   A    
C52   H10   S    
C100  H45   S    
C110  C111  S    
C33   H9    S    
C120  C121  S    
O26   C110  S    
C37   H12   S    
C23   O26   S    
C76   O28   S    
O25   C107  S    
C72   O11   A    
C5    O30   S    
O21   Zn2   S    
C24   C25   A    
C112  H66   S    
C79   H33   S    
C10   C11   A    
O23   Zn2   S    
C91   C92   A    
C123  H93   S    
C121  H87   S    
C86   C87   A    
C8    C9    A    
C115  H75   S    
C28   H4    S    
C58   C59   A    
C80   H34   S    
C12   C13   A    
C92   H40   S    
C119  H84   S    
C79   C80   A    
C60   C61   A    
C51   C53   A    
O22   Zn1   S    
C107  H56   S    
C73   O15   A    
C117  H79   S    
O27   C113  S    
C107  C108  S    
C37   C38   A    
C49   H20   S    
C70   O8    A    
C114  H72   S    
C120  H86   S    
C83   C84   A    
C19   O18   A    
C69   C106  S    
C113  H69   S    
O7    Zn3   S    
C124  H94   S    
C4    H49   S    
C109  H61   S    
C17   C18   A    
O30   C122  S    
C71   O10   A    
C50   C51   A    
C84   C94   S    
C72   O13   A    
C76   C77   A    
C115  H74   S    
C36   H11   S    
C118  H81   S    
C43   H16   S    
C30   C66   S    
C2    C52   A    
C25   C35   S    
O24   Zn3   S    
C66   H30   S    
C38   H13   S    
C27   H7    S    
C3    C102  A    
C31   C72   S    
C116  H77   S    
C85   H29   S    
O28   C116  S    
C121  H88   S    
C43   C44   A    
C73   C83   S    
C6    F4    S    
C108  H58   S    
C41   O22   A    
C23   C28   A    
C116  C117  S    
C89   C90   A    
C26   H6    S    
C13   H52   S    
C91   H39   S    
C11   C68   S    
C116  H76   S    
C64   H27   S    
C68   O3    A    
C78   C88   S    
C114  H71   S    
C97   H43   S    
C71   C103  S    
C54   C55   A    
C16   C22   A    
O17   Zn6   S    
C44   H17   S    
C62   C65   S    
C120  H85   S    
C75   O16   A    
C111  H64   S    
C14   C19   S    
C31   C32   A    
C67   O2    A    
C90   H37   S    
C84   C86   A    
C80   C81   A    
O4    Zn4   S    
C52   C63   A    
C76   C81   A    
C123  C124  S    
C21   H3    S    
C11   C12   A    
C95   C97   A    
C53   C54   A    
C6    C7    A    
C63   C74   A    
C105  C106  A    
C29   C35   A    
C1    O12   A    
C67   C87   S    
C99   C100  A    
C77   H32   S    
C107  H55   S    
C2    C96   A    
C25   C26   A    
C68   O4    A    
C117  H78   S    
C29   C31   A    
C49   C55   A    
C70   O7    A    
C32   C33   A    
C114  C115  S    
O2    Zn4   S    
C10   H48   S    
C78   C79   A    
C111  C112  S    
C90   C91   A    
C38   C39   A    
C58   H24   S    
C9    C104  S    
C82   C88   A    
O29   C119  S    
C100  C101  A    
C30   O21   A    
C64   C75   S    
C33   C34   A    
C93   H41   S    
C119  C120  S    
C18   C20   A    
C56   H22   S    
C63   F2    S    
C50   C70   S    
C102  C103  A    
C75   O17   A    
C118  H82   S    
C69   O5    A    
C41   C54   S    
C122  H90   S    
O20   Zn1   S    
O14   Zn5   S    
C108  H57   S    
C39   C40   A    
C45   C46   A    
C4    C5    A    
C15   C74   S    
C20   C21   A    
C45   C55   S    
C87   C88   A    
C49   C50   A    
C121  H89   S    
C102  H46   S    
C103  C104  A    
C32   C42   S    
C14   C15   A    
C41   O23   A    
C109  H60   S    
C82   C83   A    
C4    C9    A    
C21   C22   A    
C2    O25   S    
C95   O29   S    
C3    C98   S    
C89   H36   S    
C118  H80   S    
C20   H2    S    
C27   C28   A    
