data_mof_unit_20991.cif
_audit_creation_date              2012-12-10T18:22:34-0500
_audit_creation_method            fapswitch 2.2
_symmetry_space_group_name_H-M    P1
_symmetry_Int_Tables_number       1
_space_group_crystal_system       triclinic
_cell_length_a                    23.42336
_cell_length_b                    10.705294
_cell_length_c                    9.52763
_cell_angle_alpha                 90.296838
_cell_angle_beta                  90.399046
_cell_angle_gamma                 87.865494
_cell_volume                      2387.3463664

loop_
_atom_site_label
_atom_site_type_symbol
_atom_type_description
_atom_site_fract_x
_atom_site_fract_y
_atom_site_fract_z
_atom_type_partial_charge
C1    C     C_R   0.500683 0.260094 0.499907 0.811768
C2    C     C_R   0.694524 0.621977 0.569459 0.065383
C3    C     C_R   0.239592 0.393657 0.502046 -0.187035
C4    C     C_R   0.753512 0.639661 0.561317 -0.165958
C5    C     C_R   0.208715 0.506259 0.479398 0.256650
C6    C     C_R   0.789033 0.556587 0.484890 0.217625
C7    C     C_3   0.537767 0.036700 0.593005 0.156776
C8    C     C_3   0.461089 0.963290 0.408229 0.140977
C9    C     C_3   0.552292 0.951129 0.465648 -0.319840
C10   C     C_3   0.446732 0.048842 0.535388 -0.250359
C11   C     C_3   0.498835 0.876049 0.500174 -0.089305
C12   C     C_R   0.499215 0.739851 0.500200 0.766443
C13   C     C_3   0.500154 0.123879 0.500697 -0.067673
C14   C     C_3   0.485589 0.961665 0.626455 0.199881
C15   C     C_3   0.513319 0.038317 0.374485 0.188418
C16   C     C_R   0.391282 0.500997 0.499404 0.843224
C17   C     C_R   0.608742 0.502728 0.500371 0.850907
C18   C     C_3   0.509982 0.608934 0.049909 0.073797
C19   C     C_3   0.490041 0.390897 0.950071 0.067179
C20   C     C_3   0.461162 0.577214 0.950108 0.514767
C21   C     C_3   0.538753 0.422606 0.050068 0.503104
C22   C     C_3   0.548496 0.532132 0.952253 0.064277
C23   C     C_R   0.237561 0.617791 0.464396 0.137342
C24   C     C_3   0.451513 0.467547 0.047912 0.070166
C25   C     C_R   0.878320 0.598737 0.370433 0.554889
C26   C     C_R   0.119232 0.492610 0.601977 0.566402
C27   C     C_R   0.878749 0.537714 0.611113 0.557890
C28   C     C_R   0.118363 0.536432 0.356426 0.602136
C29   C     C_R   0.939024 0.529938 0.613933 -0.106468
C30   C     C_R   0.058350 0.554520 0.356506 -0.120237
C31   C     C_R   0.968657 0.551810 0.487986 -0.075710
C32   C     C_R   0.028857 0.537019 0.483642 -0.076082
C33   C     C_R   0.938111 0.587475 0.365872 -0.073446
C34   C     C_R   0.765553 0.453334 0.416269 0.085438
C35   C     C_R   0.059483 0.504510 0.606643 -0.071745
C36   C     C_R   0.970337 0.496443 0.736674 0.447653
C37   C     C_R   0.027126 0.591687 0.234886 0.445302
C38   C     C_R   0.030089 0.486714 0.732223 -0.274722
C39   C     C_R   0.967591 0.607346 0.240838 -0.265634
C40   C     C_3   0.944507 0.353790 0.898945 0.110836
C41   C     C_3   0.905939 0.334757 0.024259 -0.724599
C42   C     C_3   0.059986 0.734744 0.082802 0.099888
C43   C     C_3   0.094157 0.751082 0.949354 -0.705599
C44   C     C_3   0.392632 0.733824 0.999340 0.036026
C45   C     C_R   0.297331 0.617128 0.476932 0.306363
C46   C     C_3   0.327748 0.728753 0.992171 -0.809024
C47   C     C_3   0.606166 0.263072 0.004375 0.062991
C48   C     C_3   0.670819 0.258047 0.020859 -0.747168
C49   C     C_3   0.343477 0.768612 0.599559 0.099213
C50   C     C_3   0.320260 0.900770 0.629143 -0.836402
C51   C     C_3   0.695349 0.227720 0.466923 0.082191
C52   C     C_3   0.675777 0.106209 0.403587 -0.796237
C53   C     C_R   0.706947 0.432903 0.427203 0.396326
C54   C     C_R   0.328543 0.503096 0.496843 -0.163377
C55   C     C_R   0.670959 0.518632 0.500416 -0.209036
C56   C     C_R   0.299502 0.390872 0.508988 0.087480
Cu1   Cu    Cu3+1 0.500010 0.499990 0.643150 1.004600
Cu2   Cu    Cu3+1 0.499990 0.500010 0.356850 1.014086
H1    H     H_    0.053346 0.465068 0.828261 0.224941
H2    H     H_    0.905895 0.233978 0.051225 0.186092
H3    H     H_    0.921556 0.387566 0.116468 0.242870
H4    H     H_    0.083381 0.779413 0.171008 0.146042
H5    H     H_    0.017491 0.783377 0.068702 0.129009
H6    H     H_    0.070744 0.713016 0.857946 0.246063
H7    H     H_    0.100746 0.851929 0.931498 0.180325
H8    H     H_    0.136478 0.701369 0.958852 0.279797
H9    H     H_    0.404828 0.831900 0.983440 0.181100
H10   H     H_    0.405753 0.707375 0.108229 0.156052
H11   H     H_    0.314576 0.630918 0.977881 0.259495
H12   H     H_    0.944512 0.632616 0.145567 0.223409
H13   H     H_    0.308989 0.766533 0.091140 0.230100
H14   H     H_    0.310537 0.786730 0.904650 0.238550
H15   H     H_    0.596220 0.292193 0.894422 0.144160
H16   H     H_    0.590378 0.167384 0.017306 0.186239
H17   H     H_    0.683154 0.215550 0.122763 0.292770
H18   H     H_    0.690339 0.200336 0.935344 0.184476
H19   H     H_    0.687422 0.353724 0.015848 0.253312
H20   H     H_    0.529008 0.790715 0.023316 0.197216
H21   H     H_    0.562601 0.721239 0.158840 0.239245
H22   H     H_    0.471762 0.208631 0.976314 0.196695
H23   H     H_    0.216700 0.308235 0.513184 0.156840
H24   H     H_    0.437777 0.277761 0.841204 0.243922
H25   H     H_    0.626142 0.606237 0.983722 0.211866
H26   H     H_    0.625649 0.495431 0.860448 0.237982
H27   H     H_    0.373864 0.393353 0.016844 0.211586
H28   H     H_    0.374603 0.502879 0.141572 0.242011
H29   H     H_    0.221098 0.773253 0.348818 0.253359
H30   H     H_    0.211592 0.792312 0.523953 0.228592
H31   H     H_    0.818363 0.408146 0.254382 0.257167
H32   H     H_    0.834230 0.332193 0.406633 0.204110
H33   H     H_    0.390625 0.770105 0.598691 0.193849
H34   H     H_    0.772237 0.717400 0.615739 0.159467
H35   H     H_    0.331655 0.707045 0.687984 0.175133
H36   H     H_    0.274700 0.899454 0.659494 0.225754
H37   H     H_    0.344545 0.942292 0.717186 0.229308
H38   H     H_    0.324206 0.959794 0.534538 0.263667
H39   H     H_    0.671548 0.247652 0.565406 0.106004
H40   H     H_    0.741528 0.214315 0.493658 0.161596
H41   H     H_    0.703947 0.077002 0.315205 0.244382
H42   H     H_    0.677868 0.031830 0.484433 0.189899
H43   H     H_    0.631357 0.119297 0.364215 0.287127
H44   H     H_    0.352597 0.254974 0.433746 0.222908
H45   H     H_    0.594410 0.910759 0.433190 0.143512
H46   H     H_    0.303368 0.201848 0.543092 0.218782
H47   H     H_    0.630371 0.752519 0.577677 0.197930
H48   H     H_    0.682569 0.777717 0.694234 0.211299
H49   H     H_    0.605862 0.001003 0.721716 0.208708
H50   H     H_    0.600852 0.147669 0.659984 0.210054
H51   H     H_    0.442876 0.892908 0.216069 0.221801
H52   H     H_    0.398497 0.850327 0.342112 0.262920
H53   H     H_    0.463949 0.998550 0.828691 0.215996
H54   H     H_    0.507108 0.871739 0.806377 0.239002
H55   H     H_    0.536335 0.001833 0.172974 0.204292
H56   H     H_    0.404590 0.088386 0.567658 0.163242
H57   H     H_    0.491167 0.125747 0.193436 0.237098
H58   H     H_    0.988619 0.321073 0.928252 0.134847
H59   H     H_    0.928715 0.295577 0.810355 0.132887
H60   H     H_    0.861557 0.367669 0.998830 0.273895
N1    N     N_R   0.849962 0.568654 0.489836 -0.451166
N2    N     N_3   0.800967 0.364156 0.340795 -0.570555
N3    N     N_3   0.331139 0.274692 0.527628 -0.599169
N4    N     N_3   0.658486 0.707888 0.648279 -0.535750
N5    N     N_3   0.577341 0.076216 0.701425 -0.599589
N6    N     N_3   0.419813 0.926084 0.302633 -0.595622
N7    N     N_3   0.470965 0.919209 0.765978 -0.575230
N8    N     N_3   0.527798 0.081015 0.234964 -0.565812
N9    N     N_R   0.147311 0.508928 0.478434 -0.442914
N10   N     N_3   0.500040 0.499970 0.858290 -0.211862
N11   N     N_3   0.499960 0.500030 0.141710 -0.211250
N12   N     N_3   0.523124 0.730807 0.107494 -0.586027
N13   N     N_3   0.477344 0.268802 0.892237 -0.547970
N14   N     N_3   0.602640 0.573599 0.898381 -0.510970
N15   N     N_3   0.397563 0.425232 0.102237 -0.545357
N16   N     N_3   0.205382 0.732067 0.439285 -0.569143
O1    O     O_R   0.500030 0.316850 0.620870 -0.563255
O2    O     O_2   0.149200 0.466462 0.720427 -0.536581
O3    O     O_2   0.848853 0.511362 0.727096 -0.500157
O4    O     O_2   0.147896 0.547009 0.236294 -0.489635
O5    O     O_3   0.943063 0.481920 0.863713 -0.529105
O6    O     O_3   0.053951 0.605944 0.107373 -0.533440
O7    O     O_3   0.418030 0.657864 0.892484 -0.571860
O8    O     O_3   0.581496 0.342124 0.109150 -0.527234
O9    O     O_3   0.324640 0.728811 0.465584 -0.626440
O10   O     O_3   0.685189 0.325713 0.370091 -0.539155
O11   O     O_R   0.499970 0.683150 0.379130 -0.574648
O12   O     O_R   0.500000 0.316860 0.379090 -0.536353
O13   O     O_R   0.500000 0.683140 0.620910 -0.545946
O14   O     O_R   0.417890 0.499960 0.620920 -0.555784
O15   O     O_R   0.582110 0.500040 0.379080 -0.528098
O16   O     O_R   0.417870 0.499970 0.379140 -0.571534
O17   O     O_R   0.582130 0.500030 0.620860 -0.565152
O18   O     O_2   0.848563 0.637189 0.255759 -0.540728

loop_
_geom_bond_atom_site_label_1
_geom_bond_atom_site_label_2
_ccdc_geom_bond_type
C24   N15   S    
C51   H39   S    
C23   C45   A    
C27   C29   A    
C48   H18   S    
C48   H17   S    
H49   N5    S    
Cu1   N10   S    
C18   N11   S    
Cu2   O11   S    
C51   O10   S    
C29   C36   A    
C33   C39   A    
H57   N8    S    
C25   O18   S    
C12   O13   A    
C19   C21   S    
C21   O8    S    
C20   N10   S    
C2    C55   A    
C43   H8    S    
C8    C10   S    
C11   C14   S    
C50   H37   S    
Cu2   N11   S    
C40   O5    S    
Cu1   O17   S    
C19   N10   S    
C46   H11   S    
H52   N6    S    
C24   N11   S    
C7    C14   S    
C20   C24   S    
C44   O7    S    
C15   N8    S    
C37   O6    S    
H53   N7    S    
C31   C33   A    
C41   H3    S    
C41   H60   S    
H44   N3    S    
C42   H4    S    
C46   H14   S    
C10   H56   S    
Cu2   O15   S    
C9    H45   S    
C51   H40   S    
C2    N4    S    
C40   H59   S    
H22   N13   S    
C21   C22   S    
C34   N2    S    
H29   N16   S    
C5    N9    S    
C1    O12   A    
C17   O17   A    
C49   H33   S    
C25   N1    A    
C44   C46   S    
C43   H6    S    
C53   C55   A    
C19   N13   S    
C54   C56   A    
C52   H43   S    
C42   O6    S    
C51   C52   S    
C32   C35   A    
C35   C38   A    
C28   O4    S    
C47   H15   S    
C4    C6    A    
C10   C14   S    
C50   H36   S    
H46   N3    S    
H21   N12   S    
H26   N14   S    
C6    C34   A    
C30   C37   A    
H32   N2    S    
C48   H19   S    
C2    C4    A    
C3    H23   S    
C3    C56   A    
H28   N15   S    
C22   N10   S    
C47   C48   S    
C5    C23   A    
H31   N2    S    
C43   H7    S    
C47   O8    S    
H48   N4    S    
C12   O11   A    
Cu2   O12   S    
H54   N7    S    
C27   O3    S    
C9    C11   S    
C21   N11   S    
C46   H13   S    
C8    N6    S    
C40   C41   S    
C45   C54   A    
C8    C15   S    
Cu1   O13   S    
C13   C15   S    
C44   H10   S    
C1    C13   S    
C42   C43   S    
H50   N5    S    
C26   O2    S    
C6    N1    S    
C7    C9    S    
C17   C55   S    
C23   N16   S    
C22   N14   S    
C18   C22   S    
C20   O7    S    
C31   C32   A    
C17   O15   A    
C41   H2    S    
C7    N5    S    
C3    C5    A    
C10   C13   S    
C11   C12   S    
C28   N9    A    
H51   N6    S    
H55   N8    S    
C27   N1    A    
C52   H41   S    
C14   N7    S    
C16   O14   A    
C53   O10   S    
C56   N3    S    
C36   C38   A    
C19   C24   S    
H20   N12   S    
H30   N16   S    
H25   N14   S    
C29   C31   A    
C30   C32   A    
C50   H38   S    
Cu1   Cu2   S    
C40   H58   S    
C8    C11   S    
C49   O9    S    
C28   C30   A    
C39   H12   S    
C52   H42   S    
H47   N4    S    
C18   C20   S    
C26   N9    A    
C9    C15   S    
C47   H16   S    
C36   O5    S    
C16   C54   S    
C18   N12   S    
C38   H1    S    
C26   C35   A    
C7    C13   S    
C34   C53   A    
C37   C39   A    
C49   C50   S    
Cu1   O14   S    
H27   N15   S    
C45   O9    S    
Cu1   O1    S    
C44   H9    S    
C16   O16   A    
C49   H35   S    
H24   N13   S    
C1    O1    A    
C42   H5    S    
Cu2   O16   S    
C25   C33   A    
C4    H34   S    
