data_mof_unit_45946.cif
_audit_creation_date              2012-12-11T15:36:33-0500
_audit_creation_method            fapswitch 2.2
_symmetry_space_group_name_H-M    P1
_symmetry_Int_Tables_number       1
_space_group_crystal_system       triclinic
_cell_length_a                    14.970086
_cell_length_b                    14.995818
_cell_length_c                    34.91881
_cell_angle_alpha                 91.427676
_cell_angle_beta                  91.625521
_cell_angle_gamma                 60.449425
_cell_volume                      6815.91980664

loop_
_atom_site_label
_atom_site_type_symbol
_atom_type_description
_atom_site_fract_x
_atom_site_fract_y
_atom_site_fract_z
_atom_type_partial_charge
C1    C     C_R   0.610868 0.302175 0.444301 0.526835
C2    C     C_R   0.734083 0.678496 0.180746 0.031131
C3    C     C_R   0.697627 0.037870 0.819065 -0.014279
C4    C     C_R   0.795359 0.973252 0.834090 -0.142297
C5    C     C_R   0.808454 0.951633 0.872772 -0.182151
C6    C     C_R   0.720412 0.135245 0.766266 0.006742
C7    C     C_R   0.711879 0.157844 0.727262 -0.105954
C8    C     C_R   0.672161 0.113908 0.700757 0.016435
C9    C     C_R   0.638827 0.047576 0.713661 -0.130190
C10   C     C_R   0.645698 0.025115 0.752449 -0.138175
C11   C     C_R   0.686533 0.067980 0.778865 0.032464
C12   C     C_R   0.573507 0.163838 0.638786 -0.115711
C13   C     C_R   0.806769 0.602529 0.156720 -0.126375
C14   C     C_R   0.556823 0.204369 0.601631 -0.057555
C15   C     C_R   0.725796 0.193364 0.606570 0.267231
C16   C     C_R   0.740150 0.151646 0.642903 -0.097949
C17   C     C_R   0.662592 0.141437 0.659948 -0.030106
C18   C     C_R   0.630195 0.229039 0.586797 0.014582
C19   C     C_R   0.047495 0.738580 0.047856 0.526987
C20   C     C_R   0.746666 0.746752 0.063915 0.535289
C21   C     C_R   0.750371 0.041798 0.050363 0.576682
C22   C     C_R   0.015787 0.722711 0.939383 0.524332
C23   C     C_R   0.717111 0.730129 0.954698 0.542673
C24   C     C_R   0.809314 0.622229 0.117988 -0.132654
C25   C     C_R   0.748880 0.975900 0.938356 0.572855
C26   C     C_R   0.750207 0.571759 0.236982 -0.107328
C27   C     C_R   0.741546 0.561710 0.276334 0.017817
C28   C     C_R   0.721653 0.645522 0.301243 0.034654
C29   C     C_R   0.714677 0.734793 0.286598 -0.131281
C30   C     C_R   0.722394 0.743783 0.247543 -0.131136
C31   C     C_R   0.737469 0.663520 0.222362 0.014085
C32   C     C_R   0.595261 0.713318 0.353030 -0.148950
C33   C     C_R   0.593810 0.610067 0.449470 0.556589
C34   C     C_R   0.564894 0.706022 0.389494 -0.182369
C35   C     C_R   0.737559 0.567225 0.404019 0.264696
C36   C     C_R   0.768120 0.578392 0.367592 -0.105419
C37   C     C_R   0.695756 0.646939 0.341512 -0.019932
C38   C     C_R   0.634154 0.630781 0.414801 0.028289
C39   C     C_R   0.105022 0.730073 0.083771 0.030368
C40   C     C_R   0.190824 0.636895 0.096072 -0.003326
C41   C     C_R   0.220794 0.627037 0.134992 -0.110248
C42   C     C_R   0.166303 0.707033 0.161208 0.002668
C43   C     C_R   0.089531 0.801877 0.147948 -0.137806
C44   C     C_R   0.304656 0.590630 0.442158 0.536129
C45   C     C_R   0.059687 0.813502 0.109536 -0.138438
C46   C     C_R   0.216983 0.744857 0.224898 -0.122648
C47   C     C_R   0.223604 0.737594 0.264674 -0.117714
C48   C     C_R   0.188766 0.679113 0.283439 0.017065
C49   C     C_R   0.147242 0.628032 0.261428 -0.095545
C50   C     C_R   0.147178 0.627972 0.221114 0.012037
C51   C     C_R   0.180276 0.689920 0.202878 0.023649
C52   C     C_R   0.227478 0.568416 0.340797 -0.123664
C53   C     C_R   0.251905 0.548537 0.379441 -0.122169
C54   C     C_R   0.228356 0.719090 0.389304 -0.133859
C55   C     C_R   0.606789 0.297148 0.553046 0.545364
C56   C     C_R   0.201155 0.740082 0.350538 -0.118543
C57   C     C_R   0.203497 0.663731 0.325561 0.033079
C58   C     C_R   0.256200 0.622171 0.403867 0.020855
C59   C     C_R   0.722116 0.102139 0.086290 0.035590
C60   C     C_R   0.799851 0.105191 0.108786 -0.192593
C61   C     C_R   0.783322 0.135110 0.147085 -0.102346
C62   C     C_R   0.688565 0.163390 0.163386 0.006092
C63   C     C_R   0.606944 0.172367 0.140015 -0.127076
C64   C     C_R   0.623001 0.140332 0.101321 0.272211
C65   C     C_R   0.589505 0.263080 0.219891 -0.174933
C66   C     C_R   0.587734 0.606642 0.558959 0.557675
C67   C     C_R   0.574419 0.275456 0.259174 -0.159593
C68   C     C_R   0.645808 0.202181 0.284461 -0.008207
C69   C     C_R   0.731697 0.115201 0.270000 -0.072767
C70   C     C_R   0.746556 0.101040 0.230410 0.273310
C71   C     C_R   0.676028 0.176959 0.205171 0.035265
C72   C     C_R   0.623367 0.316508 0.339138 -0.188396
C73   C     C_R   0.617688 0.338708 0.377838 -0.157446
C74   C     C_R   0.634832 0.172379 0.392170 -0.004753
C75   C     C_R   0.639579 0.150249 0.352310 0.292090
C76   C     C_R   0.635483 0.222595 0.325960 0.022916
C77   C     C_R   0.296340 0.590071 0.551714 0.549370
C78   C     C_R   0.623558 0.267839 0.404442 0.002798
C79   C     C_R   0.690253 0.692322 0.918946 0.009748
C80   C     C_R   0.761964 0.600940 0.900409 0.257349
C81   C     C_R   0.746449 0.585226 0.861591 -0.121874
C82   C     C_R   0.658943 0.656901 0.841419 -0.006718
C83   C     C_R   0.581446 0.742764 0.861011 -0.006442
C84   C     C_R   0.597689 0.758354 0.899703 -0.169032
C85   C     C_R   0.583092 0.630866 0.780337 -0.108111
C86   C     C_R   0.574745 0.633756 0.739945 0.325224
C87   C     C_R   0.646688 0.647191 0.719189 0.083145
C88   C     C_R   0.736678 0.717127 0.102710 0.023717
C89   C     C_R   0.723175 0.659787 0.738358 -0.178506
C90   C     C_R   0.727772 0.661054 0.778198 -0.146577
C91   C     C_R   0.657062 0.647895 0.799348 -0.014491
C92   C     C_R   0.689403 0.543573 0.659773 0.280142
C93   C     C_R   0.675251 0.534462 0.620546 -0.166339
C94   C     C_R   0.585353 0.719942 0.614254 0.257519
C95   C     C_R   0.597442 0.730375 0.654183 -0.024466
C96   C     C_R   0.646013 0.641252 0.677005 0.030544
C97   C     C_R   0.620028 0.621485 0.597824 -0.039172
C98   C     C_R   0.055183 0.701034 0.900269 -0.003727
C99   C     C_R   0.659098 0.789672 0.126315 -0.129090
C100  C     C_R   0.092444 0.760516 0.883893 -0.126371
C101  C     C_R   0.110954 0.754132 0.844280 0.003802
C102  C     C_R   0.092304 0.685058 0.821606 0.019775
C103  C     C_R   0.057651 0.624231 0.838388 -0.147332
C104  C     C_R   0.040255 0.631273 0.877386 -0.135327
C105  C     C_R   0.190509 0.589205 0.763158 0.001943
C106  C     C_R   0.200485 0.587011 0.723205 -0.104191
C107  C     C_R   0.129396 0.668354 0.700641 0.005076
C108  C     C_R   0.046394 0.752749 0.717468 -0.129648
C109  C     C_R   0.034371 0.755868 0.756860 -0.136028
C110  C     C_R   0.658396 0.770907 0.164982 -0.130332
C111  C     C_R   0.106613 0.676114 0.779895 0.019844
C112  C     C_R   0.171252 0.734932 0.643872 -0.119704
C113  C     C_R   0.211730 0.719410 0.606811 -0.055009
C114  C     C_R   0.189222 0.567955 0.600398 0.259999
C115  C     C_R   0.151721 0.584917 0.637367 -0.104257
C116  C     C_R   0.146703 0.665337 0.659541 -0.039905
C117  C     C_R   0.229186 0.628847 0.585914 0.013084
C118  C     C_R   0.724355 0.993576 0.897268 0.040108
C119  C     C_R   0.624028 0.055995 0.882350 0.272503
C120  C     C_R   0.611774 0.075784 0.842544 -0.137918
Cr1   Cr    Cr6+3 0.426010 0.422500 0.497000 1.006197
Cr2   Cr    Cr6+3 0.651300 0.426310 0.501970 1.041810
Cr3   Cr    Cr6+3 0.422670 0.651170 0.501050 1.001942
Cr4   Cr    Cr6+3 0.905130 0.911420 0.992650 0.995145
Cr5   Cr    Cr6+3 0.911860 0.682710 0.002320 1.029773
Cr6   Cr    Cr6+3 0.682710 0.906840 0.004710 1.059221
H1    H     H_    0.601348 0.863203 0.115376 0.122586
H2    H     H_    0.485229 0.755084 0.396916 0.136535
H3    H     H_    0.863267 0.529582 0.168261 0.101948
H4    H     H_    0.994239 0.885375 0.100774 0.129848
H5    H     H_    0.181030 0.815079 0.339998 0.100339
H6    H     H_    0.257504 0.776683 0.280580 0.100535
H7    H     H_    0.241876 0.792585 0.211089 0.109543
H8    H     H_    0.283041 0.554972 0.145328 0.098127
H9    H     H_    0.115464 0.587950 0.276158 0.098769
H10   H     H_    0.869346 0.564625 0.100337 0.118808
H11   H     H_    0.233014 0.506458 0.322614 0.093751
H12   H     H_    0.274126 0.472540 0.389545 0.131368
H13   H     H_    0.047575 0.864804 0.167833 0.140462
H14   H     H_    0.231047 0.777270 0.407519 0.114395
H15   H     H_    0.875959 0.077344 0.097607 0.128123
H16   H     H_    0.507755 0.343312 0.269971 0.120550
H17   H     H_    0.534141 0.321510 0.200947 0.112531
H18   H     H_    0.847013 0.531191 0.359003 0.110426
H19   H     H_    0.846019 0.131741 0.164443 0.153125
H20   H     H_    0.788669 0.059712 0.289395 0.150634
H21   H     H_    0.619613 0.372669 0.319302 0.119672
H22   H     H_    0.607467 0.412668 0.387155 0.126100
H23   H     H_    0.532447 0.199761 0.152515 0.093128
H24   H     H_    0.541201 0.828040 0.913761 0.150972
H25   H     H_    0.532097 0.616361 0.797166 0.092530
H26   H     H_    0.805947 0.519565 0.846537 0.117004
H27   H     H_    0.778892 0.669157 0.722351 0.105796
H28   H     H_    0.785634 0.673764 0.792643 0.126119
H29   H     H_    0.701207 0.458491 0.608505 0.176909
H30   H     H_    0.103032 0.813856 0.902196 0.114532
H31   H     H_    0.761210 0.509857 0.217518 0.101475
H32   H     H_    0.009645 0.585989 0.889221 0.171707
H33   H     H_    0.130433 0.532187 0.649382 0.121863
H34   H     H_    0.264537 0.523797 0.709072 0.116228
H35   H     H_    0.991227 0.815850 0.700119 0.109770
H36   H     H_    0.969180 0.821321 0.769555 0.103864
H37   H     H_    0.164474 0.797216 0.662072 0.113177
H38   H     H_    0.041948 0.572534 0.820961 0.110070
H39   H     H_    0.599459 0.829463 0.182738 0.099488
H40   H     H_    0.885453 0.904365 0.883995 0.137734
H41   H     H_    0.811594 0.130216 0.658337 0.113639
H42   H     H_    0.734623 0.211733 0.717581 0.125942
H43   H     H_    0.536400 0.121758 0.829759 0.099513
H44   H     H_    0.608595 0.012214 0.693717 0.097489
H45   H     H_    0.620932 0.972602 0.761825 0.105693
H46   H     H_    0.515274 0.153784 0.652398 0.112937
H47   H     H_    0.699495 0.799157 0.305390 0.124342
H48   H     H_    0.862015 0.942610 0.816084 0.114142
H49   H     H_    0.713728 0.814754 0.236840 0.093680
H50   H     H_    0.539015 0.767597 0.333111 0.116798
O1    O     O_R   0.324990 0.503440 0.453910 -0.521577
O2    O     O_R   0.639980 0.519500 0.542640 -0.507947
O3    O     O_R   0.500750 0.673190 0.545480 -0.476101
O4    O     O_R   0.336260 0.640450 0.538210 -0.527726
O5    O     O_3   0.499990 0.499990 0.500010 -0.243881
O6    O     O_R   0.834210 0.019400 0.034570 -0.532077
O7    O     O_R   0.002210 0.824620 0.031030 -0.502584
O8    O     O_R   0.024400 0.669340 0.039790 -0.518037
O9    O     O_R   0.830490 0.694950 0.045870 -0.500689
O10   O     O_R   0.675430 0.831160 0.051290 -0.521978
O11   O     O_R   0.698870 0.998880 0.039560 -0.445660
O12   O     O_R   0.522030 0.339050 0.458320 -0.502166
O13   O     O_R   0.811290 0.006780 0.950620 -0.522188
O14   O     O_R   0.980960 0.812920 0.953200 -0.528605
O15   O     O_R   0.001480 0.656720 0.955830 -0.498585
O16   O     O_R   0.809240 0.683250 0.968050 -0.445007
O17   O     O_R   0.652500 0.818540 0.967340 -0.533680
O18   O     O_R   0.677620 0.987170 0.961730 -0.435291
O19   O     O_3   0.833240 0.833660 0.999890 -0.275296
O20   O     O_R   0.676180 0.324490 0.458320 -0.527937
O21   O     O_R   0.643570 0.521510 0.464260 -0.456221
O22   O     O_R   0.504630 0.675350 0.460920 -0.532764
O23   O     O_R   0.339850 0.642450 0.459830 -0.504459
O24   O     O_R   0.321120 0.501280 0.538470 -0.460525
O25   O     O_R   0.518440 0.337050 0.536710 -0.527256
O26   O     O_R   0.672300 0.322330 0.542880 -0.457627
O27   O     O_3   0.808401 0.497980 0.429860 -0.558876
C121  C     C_3   0.849760 0.397225 0.414896 -0.102695
H51   H     H_    0.908975 0.381477 0.393288 0.095307
H52   H     H_    0.789301 0.381768 0.402463 0.121152
H53   H     H_    0.888067 0.342641 0.438643 0.140261
C122  C     C_3   0.248728 0.545841 0.069364 -0.256866
C123  C     C_3   0.361311 0.519005 0.065791 -0.314254
C124  C     C_3   0.419284 0.426709 0.039157 -0.436944
H54   H     H_    0.418089 0.358638 0.050377 0.194088
H55   H     H_    0.383989 0.443587 0.009946 0.148948
H56   H     H_    0.500442 0.408697 0.037306 0.153847
H57   H     H_    0.364546 0.585776 0.054250 0.166326
H58   H     H_    0.400637 0.500471 0.094302 0.163005
H59   H     H_    0.245140 0.479004 0.080648 0.140894
H60   H     H_    0.213807 0.560899 0.040160 0.164522
C125  C     C_3   0.114255 0.562240 0.197085 -0.253698
C126  C     C_3   0.084505 0.493460 0.219162 -0.309097
C127  C     C_3   0.078120 0.414508 0.192408 -0.458705
H61   H     H_    0.036066 0.450568 0.165471 0.150068
H62   H     H_    0.156639 0.353274 0.184902 0.143780
H63   H     H_    0.038398 0.379051 0.206867 0.136184
H64   H     H_    0.143382 0.450029 0.241601 0.153165
H65   H     H_    0.008944 0.541746 0.232828 0.167552
H66   H     H_    0.048551 0.613050 0.178085 0.155873
H67   H     H_    0.179682 0.510566 0.178797 0.144158
O28   O     O_3   0.543935 0.148937 0.076920 -0.563450
C128  C     C_3   0.479299 0.119298 0.094747 -0.117259
H68   H     H_    0.418875 0.184839 0.111072 0.099482
H69   H     H_    0.522681 0.051529 0.113485 0.101798
H70   H     H_    0.439977 0.097406 0.072111 0.140722
O29   O     O_3   0.653279 0.056413 0.339377 -0.587111
C129  C     C_3   0.556679 0.068166 0.328378 -0.146059
H71   H     H_    0.523694 0.118676 0.303101 0.124916
H72   H     H_    0.501740 0.098258 0.352439 0.102407
H73   H     H_    0.566944 0.991848 0.320063 0.129780
O30   O     O_3   0.833082 0.016041 0.216537 -0.587628
C130  C     C_3   0.817114 0.930991 0.216940 -0.126096
H74   H     H_    0.884389 0.864149 0.203977 0.146779
H75   H     H_    0.747957 0.945109 0.199516 0.116038
H76   H     H_    0.810908 0.910363 0.246750 0.123521
C131  C     C_3   0.641877 0.095399 0.421178 -0.246730
C132  C     C_3   0.747407 0.043200 0.441453 -0.295848
C133  C     C_3   0.752498 0.970208 0.472213 -0.461256
H77   H     H_    0.694195 0.012975 0.494401 0.142714
H78   H     H_    0.738651 0.909587 0.459255 0.160643
H79   H     H_    0.829779 0.933158 0.486200 0.136714
H80   H     H_    0.807880 0.999274 0.420075 0.178276
H81   H     H_    0.763668 0.101364 0.455239 0.162919
H82   H     H_    0.580155 0.134895 0.442489 0.129279
H83   H     H_    0.628886 0.035261 0.407280 0.181731
O31   O     O_3   0.853318 0.533632 0.918536 -0.555932
C134  C     C_3   0.850299 0.443877 0.927248 -0.126979
H84   H     H_    0.849499 0.401383 0.900785 0.103178
H85   H     H_    0.783181 0.461377 0.945251 0.111871
H86   H     H_    0.920738 0.392728 0.943960 0.138309
C135  C     C_3   0.556042 0.836745 0.671782 -0.231072
C136  C     C_3   0.440312 0.887346 0.678212 -0.274601
C137  C     C_3   0.396861 0.998427 0.691656 -0.474021
H87   H     H_    0.437327 0.002447 0.718217 0.150036
H88   H     H_    0.405856 0.044240 0.669109 0.147630
H89   H     H_    0.313877 0.031996 0.697626 0.137117
H90   H     H_    0.400118 0.886110 0.651172 0.200691
H91   H     H_    0.425278 0.844212 0.700152 0.163749
H92   H     H_    0.595488 0.834326 0.699440 0.119987
H93   H     H_    0.572435 0.884936 0.652704 0.157240
C138  C     C_3   0.746718 0.463949 0.289805 -0.259713
C139  C     C_3   0.857794 0.375328 0.290226 -0.304748
C140  C     C_3   0.864016 0.276637 0.303996 -0.452393
H94   H     H_    0.835400 0.286907 0.333676 0.149344
H95   H     H_    0.817705 0.254505 0.284736 0.169784
H96   H     H_    0.945087 0.213856 0.303781 0.140987
H97   H     H_    0.889479 0.361904 0.260914 0.158014
H98   H     H_    0.905976 0.395011 0.309539 0.153185
H99   H     H_    0.713954 0.473481 0.318673 0.145005
H100  H     H_    0.698919 0.444311 0.270191 0.138299
O32   O     O_3   0.503267 0.616379 0.719574 -0.547940
C141  C     C_3   0.405948 0.665861 0.736807 -0.142142
H101  H     H_    0.402660 0.617677 0.759767 0.117798
H102  H     H_    0.384916 0.743832 0.748077 0.081656
H103  H     H_    0.347182 0.675396 0.714746 0.153588
O33   O     O_3   0.733786 0.457054 0.682338 -0.536216
C142  C     C_3   0.840564 0.403632 0.676432 -0.127501
H104  H     H_    0.875225 0.453520 0.682400 0.101308
H105  H     H_    0.858708 0.370715 0.646929 0.132350
H106  H     H_    0.876558 0.338829 0.696679 0.135344
C143  C     C_3   0.487485 0.826268 0.840759 -0.245377
C144  C     C_3   0.513364 0.901162 0.821388 -0.285218
C145  C     C_3   0.417886 0.991378 0.804032 -0.468124
H107  H     H_    0.381917 0.963701 0.782035 0.148237
H108  H     H_    0.361620 0.035092 0.826693 0.154533
H109  H     H_    0.439538 0.043713 0.790219 0.134523
H110  H     H_    0.548351 0.930917 0.842934 0.189143
H111  H     H_    0.569529 0.861244 0.798337 0.168013
H112  H     H_    0.455262 0.793166 0.819530 0.131957
H113  H     H_    0.425843 0.869270 0.861852 0.138914
O34   O     O_3   0.531424 0.806832 0.592253 -0.567933
C146  C     C_3   0.602085 0.822304 0.571542 -0.129986
H114  H     H_    0.642064 0.760339 0.549866 0.123538
H115  H     H_    0.659255 0.828512 0.590889 0.092015
H116  H     H_    0.559234 0.895653 0.555975 0.134728
C147  C     C_3   0.267338 0.502184 0.788473 -0.259752
C148  C     C_3   0.355973 0.411605 0.767635 -0.306486
C149  C     C_3   0.422543 0.326498 0.795551 -0.466653
H117  H     H_    0.452089 0.356556 0.819097 0.141744
H118  H     H_    0.377270 0.294170 0.807974 0.139527
H119  H     H_    0.488424 0.264280 0.780111 0.162244
H120  H     H_    0.324953 0.379086 0.745483 0.161172
H121  H     H_    0.404682 0.437919 0.753736 0.173485
H122  H     H_    0.300583 0.534377 0.809873 0.143344
H123  H     H_    0.225117 0.471438 0.804176 0.149922
C150  C     C_3   0.147648 0.820403 0.825221 -0.253678
C151  C     C_3   0.167713 0.891706 0.851993 -0.310077
C152  C     C_3   0.199888 0.956521 0.829290 -0.463552
H124  H     H_    0.268339 0.906525 0.812018 0.145444
H125  H     H_    0.136325 0.008513 0.809807 0.147430
H126  H     H_    0.218833 0.003686 0.849331 0.141949
H127  H     H_    0.096611 0.944623 0.867551 0.159512
H128  H     H_    0.229893 0.845374 0.873006 0.157629
H129  H     H_    0.219749 0.768904 0.809893 0.138753
H130  H     H_    0.088698 0.869019 0.803642 0.142671
C153  C     C_3   0.240051 0.795663 0.590532 -0.231371
C154  C     C_3   0.198180 0.899182 0.611933 -0.322882
C155  C     C_3   0.220365 0.973218 0.590339 -0.458558
H131  H     H_    0.304277 0.939649 0.586286 0.193459
H132  H     H_    0.180649 0.990775 0.561903 0.141276
H133  H     H_    0.192062 0.045861 0.607031 0.138142
H134  H     H_    0.113701 0.934605 0.615134 0.156254
H135  H     H_    0.235306 0.887504 0.640766 0.152546
H136  H     H_    0.325105 0.759441 0.590167 0.203608
H137  H     H_    0.208967 0.812817 0.560689 0.153423
O35   O     O_3   0.196187 0.484248 0.580314 -0.565021
C156  C     C_3   0.104286 0.516594 0.558950 -0.120293
H138  H     H_    0.091903 0.576909 0.538134 0.118350
H139  H     H_    0.037124 0.544431 0.578042 0.102418
H140  H     H_    0.109988 0.450076 0.542296 0.135324
O36   O     O_3   0.541330 0.092365 0.906946 -0.546913
C157  C     C_3   0.465339 0.193922 0.898545 -0.121946
H141  H     H_    0.413164 0.194479 0.875178 0.105000
H142  H     H_    0.498877 0.243185 0.891387 0.104221
H143  H     H_    0.418052 0.228040 0.924343 0.146903
C158  C     C_3   0.764435 0.185229 0.793307 -0.252224
C159  C     C_3   0.679277 0.277211 0.814588 -0.289432
C160  C     C_3   0.722737 0.332812 0.839303 -0.454505
H144  H     H_    0.778269 0.280058 0.860955 0.150277
H145  H     H_    0.761812 0.362576 0.821180 0.156656
H146  H     H_    0.659300 0.398601 0.854452 0.140613
H147  H     H_    0.623343 0.332129 0.793501 0.176135
H148  H     H_    0.638353 0.250960 0.833333 0.164659
H149  H     H_    0.819805 0.128934 0.814023 0.146659
H150  H     H_    0.809041 0.212166 0.776861 0.133883
C161  C     C_3   0.461229 0.222753 0.578471 -0.233313
C162  C     C_3   0.405072 0.167277 0.592515 -0.316253
C163  C     C_3   0.322214 0.176861 0.563734 -0.445263
H151  H     H_    0.265451 0.258856 0.558909 0.180178
H152  H     H_    0.357186 0.139777 0.536030 0.142451
H153  H     H_    0.281558 0.138328 0.575033 0.141830
H154  H     H_    0.460681 0.084513 0.596665 0.163961
H155  H     H_    0.367123 0.201825 0.620106 0.160890
H156  H     H_    0.405793 0.306362 0.578161 0.218526
H157  H     H_    0.485387 0.195163 0.548672 0.148114
O37   O     O_3   0.803266 0.207007 0.592206 -0.552534
C164  C     C_3   0.873524 0.115490 0.573463 -0.123663
H158  H     H_    0.835729 0.095989 0.549305 0.111808
H159  H     H_    0.910879 0.050640 0.593825 0.096108
H160  H     H_    0.934904 0.126637 0.561273 0.136508

loop_
_geom_bond_atom_site_label_1
_geom_bond_atom_site_label_2
_ccdc_geom_bond_type
C7    H42   S    
C40   C122  S    
C145  H109  S    
C125  H67   S    
Cr3   O22   S    
C114  C115  A    
C12   H46   S    
O35   C156  S    
C148  H121  S    
C66   C97   S    
C142  H104  S    
C21   C59   S    
C92   O33   S    
C106  C107  A    
C108  C109  A    
C23   O16   A    
C134  H85   S    
C46   C47   A    
Cr6   O19   S    
C35   C36   A    
C154  C155  S    
C22   O14   A    
C45   H4    S    
C133  H77   S    
C102  C111  S    
C129  H72   S    
C9    C10   A    
O28   C128  S    
C77   O4    A    
C73   H22   S    
C153  C154  S    
C6    C11   A    
C4    C5    A    
C94   C97   A    
C10   H45   S    
C99   C110  A    
C138  H100  S    
C82   C91   S    
C129  H73   S    
C32   C34   A    
C75   C76   A    
C85   H25   S    
Cr4   O6    S    
C128  H68   S    
C60   H15   S    
C147  C148  S    
C158  H150  S    
C52   H11   S    
C26   C27   A    
Cr5   O15   S    
C160  H146  S    
C87   C89   A    
C140  H95   S    
O34   C146  S    
C147  H122  S    
C15   O37   S    
C122  H60   S    
C159  H147  S    
Cr6   O11   S    
C29   H47   S    
C142  H106  S    
C144  H110  S    
C72   C73   A    
C53   C58   A    
C6    C7    A    
C66   O3    A    
C8    C17   S    
C36   H18   S    
Cr1   O25   S    
Cr3   O5    S    
C156  H140  S    
C16   C17   A    
C162  H155  S    
C143  H112  S    
C69   C70   A    
C56   H5    S    
C3    C11   S    
C20   O10   A    
C133  H79   S    
C125  H66   S    
C25   O18   A    
Cr1   O12   S    
C15   C18   A    
C22   C98   S    
Cr6   O17   S    
C114  O35   S    
C90   C91   A    
C48   C57   S    
C85   C86   A    
C132  C133  S    
C144  H111  S    
C139  H97   S    
Cr3   O23   S    
C36   C37   A    
C128  H70   S    
C109  C111  A    
O31   C134  S    
C120  H43   S    
Cr5   O19   S    
C115  C116  A    
C55   O25   A    
C92   C96   A    
C164  H158  S    
Cr5   O9    S    
C105  C147  S    
C155  H132  S    
C126  H64   S    
C149  H118  S    
C107  C108  A    
O29   C129  S    
C39   C45   A    
C161  H156  S    
C24   H10   S    
C141  H102  S    
C49   H9    S    
Cr5   O8    S    
C155  H131  S    
C127  H61   S    
C123  C124  S    
C21   O6    A    
C131  H82   S    
C132  H80   S    
C88   C99   A    
C93   H29   S    
C35   C38   A    
Cr3   O3    S    
C39   C40   A    
C156  H138  S    
C68   C69   A    
C119  O36   S    
Cr1   O1    S    
C134  H86   S    
C154  H134  S    
C32   C37   A    
C46   C51   A    
C126  H65   S    
C29   C30   A    
C83   C84   A    
O37   C164  S    
C138  H99   S    
C144  C145  S    
C130  H75   S    
C5    H40   S    
C94   O34   S    
C43   C45   A    
C18   C55   S    
C113  C117  A    
C163  H152  S    
C82   C83   A    
C124  H55   S    
C90   H28   S    
C3    C4    A    
C135  H92   S    
C93   C97   A    
C112  C116  A    
C52   C53   A    
C151  H127  S    
C163  H151  S    
C40   C41   A    
C152  H126  S    
C104  H32   S    
C137  H87   S    
C19   O8    A    
C68   C76   S    
C72   H21   S    
C108  H35   S    
C164  H160  S    
C5    C118  A    
C142  H105  S    
C135  C136  S    
C25   O13   A    
C33   O22   A    
C100  C101  A    
C62   C71   S    
C41   H8    S    
C86   O32   S    
C102  C103  A    
C146  H116  S    
C107  C116  S    
C114  C117  A    
C10   C11   A    
C63   C64   A    
C59   C60   A    
C157  H143  S    
C159  C160  S    
C34   H2    S    
C49   C50   A    
O33   C142  S    
C13   H3    S    
O32   C141  S    
C33   C38   S    
C153  H137  S    
C70   O30   S    
C22   O15   A    
C127  H63   S    
C6    C158  S    
C95   C135  S    
C101  C102  A    
C1    C78   S    
C41   C42   A    
C130  H74   S    
C150  H130  S    
C158  C159  S    
C25   C118  S    
Cr4   O14   S    
C161  C162  S    
C103  H38   S    
C28   C29   A    
C109  H36   S    
C30   C31   A    
C65   H17   S    
C110  H39   S    
C16   H41   S    
C131  C132  S    
C14   C161  S    
C145  H107  S    
C61   H19   S    
Cr4   O13   S    
Cr2   O5    S    
C44   C58   S    
C122  C123  S    
C65   C67   A    
C158  H149  S    
C12   C17   A    
C143  H113  S    
C70   C71   A    
C160  H145  S    
C100  H30   S    
C105  C111  A    
C152  H124  S    
C4    H48   S    
C139  C140  S    
C69   H20   S    
C140  H96   S    
C9    H44   S    
C137  H89   S    
C148  H120  S    
C159  H148  S    
C80   O31   S    
C53   H12   S    
C7    C8    A    
C136  H90   S    
C150  H129  S    
C126  C127  S    
C86   C87   A    
C80   C81   A    
C99   H1    S    
C67   C68   A    
C115  H33   S    
C60   C61   A    
C146  H114  S    
Cr1   O24   S    
C62   C63   A    
C32   H50   S    
Cr6   O18   S    
C157  H141  S    
C121  H53   S    
Cr6   O10   S    
C23   O17   A    
C50   C51   A    
C123  H58   S    
C24   C88   A    
C74   C131  S    
C48   C49   A    
C98   C100  A    
C133  H78   S    
C56   C57   A    
C124  H56   S    
C30   H49   S    
Cr1   O5    S    
Cr2   O2    S    
C112  H37   S    
O30   C130  S    
C2    C110  A    
C119  C120  A    
C105  C106  A    
C123  H57   S    
C47   H6    S    
Cr2   O26   S    
C151  C152  S    
C141  H101  S    
C128  H69   S    
C46   H7    S    
C150  C151  S    
C79   C84   A    
C106  H34   S    
C20   C88   S    
C92   C93   A    
C164  H159  S    
Cr5   O16   S    
C94   C95   A    
C52   C57   A    
C138  C139  S    
C149  H117  S    
C74   C78   A    
C103  C104  A    
C140  H94   S    
C89   C90   A    
C67   H16   S    
C15   C16   A    
C147  H123  S    
C84   H24   S    
O27   C121  S    
C14   C18   A    
C95   C96   A    
C72   C76   A    
C127  H62   S    
C81   C82   A    
C85   C91   A    
C66   O2    A    
C59   C64   A    
C134  H84   S    
C132  H81   S    
C28   C37   S    
C77   C117  S    
C156  H139  S    
C154  H135  S    
C162  H154  S    
C26   H31   S    
C141  H103  S    
C2    C13   A    
C118  C119  A    
C63   H23   S    
C20   O9    A    
C54   H14   S    
C27   C138  S    
C8    C9    A    
C73   C78   A    
C43   H13   S    
C42   C51   S    
C26   C31   A    
C122  H59   S    
C61   C62   A    
C135  H93   S    
C112  C113  A    
C77   O24   A    
C21   O11   A    
C151  H128  S    
C54   C56   A    
C152  H125  S    
C74   C75   A    
C139  H98   S    
C1    O20   A    
Cr4   O7    S    
C137  H88   S    
C19   O7    A    
C65   C71   A    
C55   O26   A    
C50   C125  S    
C13   C24   A    
C2    C31   S    
C155  H133  S    
C136  H91   S    
C113  C153  S    
C129  H71   S    
C89   H27   S    
C47   C48   A    
C33   O21   A    
C149  H119  S    
C87   C96   S    
C121  H51   S    
C146  H115  S    
C19   C39   S    
C101  C150  S    
C161  H157  S    
C148  C149  S    
C157  H142  S    
C121  H52   S    
C162  C163  S    
C153  H136  S    
C136  C137  S    
C64   O28   S    
C54   C58   A    
C1    O12   A    
C131  H83   S    
C34   C38   A    
Cr2   O20   S    
Cr3   O4    S    
C44   O1    A    
C81   H26   S    
C143  C144  S    
C12   C14   A    
C35   O27   S    
C125  C126  S    
C98   C104  A    
Cr4   O19   S    
C75   O29   S    
C130  H76   S    
C145  H108  S    
C124  H54   S    
Cr2   O21   S    
C3    C120  A    
C79   C80   A    
C163  H153  S    
C44   O23   A    
O36   C157  S    
C42   C43   A    
C27   C28   A    
C23   C79   S    
C160  H144  S    
C83   C143  S    
