data_mof_unit_35585.cif
_audit_creation_date              2013-03-05T15:46:32-0500
_audit_creation_method            fapswitch 2.2
_symmetry_space_group_name_H-M    P1
_symmetry_Int_Tables_number       1
_space_group_crystal_system       triclinic
_cell_length_a                    10.319504
_cell_length_b                    10.689772
_cell_length_c                    10.863739
_cell_angle_alpha                 95.740072
_cell_angle_beta                  92.712941
_cell_angle_gamma                 80.574158
_cell_volume                      1175.71983285

loop_
_atom_site_label
_atom_site_type_symbol
_atom_site_description
_atom_site_fract_x
_atom_site_fract_y
_atom_site_fract_z
_atom_type_partial_charge
O1    O     O_R   0.568940 0.489660 0.307530 -0.634775
O2    O     O_R   0.431060 0.510340 0.692470 -0.663675
O3    O     O_R   0.348880 0.522640 0.340350 -0.595346
O4    O     O_R   0.651120 0.477360 0.659650 -0.602513
C1    C     C_R   0.448428 0.501597 0.268838 0.915956
C2    C     C_R   0.549673 0.495153 0.733368 1.020706
O5    O     O_R   0.610030 0.300280 0.483580 -0.640951
O6    O     O_R   0.389970 0.699720 0.516420 -0.633778
O7    O     O_R   0.389970 0.333270 0.516400 -0.641240
O8    O     O_R   0.610030 0.666730 0.483600 -0.624527
C3    C     C_R   0.506491 0.263340 0.519301 0.881011
C4    C     C_R   0.499382 0.742146 0.501870 0.934123
Zn1   Zn    Zn3+2 0.646940 0.477980 0.478080 0.938313
Zn2   Zn    Zn3+2 0.353060 0.522020 0.521920 0.932129
H1    H     H_    0.164927 0.201618 0.802939 0.132003
H2    H     H_    0.876917 0.845143 0.290401 0.185233
C5    C     C_R   0.765590 0.075252 0.518693 0.002388
C6    C     C_R   0.346665 0.918094 0.699124 0.019224
C7    C     C_R   0.854712 0.001190 0.434138 -0.034793
C8    C     C_R   0.240871 0.003177 0.755096 0.030128
C9    C     C_R   0.813139 0.900383 0.359436 -0.152493
C10   C     C_R   0.237598 0.133547 0.752267 -0.216880
C11   C     C_R   0.696944 0.858888 0.383887 -0.149106
C12   C     C_R   0.334862 0.177489 0.693215 -0.184757
C13   C     C_R   0.611360 0.926440 0.474148 0.018032
C14   C     C_R   0.423584 0.092883 0.617121 0.070814
C15   C     C_R   0.635111 0.046883 0.520099 0.062744
C16   C     C_R   0.421538 0.961165 0.610056 0.094075
C17   C     C_R   0.505410 0.878969 0.523495 -0.172446
C18   C     C_R   0.523986 0.135100 0.558308 -0.167816
H3    H     H_    0.677481 0.773192 0.331943 0.175185
H4    H     H_    0.340144 0.277878 0.709440 0.163487
C19   C     C_2   0.426959 0.497316 0.138670 -0.391008
C20   C     C_2   0.559980 0.515684 0.868159 -0.355737
C21   C     C_2   0.478451 0.574766 0.072180 0.188982
C22   C     C_2   0.452157 0.557528 0.939855 0.186699
H5    H     H_    0.658205 0.503980 0.910661 0.148358
H6    H     H_    0.369475 0.426996 0.095847 0.132132
N1    N     N_2   0.157300 0.551390 0.551120 -0.215398
N2    N     N_2   0.842700 0.448610 0.448880 -0.214295
C23   C     C_2   0.074903 0.473545 0.505781 0.216058
C24   C     C_2   0.926805 0.505266 0.521857 0.212015
C25   C     C_2   0.810175 0.171990 0.612226 0.504191
H7    H     H_    0.891225 0.219612 0.594541 0.065988
O9    O     O_2   0.756109 0.199139 0.711138 -0.604011
C26   C     C_2   0.411958 0.816274 0.773294 0.340948
H8    H     H_    0.362331 0.791696 0.849964 0.109255
O10   O     O_2   0.527504 0.771137 0.760370 -0.616838
C27   C     C_2   0.992615 0.019887 0.423044 0.353387
H9    H     H_    0.038289 0.999546 0.333731 0.076821
O11   O     O_2   0.059485 0.048819 0.513733 -0.604390
C28   C     C_2   0.140178 0.961994 0.827988 0.346020
H10   H     H_    0.079780 0.031160 0.890054 0.089255
O12   O     O_2   0.119533 0.852343 0.816378 -0.643139
C29   C     C_3   0.304756 0.565048 0.896776 -0.390795
C30   C     C_3   0.202909 0.633897 0.990080 -0.808002
H11   H     H_    0.187827 0.573724 0.063750 0.259928
H12   H     H_    0.232040 0.724752 0.031842 0.269087
H13   H     H_    0.105752 0.656105 0.941833 0.279557
H14   H     H_    0.280352 0.619318 0.815389 0.249837
H15   H     H_    0.283568 0.467066 0.870862 0.191775
C31   C     C_3   0.559123 0.673444 0.131787 -0.416451
C32   C     C_3   0.580894 0.776861 0.051702 -0.824703
H16   H     H_    0.638889 0.735583 0.970024 0.298450
H17   H     H_    0.485297 0.831890 0.024218 0.255200
H18   H     H_    0.637778 0.844042 0.106341 0.242109
H19   H     H_    0.506161 0.723382 0.213896 0.191260
H20   H     H_    0.656755 0.623470 0.161713 0.244466
C33   C     C_3   0.882961 0.582725 0.642379 -0.315513
C34   C     C_3   0.920820 0.506516 0.754113 -0.890740
H21   H     H_    0.883691 0.414383 0.741797 0.288998
H22   H     H_    0.029409 0.486967 0.767137 0.239142
H23   H     H_    0.878869 0.562185 0.838865 0.264751
H24   H     H_    0.926622 0.670493 0.659126 0.200622
H25   H     H_    0.778456 0.623058 0.639278 0.278076
C35   C     C_3   0.122147 0.335725 0.457412 -0.332399
C36   C     C_3   0.174941 0.318845 0.325792 -0.713106
H26   H     H_    0.160320 0.409977 0.282687 0.288911
H27   H     H_    0.280401 0.277174 0.324463 0.242723
H28   H     H_    0.122154 0.251791 0.265892 0.195786
H29   H     H_    0.187858 0.285821 0.524718 0.240331
H30   H     H_    0.039752 0.280873 0.454390 0.153989
C37   C     C_2   0.866243 0.426308 0.319737 0.514709
H31   H     H_    0.830242 0.347090 0.266389 0.030873
O13   O     O_2   0.916735 0.500571 0.266356 -0.597174
C38   C     C_2   0.115879 0.683917 0.540616 0.559989
H32   H     H_    0.159890 0.752575 0.601459 0.115783
O14   O     O_2   0.039028 0.721478 0.458137 -0.593217

loop_
_geom_bond_atom_site_label_1
_geom_bond_atom_site_label_2
_geom_bond_distance
_ccdc_geom_bond_type
C29   C30   1.540131 S    
C32   H17   1.107055 S    
H2    C9    1.084054 S    
C4    C17   1.469003 S    
C20   H5    1.087204 S    
C23   C24   1.524753 S    
C21   C22   1.449330 S    
O7    Zn2   1.986455 S    
C5    C25   1.488270 S    
N1    C23   1.329731 D    
C36   H26   1.107927 S    
O5    C3    1.286955 A    
C31   H19   1.111169 S    
O1    C1    1.284070 A    
C16   C17   1.438102 A    
C7    C9    1.395504 A    
C12   C14   1.410839 A    
C38   O14   1.222069 D    
C30   H11   1.107282 S    
O4    Zn1   1.971609 S    
Zn1   N2    2.028099 S    
C19   C21   1.337771 D    
Zn2   N1    2.028101 S    
H1    C10   1.084036 S    
C3    C18   1.455781 S    
C27   O11   1.219458 D    
C1    C19   1.418314 S    
C34   H21   1.107736 S    
C20   C22   1.376280 D    
N2    C24   1.326503 D    
C32   H18   1.110175 S    
C29   H14   1.102451 S    
C15   C18   1.410379 A    
N2    C37   1.424985 S    
O2    C2    1.272734 A    
C6    C26   1.473698 S    
C28   O12   1.218567 D    
C36   H27   1.106543 S    
C13   C17   1.425458 A    
C26   O10   1.219901 D    
C5    C15   1.428928 A    
C6    C16   1.421850 A    
C35   C36   1.537494 S    
O4    C2    1.325592 A    
C35   H30   1.106650 S    
C38   H32   1.079613 S    
C24   C33   1.523538 S    
C2    C20   1.460259 S    
C11   H3    1.069631 S    
C25   H7    1.081604 S    
C12   H4    1.079844 S    
C31   C32   1.523744 S    
O7    C3    1.308579 A    
C7    C27   1.481170 S    
C37   H31   1.084203 S    
O6    C4    1.305548 A    
C34   H23   1.110412 S    
C33   H24   1.101336 S    
C25   O9    1.221280 D    
O3    Zn2   1.971608 S    
O8    C4    1.296546 A    
C37   O13   1.222369 D    
C8    C10   1.391880 A    
C14   C18   1.399613 A    
C9    C11   1.390332 A    
C10   C12   1.383948 A    
O1    Zn1   1.992127 S    
C28   H10   1.085767 S    
C36   H28   1.111318 S    
C26   H8    1.073906 S    
O6    Zn2   2.004713 S    
O3    C1    1.293974 A    
O8    Zn1   1.986455 S    
C35   H29   1.091632 S    
C13   C15   1.389303 A    
C14   C16   1.406011 A    
C19   H6    1.087820 S    
C30   H13   1.110632 S    
C31   H20   1.110677 S    
C8    C28   1.482592 S    
C22   C29   1.561837 S    
C23   C35   1.522648 S    
C29   H15   1.111000 S    
C5    C7    1.418608 A    
C30   H12   1.110886 S    
C33   H25   1.094177 S    
C21   C31   1.524806 S    
C6    C8    1.419800 A    
C11   C13   1.412242 A    
C33   C34   1.529183 S    
O2    Zn2   1.992129 S    
C32   H16   1.107110 S    
O5    Zn1   2.004712 S    
C27   H9    1.085533 S    
C34   H22   1.110680 S    
N1    C38   1.425513 S    
