data_mof_unit_57932.cif
_audit_creation_date              2013-03-05T16:15:06-0500
_audit_creation_method            fapswitch 2.2
_symmetry_space_group_name_H-M    P1
_symmetry_Int_Tables_number       1
_space_group_crystal_system       triclinic
_cell_length_a                    8.464528
_cell_length_b                    17.326814
_cell_length_c                    18.805936
_cell_angle_alpha                 103.174036
_cell_angle_beta                  91.978711
_cell_angle_gamma                 97.884117
_cell_volume                      2653.97137462

loop_
_atom_site_label
_atom_site_type_symbol
_atom_site_description
_atom_site_fract_x
_atom_site_fract_y
_atom_site_fract_z
_atom_type_partial_charge
P1    P     P_3+3 0.038810 0.422920 0.331160 0.519597
O1    O     O_2   0.871520 0.445720 0.321500 -0.299539
O2    O     O_3   0.121030 0.451930 0.411150 -0.346511
O3    O     O_3   0.662190 0.593100 0.375060 -0.337315
O4    O     O_2   0.767853 0.535890 0.246401 -0.361454
O5    O     O_3   0.981618 0.318495 0.320624 -0.573651
O6    O     O_3   0.683613 0.676607 0.266921 -0.532624
H1    H     H_    0.442216 0.686545 0.285628 0.003519
C1    C     C_3   0.589664 0.801204 0.309139 -0.947398
H2    H     H_    0.638481 0.800918 0.364548 0.263324
H3    H     H_    0.680593 0.836239 0.283461 0.262834
P2    P     P_3+3 0.678260 0.686080 0.568600 0.427521
P3    P     P_3+3 0.141518 0.739401 0.438279 0.468410
O7    O     O_2   0.853880 0.696450 0.547730 -0.357089
O8    O     O_3   0.085100 0.636210 0.413950 -0.349901
O9    O     O_2   0.092370 0.766833 0.516792 -0.390398
O10   O     O_3   0.668529 0.722849 0.663466 -0.657048
O11   O     O_3   0.024585 0.783898 0.384441 -0.521709
C2    C     C_3   0.093442 0.785723 0.316729 0.556286
H4    H     H_    0.212403 0.765195 0.313548 -0.033629
C3    C     C_3   0.125305 0.873341 0.307774 -0.686157
H5    H     H_    0.163671 0.875401 0.252356 0.210306
C4    C     C_3   0.323365 0.716576 0.671189 0.366190
H6    H     H_    0.410770 0.705144 0.711119 0.129346
H7    H     H_    0.353020 0.692240 0.614241 0.106481
C5    C     C_3   0.322362 0.807111 0.684365 -0.751147
H8    H     H_    0.248783 0.826472 0.730828 0.221599
H9    H     H_    0.267620 0.820315 0.635173 0.195301
Ba1   Ba    Ba6+2 0.853800 0.535410 0.467450 1.616427
C6    C     C_3   0.092023 0.272387 0.282965 0.680470
H10   H     H_    0.201203 0.311198 0.274510 0.048447
C7    C     C_3   0.020666 0.224737 0.206852 -1.149977
H11   H     H_    0.904157 0.188911 0.210276 0.274818
H12   H     H_    0.099281 0.181723 0.181071 0.268549
H13   H     H_    0.006702 0.264968 0.170002 0.243506
C8    C     C_3   0.791239 0.711912 0.710602 0.098872
H14   H     H_    0.892817 0.690630 0.680805 0.124420
C9    C     C_3   0.843202 0.794123 0.766035 -0.398107
H15   H     H_    0.734779 0.813044 0.792702 0.249822
P4    P     P_3+3 0.150900 0.577150 0.668860 0.457573
O12   O     O_2   0.318180 0.554310 0.678550 -0.395450
O13   O     O_3   0.068680 0.548140 0.588860 -0.338140
O14   O     O_3   0.527520 0.406960 0.624950 -0.383616
O15   O     O_3   0.170272 0.681784 0.682496 -0.626771
P5    P     P_3+3 0.054255 0.259823 0.571500 0.473832
O16   O     O_3   0.608500 0.402060 0.457050 -0.315415
O17   O     O_3   0.104610 0.363860 0.586060 -0.355528
O18   O     O_2   0.178783 0.220165 0.523433 -0.374609
O19   O     O_3   0.085267 0.232196 0.654319 -0.520847
Ba2   Ba    Ba6+2 0.336030 0.464660 0.532560 1.625765
P6    P     P_3+3 0.632172 0.580132 0.280857 0.493375
C10   C     C_3   0.548891 0.715249 0.263012 0.652556
H16   H     H_    0.481894 0.831418 0.314499 0.207019
O20   O     O_3   0.581210 0.598010 0.542960 -0.391889
C11   C     C_3   0.528458 0.246485 0.268876 0.592550
C12   C     C_3   0.609064 0.180094 0.290794 -1.082383
H17   H     H_    0.520007 0.138756 0.311227 0.261404
H18   H     H_    0.662400 0.143725 0.244171 0.249976
H19   H     H_    0.709729 0.206930 0.331269 0.242947
P7    P     P_3+3 0.507211 0.302640 0.419079 0.499628
O21   O     O_2   0.335820 0.303580 0.452320 -0.317966
O22   O     O_3   0.449134 0.292350 0.325659 -0.587471
H20   H     H_    0.228497 0.906493 0.345372 0.128774
C13   C     C_3   0.080479 0.298871 0.712588 0.410359
H21   H     H_    0.179758 0.347535 0.711314 0.168330
H22   H     H_    0.964290 0.321645 0.710514 0.025045
C14   C     C_3   0.101206 0.274291 0.784589 -0.876609
H23   H     H_    0.213381 0.248099 0.786726 0.298073
H24   H     H_    0.107758 0.327434 0.830970 0.227894
H25   H     H_    0.998648 0.229320 0.790271 0.235678
P8    P     P_3+3 0.555743 0.417237 0.719270 0.409986
C15   C     C_3   0.570022 0.264783 0.694840 0.305615
H26   H     H_    0.686222 0.290362 0.677321 -0.032838
O23   O     O_2   0.433761 0.470621 0.754260 -0.404728
O24   O     O_3   0.486233 0.323151 0.735083 -0.556433
C16   C     C_3   0.608011 0.208830 0.743641 -0.384588
H27   H     H_    0.494725 0.182855 0.763265 0.233660
H28   H     H_    0.686087 0.243968 0.792173 0.182763
C17   C     C_R   0.018007 0.429030 0.035177 0.001424
C18   C     C_R   0.921221 0.394608 0.084573 0.143635
C19   C     C_R   0.823338 0.382930 0.925476 -0.240297
C20   C     C_R   0.966827 0.427358 0.960642 0.040860
C21   C     C_R   0.741742 0.408885 0.872188 -0.121209
C22   C     C_R   0.829065 0.453207 0.827872 -0.043212
C23   C     C_R   0.990900 0.486836 0.852172 0.053347
C24   C     C_R   0.055932 0.477122 0.921054 0.037228
C25   C     C_R   0.766251 0.460069 0.758489 0.131174
C26   C     C_R   0.869623 0.494680 0.713124 -0.429884
C27   C     C_R   0.026106 0.533645 0.737549 0.132440
C28   C     C_R   0.083462 0.534694 0.811076 -0.060697
C29   C     C_R   0.171027 0.472343 0.064154 0.017470
C30   C     C_R   0.224427 0.479575 0.139082 0.036295
C31   C     C_R   0.120544 0.449982 0.187255 -0.053972
C32   C     C_R   0.971586 0.409219 0.158476 -0.213972
H29   H     H_    0.891240 0.386170 0.193342 0.187387
C33   C     C_R   0.227713 0.581694 0.846693 0.012112
C34   C     C_R   0.290730 0.569267 0.912134 -0.200807
C35   C     C_R   0.209448 0.516612 0.949717 -0.001076
C36   C     C_R   0.271391 0.509666 0.019039 0.099127
C37   C     C_R   0.430571 0.541094 0.045731 -0.202439
C38   C     C_R   0.380956 0.517657 0.165978 -0.013849
C39   C     C_R   0.483594 0.544875 0.117255 -0.151966
C40   C     C_R   0.430823 0.527239 0.240628 0.157785
C41   C     C_R   0.323463 0.499986 0.287826 -0.376926
C42   C     C_R   0.168533 0.461151 0.262788 0.133095
H30   H     H_    0.607024 0.569952 0.133648 0.165405
H31   H     H_    0.362103 0.508410 0.344894 0.169147
H32   H     H_    0.763119 0.332147 0.941999 0.207722
H33   H     H_    0.397338 0.608802 0.937502 0.172572
H34   H     H_    0.519146 0.561771 0.011686 0.126161
C43   C     C_2   0.453833 0.722579 0.478710 -0.325691
C44   C     C_3   0.358662 0.776000 0.445942 0.046790
C45   C     C_2   0.397846 0.863348 0.487764 0.059116
C46   C     C_2   0.551742 0.889778 0.511263 0.008313
C47   C     C_2   0.656138 0.829653 0.522721 -0.282121
C48   C     C_1   0.590577 0.753157 0.518488 0.218756
C49   C     C_R   0.792326 0.139046 0.522562 -0.299104
C50   C     C_R   0.854206 0.218777 0.526846 0.209899
C51   C     C_R   0.615856 0.234442 0.458416 0.183295
C52   C     C_R   0.551809 0.154848 0.455891 -0.285454
C53   C     C_R   0.641231 0.106313 0.486887 0.162019
C54   C     C_2   0.616622 0.976604 0.524520 -0.071386
C55   C     C_2   0.577855 0.020763 0.477826 -0.094058
C56   C     C_R   0.768023 0.265284 0.493064 -0.383023
H35   H     H_    0.495186 0.993047 0.430555 0.121120
H36   H     H_    0.865060 0.102541 0.545114 0.169156
H37   H     H_    0.700283 0.002714 0.571444 0.132222
H38   H     H_    0.433765 0.130768 0.429646 0.146626
H39   H     H_    0.425641 0.658358 0.456529 0.155909
H40   H     H_    0.823895 0.323976 0.489863 0.220481
C57   C     C_2   0.484335 0.856058 0.702434 0.634261
H41   H     H_    0.570576 0.854827 0.661387 0.042713
O25   O     O_2   0.518607 0.899796 0.763303 -0.543508
N1    N     N_2   0.138152 0.216752 0.324911 -0.079595
H42   H     H_    0.220577 0.182274 0.301078 0.178652
C58   C     C_3   0.013912 0.168743 0.353239 -0.735086
H43   H     H_    0.068686 0.132161 0.385928 0.238672
H44   H     H_    0.935269 0.127436 0.308065 0.250115
H45   H     H_    0.944590 0.208189 0.389671 0.239503
C59   C     C_2   0.718471 0.650377 0.749944 0.480263
H46   H     H_    0.611870 0.609536 0.725652 0.088745
O26   O     O_2   0.778771 0.643466 0.807646 -0.579370
C60   C     C_2   0.911982 0.856585 0.727706 0.508529
H47   H     H_    0.005271 0.844653 0.690748 0.007253
O27   O     O_2   0.866723 0.921836 0.739224 -0.578983
C61   C     C_2   0.964967 0.792503 0.825530 0.652448
H48   H     H_    0.087250 0.788438 0.813406 -0.038291
O28   O     O_2   0.928307 0.799460 0.888691 -0.511911
N2    N     N_2   0.514910 0.715939 0.187002 -0.111627
H49   H     H_    0.604351 0.746297 0.163600 0.200241
C62   C     C_3   0.356342 0.727819 0.166324 -1.003197
H50   H     H_    0.339070 0.790293 0.191039 0.260768
H51   H     H_    0.266022 0.684411 0.183912 0.248789
H52   H     H_    0.341011 0.717249 0.105831 0.284651
N3    N     N_2   0.410337 0.211599 0.207142 -0.132145
H53   H     H_    0.356193 0.254553 0.189767 0.165160
C63   C     C_3   0.450571 0.152618 0.144823 -0.958464
H54   H     H_    0.356791 0.142255 0.099459 0.272540
H55   H     H_    0.453717 0.094324 0.159507 0.286783
H56   H     H_    0.566866 0.173820 0.124872 0.241954
C64   C     C_2   0.646182 0.304327 0.243642 0.574325
H57   H     H_    0.751053 0.285127 0.219473 -0.015867
O29   O     O_2   0.613990 0.370607 0.242759 -0.594150
C65   C     C_2   0.467315 0.220919 0.627167 0.628974
H58   H     H_    0.452245 0.251747 0.584111 0.060730
O30   O     O_2   0.399452 0.152431 0.620052 -0.584544
N4    N     N_2   0.688854 0.145647 0.703618 -0.122987
H59   H     H_    0.794582 0.166142 0.683822 0.195571
C66   C     C_3   0.701954 0.081035 0.739071 -0.693045
H60   H     H_    0.755856 0.034001 0.701906 0.259371
H61   H     H_    0.581713 0.054240 0.750829 0.269680
H62   H     H_    0.779014 0.103168 0.790745 0.247264
N5    N     N_2   0.989257 0.730576 0.258136 -0.064664
H63   H     H_    0.002482 0.671331 0.253415 0.193467
C67   C     C_3   0.952908 0.749934 0.188806 -0.850790
H64   H     H_    0.874657 0.698280 0.152499 0.249885
H65   H     H_    0.062187 0.762466 0.160517 0.244717
H66   H     H_    0.887740 0.802117 0.197171 0.274984
C68   C     C_2   0.810052 0.492221 0.638682 0.752920
H67   H     H_    0.757458 0.541448 0.626492 -0.017565
O31   O     O_2   0.822769 0.434560 0.589596 -0.576058
C69   C     C_2   0.567382 0.404923 0.879055 0.636696
H68   H     H_    0.509765 0.455488 0.874036 0.050619
O32   O     O_2   0.488068 0.347127 0.894168 -0.599144
C70   C     C_2   0.297283 0.656724 0.828552 0.557815
H69   H     H_    0.220012 0.690992 0.807198 0.014909
O33   O     O_2   0.438901 0.683630 0.842242 -0.576878
N6    N     N_2   0.772016 0.344483 0.062915 -0.127863
H70   H     H_    0.757131 0.294795 0.084937 0.162176
C71   C     C_3   0.635000 0.386147 0.070867 -0.828380
H71   H     H_    0.524348 0.343108 0.050617 0.265080
H72   H     H_    0.646029 0.432482 0.038631 0.249721
H73   H     H_    0.625981 0.415318 0.128967 0.286011
C72   C     C_2   0.828368 0.858021 0.539496 0.677312
H74   H     H_    0.892684 0.839536 0.581247 0.040551
O34   O     O_2   0.899006 0.904870 0.507730 -0.635801
N7    N     N_2   0.284554 0.918716 0.494301 -0.126117
H75   H     H_    0.183160 0.902160 0.460045 0.224733
C73   C     C_3   0.253803 0.959147 0.567822 -0.684774
H76   H     H_    0.365294 0.980143 0.603798 0.241724
H77   H     H_    0.172157 0.918646 0.592553 0.228998
H78   H     H_    0.195023 0.012011 0.565290 0.279320
C74   C     C_2   0.985843 0.918004 0.324262 0.630160
H79   H     H_    0.931881 0.921984 0.376099 0.107956
O35   O     O_2   0.934011 0.951571 0.279975 -0.603762

loop_
_geom_bond_atom_site_label_1
_geom_bond_atom_site_label_2
_geom_bond_distance
_ccdc_geom_bond_type
P5    C50   1.837802 S    
C72   O34   1.218948 D    
C74   H79   1.082786 S    
C37   H34   1.079074 S    
C38   C39   1.398681 A    
P2    Ba1   3.411361 S    
N3    C63   1.452931 S    
C9    C60   1.497176 S    
C3    C74   1.501688 S    
C43   C44   1.521763 S    
C22   C25   1.428116 A    
C15   C16   1.535017 S    
P7    O21   1.600055 D    
C46   C47   1.501433 S    
C65   O30   1.221230 D    
N4    C66   1.441991 S    
N5    H63   1.031906 S    
C11   N3    1.465282 S    
C74   O35   1.220659 D    
C5    H8    1.106890 S    
Ba2   O20   2.852071 S    
P3    O11   1.759310 S    
C16   N4    1.448712 S    
O1    Ba1   2.849417 S    
P7    O22   1.770181 S    
C65   H58   1.079775 S    
C2    C3    1.553433 S    
C59   O26   1.220712 D    
O6    C10   1.407201 S    
O11   C2    1.423655 S    
P3    C44   1.849731 S    
N2    C62   1.439220 S    
C23   C24   1.443930 A    
C6    H10   1.104524 S    
Ba1   O13   2.818445 S    
C55   H35   1.086646 S    
Ba1   O20   2.954251 S    
P6    C40   1.866387 S    
C60   H47   1.080064 S    
C11   O22   1.425400 S    
C12   H17   1.107372 S    
P7    C51   1.854414 S    
N6    C71   1.442584 S    
P1    O1    1.537084 D    
C66   H60   1.106895 S    
C62   H52   1.110344 S    
C54   H37   1.082519 S    
N7    C73   1.450370 S    
C49   C53   1.405625 A    
C69   H68   1.079864 S    
C9    C61   1.502521 S    
C71   H73   1.104419 S    
C31   C42   1.426001 A    
C22   C23   1.428732 A    
C43   H39   1.085284 S    
C63   H54   1.111067 S    
C67   H64   1.110649 S    
C10   N2    1.451380 S    
C6    N1    1.460321 S    
P2    O10   1.761231 S    
C73   H78   1.109993 S    
O14   P8    1.746466 S    
C62   H50   1.108126 S    
O8    Ba1   2.809761 S    
C43   C48   1.330924 D    
O10   C8    1.402684 S    
P4    C27   1.916320 S    
O17   Ba2   2.810395 S    
C49   H36   1.081705 S    
H1    C10   1.115042 S    
C17   C29   1.426883 A    
O3    Ba1   2.773144 S    
P4    O13   1.577174 S    
C72   H74   1.071639 S    
C19   H32   1.069173 S    
C73   H76   1.109149 S    
C38   C40   1.417808 A    
O19   C13   1.405677 S    
C3    H5    1.109085 S    
C66   H61   1.110421 S    
N7    H75   1.021739 S    
C1    C10   1.529418 S    
C58   H45   1.097816 S    
P1    Ba1   3.414399 S    
C41   C42   1.401826 A    
C64   O29   1.219682 D    
O2    Ba2   2.819061 S    
C34   C35   1.400208 A    
C67   H66   1.106584 S    
C61   O28   1.221550 D    
Ba1   Ba2   4.623349 S    
N5    C67   1.451569 S    
C18   N6    1.420417 S    
N3    H53   1.031902 S    
C3    H20   1.107898 S    
C13   C14   1.520712 S    
C61   H48   1.075765 S    
O3    P6    1.739343 S    
C14   H23   1.110420 S    
C6    C7    1.536268 S    
C7    H13   1.103301 S    
C59   H46   1.082898 S    
C11   C64   1.482591 S    
C67   H65   1.103328 S    
N4    H59   1.030378 S    
C58   H43   1.110479 S    
N1    C58   1.443065 S    
C51   C56   1.401300 A    
C19   C20   1.400387 A    
C4    O15   1.396788 S    
P1    O5    1.771160 S    
C21   C69   1.479528 S    
N6    H70   1.031980 S    
P1    O2    1.577013 S    
C7    H12   1.107698 S    
C4    C5    1.532592 S    
C2    N5    1.458318 S    
C71   H71   1.110265 S    
P8    O23   1.544723 D    
C34   H33   1.078372 S    
C36   C37   1.411160 A    
P5    O19   1.752121 S    
C4    H6    1.104606 S    
C33   C34   1.397291 A    
C11   C12   1.539717 S    
C37   C39   1.387455 A    
C15   C65   1.501494 S    
C56   H40   1.076748 S    
C31   C32   1.384147 A    
C50   C56   1.395610 A    
C16   H27   1.113557 S    
C51   C52   1.400488 A    
C8    C59   1.508122 S    
C13   H22   1.111438 S    
C30   C38   1.417197 A    
O13   Ba2   2.949527 S    
P8    C25   1.888579 S    
C58   H44   1.109136 S    
P4    O12   1.537370 D    
O5    C6    1.416253 S    
C47   C72   1.472208 S    
P2    O7    1.547671 D    
C63   H56   1.110794 S    
C1    H3    1.106887 S    
C66   H62   1.111134 S    
C17   C18   1.435551 A    
C21   C22   1.417479 A    
C1    H16   1.108911 S    
O7    Ba1   2.853831 S    
C18   C32   1.395180 A    
C57   H41   1.079299 S    
O12   Ba2   2.849996 S    
C29   C30   1.437204 A    
O2    Ba1   2.948668 S    
C52   C53   1.409798 A    
C26   C68   1.460857 S    
C45   C46   1.343979 D    
C1    H2    1.108951 S    
P5    O18   1.543280 D    
C60   O27   1.218535 D    
C8    H14   1.102409 S    
C71   H72   1.107252 S    
O16   P7    1.790042 S    
C33   C70   1.469442 S    
C16   H28   1.111361 S    
C15   H26   1.114328 S    
C57   O25   1.220719 D    
C19   C21   1.387943 A    
C17   C20   1.445487 A    
C23   C28   1.433333 A    
C52   H38   1.083406 S    
O14   Ba2   2.772624 S    
C28   C33   1.422956 A    
N1    H42   1.028796 S    
O16   Ba2   2.953391 S    
C5    H9    1.103999 S    
C12   H19   1.098559 S    
Ba1   O16   2.852695 S    
C14   H25   1.109489 S    
C29   C36   1.417345 A    
C7    H11   1.103053 S    
C2    H4    1.112093 S    
P3    O8    1.735524 S    
C54   C55   1.348880 D    
O6    P6    1.749413 S    
C20   C24   1.421118 A    
N2    H49   1.030918 S    
C13   H21   1.110826 S    
P8    O24   1.749888 S    
C15   O24   1.408387 S    
C70   H69   1.067108 S    
C9    H15   1.113833 S    
C64   H57   1.070147 S    
P4    Ba2   3.415088 S    
C8    C9    1.558482 S    
C30   C31   1.414175 A    
C12   H18   1.105984 S    
C39   H30   1.080531 S    
C44   C45   1.523438 S    
C62   H51   1.110262 S    
C32   H29   1.061888 S    
C24   C35   1.409566 A    
C69   O32   1.221799 D    
C53   C55   1.474604 S    
C70   O33   1.221159 D    
C68   H67   1.079125 S    
C46   C54   1.489939 S    
P4    O15   1.755894 S    
C4    H7    1.108841 S    
P5    O17   1.749944 S    
C26   C27   1.411577 A    
C25   C26   1.412054 A    
C63   H55   1.109590 S    
C35   C36   1.424982 A    
P3    O9    1.534876 D    
C40   C41   1.402034 A    
C73   H77   1.106471 S    
Ba2   O21   2.854029 S    
C45   N7    1.435900 S    
O4    P6    1.546939 D    
C68   O31   1.215670 D    
C14   H24   1.108291 S    
C27   C28   1.444922 A    
C49   C50   1.391818 A    
C41   H31   1.082272 S    
P2    O20   1.590369 S    
C5    C57   1.493961 S    
C47   C48   1.348385 D    
P1    C42   1.893137 S    
P2    C48   1.864770 S    
