data_mof_unit_13248.cif
_audit_creation_date              2013-03-05T16:44:35-0500
_audit_creation_method            fapswitch 2.2
_symmetry_space_group_name_H-M    P1
_symmetry_Int_Tables_number       1
_space_group_crystal_system       triclinic
_cell_length_a                    27.68347
_cell_length_b                    10.714911
_cell_length_c                    9.869432
_cell_angle_alpha                 90.338513
_cell_angle_beta                  89.925153
_cell_angle_gamma                 88.947832
_cell_volume                      2926.98169283

loop_
_atom_site_label
_atom_site_type_symbol
_atom_site_description
_atom_site_fract_x
_atom_site_fract_y
_atom_site_fract_z
_atom_type_partial_charge
O1    O     O_R   0.500010 0.316790 0.614690 -0.641198
O2    O     O_R   0.500000 0.316760 0.385350 -0.605574
C1    C     C_R   0.500933 0.260053 0.499783 0.917154
O3    O     O_R   0.428760 0.500040 0.614660 -0.622699
O4    O     O_R   0.428750 0.500000 0.385310 -0.603841
C2    C     C_R   0.406201 0.501278 0.499885 0.916169
Zn1   Zn    Zn3+2 0.500000 0.500020 0.653130 0.968266
Zn2   Zn    Zn3+2 0.500000 0.499980 0.346870 0.988935
O5    O     O_R   0.500000 0.683240 0.614650 -0.598229
O6    O     O_R   0.499990 0.683210 0.385310 -0.625445
O7    O     O_R   0.571250 0.500000 0.614690 -0.637140
O8    O     O_R   0.571240 0.499960 0.385340 -0.610584
C3    C     C_R   0.501058 0.739906 0.500290 0.889163
C4    C     C_R   0.594240 0.494986 0.500394 0.900149
C5    C     C_R   0.179883 0.412382 0.437076 0.604729
O9    O     O_2   0.206117 0.332379 0.359320 -0.493638
N1    N     N_R   0.201897 0.512914 0.492225 -0.341099
C6    C     C_R   0.176369 0.608109 0.551603 0.592506
C7    C     C_R   0.279268 0.584037 0.395602 -0.005448
C8    C     C_R   0.329826 0.579286 0.401029 -0.227677
C9    C     C_R   0.327691 0.439097 0.592957 -0.127355
C10   C     C_R   0.277684 0.443532 0.590026 -0.047836
C11   C     C_R   0.253352 0.514970 0.492390 0.213736
C12   C     C_R   0.102401 0.497490 0.508930 -0.040822
C13   C     C_R   0.130251 0.394856 0.459042 -0.097349
C14   C     C_R   0.107641 0.280358 0.431288 -0.050725
C15   C     C_R   0.125471 0.609125 0.546922 -0.091698
C16   C     C_R   0.353808 0.506836 0.498570 -0.042073
H1    H     H_    0.345965 0.381632 0.667571 0.142953
H2    H     H_    0.257512 0.390341 0.663165 0.164793
C17   C     C_R   0.647577 0.484145 0.505871 -0.082223
C18   C     C_R   0.977564 0.368358 0.494504 0.056640
C19   C     C_R   0.974468 0.579945 0.592828 0.070780
C20   C     C_R   0.950903 0.470875 0.549430 0.081862
C21   C     C_R   0.951834 0.262722 0.449717 -0.182961
C22   C     C_R   0.901799 0.258718 0.459560 -0.118553
C23   C     C_R   0.875503 0.360370 0.512218 -0.020708
C24   C     C_R   0.899996 0.465784 0.559174 -0.047457
C25   C     C_R   0.873452 0.567488 0.613797 -0.025462
C26   C     C_R   0.823096 0.568344 0.605214 0.563943
N2    N     N_R   0.799909 0.467474 0.552297 -0.341458
C27   C     C_R   0.824943 0.361312 0.514728 0.542498
C28   C     C_R   0.727807 0.458917 0.403388 -0.040723
C29   C     C_R   0.676897 0.454408 0.391563 -0.115336
C30   C     C_R   0.669602 0.503039 0.632336 -0.218519
C31   C     C_R   0.719133 0.494130 0.646373 -0.092026
C32   C     C_R   0.748548 0.474489 0.533287 0.238918
O10   O     O_2   0.800909 0.258253 0.477208 -0.527145
C33   C     C_R   0.028699 0.375326 0.486203 0.046811
C34   C     C_R   0.051663 0.488914 0.520235 0.079025
C35   C     C_R   0.024103 0.594684 0.563501 -0.017892
C36   C     C_R   0.057679 0.272154 0.445185 -0.217221
H3    H     H_    0.883703 0.176648 0.422056 0.199529
H4    H     H_    0.968945 0.182524 0.402623 0.154343
H5    H     H_    0.042662 0.181375 0.428241 0.173744
O11   O     O_2   0.200390 0.700253 0.614557 -0.518918
C37   C     C_R   0.097431 0.718538 0.572309 -0.089542
H6    H     H_    0.350793 0.632221 0.329454 0.178175
C38   C     C_R   0.947739 0.669748 0.668370 -0.163559
C39   C     C_R   0.897763 0.666217 0.674241 -0.113729
O12   O     O_2   0.797586 0.670466 0.645829 -0.542557
C40   C     C_R   0.046603 0.713022 0.569553 -0.108193
H7    H     H_    0.965079 0.744360 0.722726 0.168566
H8    H     H_    0.648501 0.523515 0.722492 0.167947
H9    H     H_    0.878315 0.741380 0.725572 0.197727
H10   H     H_    0.734936 0.504740 0.746041 0.167844
C41   C     C_R   0.501070 0.064212 0.622023 0.101793
C42   C     C_R   0.506523 0.128202 0.500649 -0.058834
C43   C     C_R   0.519745 0.063085 0.382283 -0.159053
H11   H     H_    0.527273 0.111228 0.288578 0.180032
C44   C     C_R   0.519976 0.933807 0.382676 -0.195798
H12   H     H_    0.527496 0.883863 0.289022 0.173431
C45   C     C_R   0.507198 0.871173 0.501625 -0.081646
C46   C     C_R   0.502045 0.936906 0.622842 0.092513
C47   C     C_3   0.463952 0.929875 0.730083 -0.416712
C48   C     C_3   0.462746 0.072036 0.729922 -0.261958
H13   H     H_    0.430481 0.885526 0.692425 0.245751
H14   H     H_    0.478422 0.889975 0.825839 0.200649
H15   H     H_    0.476340 0.113613 0.825776 0.134210
C49   C     C_R   0.459691 0.534689 0.071655 0.091659
N3    N     N_R   0.499670 0.499140 0.142800 -0.119112
C50   C     C_R   0.541010 0.473628 0.071151 -0.119004
H16   H     H_    0.573855 0.451803 0.123994 0.181712
C51   C     C_R   0.540992 0.472401 0.927579 -0.135069
H17   H     H_    0.573854 0.448030 0.873587 0.157638
N4    N     N_R   0.499670 0.499180 0.857150 -0.117736
C52   C     C_R   0.459943 0.538353 0.929189 0.203989
C53   C     C_3   0.410394 0.484664 0.921500 -0.346643
C54   C     C_3   0.411102 0.476028 0.075823 -0.315340
H18   H     H_    0.409784 0.393530 0.867011 0.114529
H19   H     H_    0.383740 0.536404 0.128203 0.199565
C55   C     C_2   0.254959 0.659398 0.287917 0.991504
O13   O     O_2   0.278348 0.732567 0.220731 -0.587233
O14   O     O_R   0.205722 0.646489 0.261043 -0.777261
H20   H     H_    0.193863 0.703127 0.185687 0.378014
C56   C     C_2   0.120703 0.841548 0.577540 1.054486
O15   O     O_2   0.142910 0.877571 0.478726 -0.587103
O16   O     O_R   0.117828 0.914494 0.695230 -0.723526
H21   H     H_    0.135310 0.996305 0.686043 0.368023
C57   C     C_2   0.017837 0.829617 0.542288 0.891662
O17   O     O_2   0.023229 0.923300 0.611564 -0.604401
O18   O     O_R   0.983810 0.830397 0.437661 -0.765335
H22   H     H_    0.966190 0.913783 0.429230 0.345580
C58   C     C_2   0.414987 0.127720 0.684727 0.475250
H23   H     H_    0.395307 0.190556 0.752318 0.041037
O19   O     O_2   0.397645 0.101458 0.574612 -0.529971
C59   C     C_2   0.372628 0.576703 0.871965 0.989410
O20   O     O_2   0.329870 0.554109 0.887811 -0.590437
O21   O     O_R   0.386191 0.686803 0.808046 -0.802715
H24   H     H_    0.357362 0.739580 0.778490 0.353884
C60   C     C_2   0.412619 0.343242 0.125067 0.558982
H25   H     H_    0.439930 0.277791 0.087191 0.028394
O22   O     O_2   0.382971 0.308098 0.207406 -0.513443
C61   C     C_2   0.135210 0.164124 0.398253 1.030267
O23   O     O_2   0.121620 0.095983 0.306622 -0.560849
O24   O     O_R   0.176338 0.131832 0.473503 -0.756585
H26   H     H_    0.195202 0.058882 0.432740 0.399046
C62   C     C_2   0.655425 0.410836 0.263331 0.479527
H27   H     H_    0.664248 0.455840 0.168476 0.051376
O25   O     O_2   0.629741 0.319373 0.262523 -0.558670
C63   C     C_2   0.759787 0.448299 0.282126 0.908911
O26   O     O_2   0.752973 0.368092 0.195936 -0.593283
O27   O     O_R   0.798516 0.529277 0.268458 -0.791823
H28   H     H_    0.818125 0.512204 0.183303 0.354425

loop_
_geom_bond_atom_site_label_1
_geom_bond_atom_site_label_2
_geom_bond_distance
_ccdc_geom_bond_type
C48   C58   1.509533 S    
C52   C53   1.498968 S    
N2    C27   1.370066 A    
C21   C22   1.389886 A    
C12   C15   1.415148 A    
C4    C17   1.480070 S    
C28   C29   1.416027 A    
C58   O19   1.222075 D    
C61   O23   1.222963 D    
O27   H28   1.013804 S    
C30   C31   1.379963 A    
Zn1   O7    2.008110 S    
N1    C11   1.425020 S    
C22   C23   1.396262 A    
C1    C42   1.418475 S    
C51   N4    1.366187 A    
C31   H10   1.083291 S    
C49   C52   1.406846 A    
C24   C25   1.407410 A    
O7    C4    1.294817 A    
C5    C13   1.406859 A    
Zn1   N4    2.013644 S    
C5    O9    1.348746 S    
O16   H21   1.013540 S    
C23   C27   1.399730 A    
O24   H26   1.013055 S    
Zn1   O5    2.001783 S    
C45   C46   1.390524 A    
C49   C54   1.495766 S    
C43   C44   1.385124 A    
O5    C3    1.285328 A    
C62   H27   1.085209 S    
C55   O13   1.223626 D    
C22   H3    1.083547 S    
O18   H22   1.013972 S    
C2    C16   1.450622 S    
C60   H25   1.086224 S    
C42   C43   1.401919 A    
C37   C56   1.478318 S    
C56   O16   1.397553 S    
C59   O20   1.222576 D    
C48   H15   1.112270 S    
C7    C55   1.492148 S    
C54   H19   1.111999 S    
C28   C63   1.490291 S    
C36   H5    1.077047 S    
C6    O11   1.349439 S    
C53   C54   1.526568 S    
C38   C39   1.385864 A    
C19   C38   1.411808 A    
O1    Zn1   1.997407 S    
C9    C10   1.384645 A    
C21   H4    1.076379 S    
C59   O21   1.398255 S    
O14   H20   1.013839 S    
C35   C40   1.423922 A    
O3    Zn1   2.008868 S    
C57   O18   1.398579 S    
C58   H23   1.084168 S    
N3    C50   1.366960 A    
C12   C34   1.413609 A    
C17   C29   1.420201 A    
C41   C42   1.393151 A    
C18   C21   1.417189 A    
C37   C40   1.409705 A    
C12   C13   1.416929 A    
O3    C2    1.294244 A    
C15   C37   1.415034 A    
C25   C26   1.396568 A    
C44   C45   1.403791 A    
C53   C59   1.507920 S    
N4    C52   1.367001 A    
C8    C16   1.400625 A    
C34   C35   1.417927 A    
C13   C14   1.413013 A    
C9    H1    1.082703 S    
C26   O12   1.349980 S    
Zn2   N3    2.014055 S    
O1    C1    1.283568 A    
C18   C20   1.416808 A    
C7    C11   1.414556 A    
C47   C48   1.523002 S    
C14   C61   1.483088 S    
C23   C24   1.404659 A    
C14   C36   1.394142 A    
C29   C62   1.475852 S    
Zn2   O8    2.008868 S    
C33   C36   1.411002 A    
C56   O15   1.220495 D    
C55   O14   1.398132 S    
N1    C6    1.359658 A    
N2    C32   1.435091 S    
C60   O22   1.220262 D    
C41   C46   1.363917 A    
C27   O10   1.349810 S    
C51   H17   1.080799 S    
C47   H13   1.112433 S    
C63   O26   1.222907 D    
C40   C57   1.495097 S    
C26   N2    1.368440 A    
C9    C16   1.393866 A    
C3    C45   1.419830 S    
C39   H9    1.083366 S    
C33   C34   1.422109 A    
C50   C51   1.416956 A    
C8    H6    1.083241 S    
C5    N1    1.358697 A    
C31   C32   1.393411 A    
C10   H2    1.083152 S    
C20   C24   1.414502 A    
O2    Zn2   2.001784 S    
C6    C15   1.409695 A    
C53   H18   1.112412 S    
C49   N3    1.361151 A    
O6    C3    1.284630 A    
O4    Zn2   2.008113 S    
C61   O24   1.399437 S    
C19   C35   1.415708 A    
C54   C60   1.506098 S    
C30   H8    1.082937 S    
C38   H7    1.080308 S    
C7    C8    1.400696 A    
O2    C1    1.285682 A    
O8    C4    1.303458 A    
C44   H12   1.083347 S    
O21   H24   1.013804 S    
O4    C2    1.290808 A    
C25   C39   1.395580 A    
C57   O17   1.222720 D    
C19   C20   1.413381 A    
C43   H11   1.083463 S    
C47   H14   1.111684 S    
C62   O25   1.221290 D    
C18   C33   1.421207 A    
C63   O27   1.398486 S    
C46   C47   1.496308 S    
Zn2   O6    1.997405 S    
C50   H16   1.071604 S    
C17   C30   1.405051 A    
C10   C11   1.399884 A    
C41   C48   1.503133 S    
C28   C32   1.415636 A    
