data_mof_unit_16755.cif
_audit_creation_date              2012-12-11T14:41:03-0500
_audit_creation_method            fapswitch 2.2
_symmetry_space_group_name_H-M    P1
_symmetry_Int_Tables_number       1
_space_group_crystal_system       triclinic
_cell_length_a                    6.955753
_cell_length_b                    18.316246
_cell_length_c                    18.830548
_cell_angle_alpha                 89.766151
_cell_angle_beta                  90.363836
_cell_angle_gamma                 90.415425
_cell_volume                      2398.94267383

loop_
_atom_site_label
_atom_site_type_symbol
_atom_type_description
_atom_site_fract_x
_atom_site_fract_y
_atom_site_fract_z
_atom_type_partial_charge
O1    O     O_R   0.377350 0.828520 0.186660 -0.534155
O2    O     O_R   0.622650 0.171480 0.813340 -0.505606
O3    O     O_R   0.122650 0.171480 0.686660 -0.517049
O4    O     O_R   0.877350 0.828520 0.313340 -0.529600
O5    O     O_R   0.877350 0.671480 0.313340 -0.535750
O6    O     O_R   0.122650 0.328520 0.686660 -0.535838
O7    O     O_R   0.622650 0.328520 0.813340 -0.537089
O8    O     O_R   0.377350 0.671480 0.186660 -0.504993
O9    O     O_R   0.707090 0.671930 0.178410 -0.531296
O10   O     O_R   0.292910 0.328070 0.821590 -0.529601
O11   O     O_R   0.792910 0.328070 0.678410 -0.529783
O12   O     O_R   0.207090 0.671930 0.321590 -0.502431
O13   O     O_R   0.207090 0.828070 0.321590 -0.533186
O14   O     O_R   0.792910 0.171930 0.678410 -0.502808
O15   O     O_R   0.292910 0.171930 0.821590 -0.515908
O16   O     O_R   0.707090 0.828070 0.178410 -0.528513
C1    C     C_R   0.536365 0.647306 0.159570 0.887667
C2    C     C_R   0.462875 0.351520 0.840497 0.831645
C3    C     C_R   0.962492 0.352849 0.660437 0.825409
C4    C     C_R   0.039081 0.645472 0.338394 0.875958
C5    C     C_R   0.037862 0.853067 0.339435 0.857731
C6    C     C_R   0.960248 0.145257 0.661680 0.877818
C7    C     C_R   0.462254 0.144792 0.837447 0.874512
C8    C     C_R   0.539157 0.853476 0.160917 0.859161
O17   O     O_3   0.543850 0.750000 0.294270 -0.384291
O18   O     O_3   0.456150 0.250000 0.705730 -0.369668
O19   O     O_3   0.956150 0.250000 0.794270 -0.355965
O20   O     O_3   0.043850 0.750000 0.205730 -0.373228
V1    V     V_3+5 0.818700 0.750000 0.241790 1.741724
V2    V     V_3+5 0.181300 0.250000 0.758210 1.812663
V3    V     V_3+5 0.681300 0.250000 0.741790 1.849147
V4    V     V_3+5 0.318700 0.750000 0.258210 1.789511
C9    C     C_R   0.979988 0.412752 0.606575 -0.307131
C10   C     C_R   0.025291 0.581021 0.388147 -0.335288
C11   C     C_R   0.529406 0.584822 0.107232 -0.338383
C12   C     C_R   0.471530 0.411747 0.893386 -0.309505
C13   C     C_R   0.470625 0.080661 0.887719 -0.334613
C14   C     C_R   0.536076 0.912716 0.105709 -0.297060
C15   C     C_R   0.019255 0.912807 0.393405 -0.313007
C16   C     C_R   0.973170 0.080889 0.611656 -0.333962
C17   C     C_R   0.833621 0.474304 0.423359 -0.012907
C18   C     C_R   0.147865 0.524413 0.573517 -0.060172
C19   C     C_R   0.355235 0.530966 0.925564 -0.060388
C20   C     C_R   0.687993 0.473337 0.067319 -0.022253
C21   C     C_R   0.674216 0.027667 0.064127 -0.079144
C22   C     C_R   0.319651 0.967846 0.929531 -0.092894
C23   C     C_R   0.160626 0.973914 0.577159 -0.046227
C24   C     C_R   0.847033 0.022917 0.426656 -0.077408
C25   C     C_R   0.874453 0.530675 0.375674 0.602179
C26   C     C_R   0.099133 0.472059 0.623738 0.593747
C27   C     C_R   0.368390 0.474681 0.877340 0.593032
C28   C     C_R   0.673324 0.531366 0.114756 0.635302
C29   C     C_R   0.655181 0.973953 0.116209 0.600405
C30   C     C_R   0.332663 0.024906 0.880339 0.661766
C31   C     C_R   0.123434 0.030936 0.623964 0.645435
C32   C     C_R   0.898028 0.971326 0.376218 0.583368
C33   C     C_R   0.141097 0.570555 0.450519 0.411488
C34   C     C_R   0.899528 0.409113 0.536965 0.326004
C35   C     C_R   0.572147 0.407763 0.959523 0.331986
C36   C     C_R   0.401462 0.578299 0.046982 0.412143
C37   C     C_R   0.431008 0.907213 0.040696 0.335166
C38   C     C_R   0.609885 0.073083 0.943105 0.392995
C39   C     C_R   0.856031 0.069704 0.549593 0.405514
C40   C     C_R   0.096556 0.909057 0.463602 0.398153
C41   C     C_R   0.074852 0.521264 0.503957 -0.125558
C42   C     C_R   0.933966 0.467633 0.487911 -0.108048
C43   C     C_R   0.570356 0.468812 0.006589 -0.117578
C44   C     C_R   0.444227 0.527042 0.992780 -0.126000
C45   C     C_R   0.438657 0.965699 0.990217 -0.145765
C46   C     C_R   0.574080 0.022847 0.999410 -0.128342
C47   C     C_R   0.920090 0.020203 0.496309 -0.138369
C48   C     C_R   0.060413 0.967056 0.512569 -0.142110
H1    H     H_    0.711840 0.439693 0.411089 0.228677
H2    H     H_    0.241967 0.568372 0.590381 0.224356
H3    H     H_    0.272284 0.577634 0.909087 0.231949
H4    H     H_    0.802005 0.434740 0.076738 0.228696
H5    H     H_    0.766539 0.074092 0.075345 0.210398
H6    H     H_    0.205685 0.928404 0.921494 0.244629
H7    H     H_    0.280774 0.939063 0.589722 0.229309
H8    H     H_    0.752337 0.066342 0.409808 0.221365
S1    S     S_3+6 0.789621 0.326186 0.509083 0.086915
O21   O     O_2   0.585717 0.324359 0.534971 -0.275340
O22   O     O_2   0.790614 0.316769 0.429829 -0.284760
O23   O     O_3   0.911202 0.255967 0.544792 -0.505965
H9    H     H_    0.041576 0.259365 0.524112 0.333987
S2    S     S_3+6 0.382815 0.603689 0.459834 0.049773
O24   O     O_2   0.385136 0.671092 0.504731 -0.283078
O25   O     O_2   0.499970 0.546595 0.497493 -0.346521
O26   O     O_3   0.492577 0.620917 0.382740 -0.459377
H10   H     H_    0.601114 0.653377 0.396025 0.368980
S3    S     S_3+6 0.165166 0.615397 0.040871 0.075282
O27   O     O_2   0.160663 0.674136 0.985122 -0.256842
O28   O     O_2   0.031735 0.555418 0.016858 -0.347495
O29   O     O_3   0.076095 0.647581 0.115842 -0.446118
H11   H     H_    0.975083 0.681223 0.098728 0.381917
S4    S     S_3+6 0.674655 0.324070 0.987050 0.069998
O30   O     O_2   0.879726 0.323540 0.962514 -0.278676
O31   O     O_2   0.670385 0.314745 0.066395 -0.295941
O32   O     O_3   0.551570 0.253923 0.951335 -0.508547
H12   H     H_    0.422663 0.255799 0.973297 0.327217
S5    S     S_3+6 0.852055 0.101117 0.928948 0.060308
O33   O     O_2   0.903061 0.087525 0.852889 -0.281650
O34   O     O_2   0.878116 0.180536 0.944423 -0.268561
O35   O     O_3   0.003501 0.053330 0.980945 -0.520471
H13   H     H_    0.098771 0.089281 0.999048 0.348239
S6    S     S_3+6 0.319717 0.823167 0.017523 0.061978
O36   O     O_2   0.419373 0.761023 0.054116 -0.360751
O37   O     O_2   0.112905 0.824768 0.040015 -0.288374
O38   O     O_3   0.330575 0.807885 0.929568 -0.446584
H14   H     H_    0.469703 0.805817 0.918891 0.361203
S7    S     S_3+6 0.207281 0.827206 0.493066 0.062077
O39   O     O_2   0.116608 0.763143 0.455905 -0.341145
O40   O     O_2   0.417849 0.830984 0.475780 -0.303351
O41   O     O_3   0.178646 0.814376 0.580957 -0.474515
H15   H     H_    0.281338 0.780061 0.595262 0.405848
S8    S     S_3+6 0.615116 0.102333 0.541565 0.056271
O42   O     O_2   0.521110 0.113059 0.612131 -0.295374
O43   O     O_2   0.612917 0.172499 0.500384 -0.252964
O44   O     O_3   0.483061 0.040498 0.496463 -0.519436
H16   H     H_    0.378223 0.068707 0.473743 0.354438
F1    F     F_    0.177094 0.477873 0.689272 -0.591759
F2    F     F_    0.766648 0.534684 0.315466 -0.589285
F3    F     F_    0.798843 0.533460 0.170218 -0.580948
F4    F     F_    0.271957 0.480908 0.815217 -0.588800
F5    F     F_    0.216829 0.022771 0.822376 -0.561076
F6    F     F_    0.760297 0.980810 0.176551 -0.595048
F7    F     F_    0.820261 0.977032 0.310400 -0.598126
F8    F     F_    0.234561 0.035929 0.683184 -0.579689

loop_
_geom_bond_atom_site_label_1
_geom_bond_atom_site_label_2
_ccdc_geom_bond_type
C9    C34   A    
O13   V4    S    
S7    O39   D    
C23   H7    S    
O14   V3    S    
C12   C35   A    
C19   C27   A    
O41   H15   S    
O5    C4    A    
C33   S2    S    
C15   C40   A    
O11   C3    A    
S5    O33   D    
C16   C39   A    
O20   V1    S    
C28   F3    S    
S2    O25   D    
S6    O36   D    
S4    O32   S    
S8    O42   D    
C38   C46   A    
C32   F7    S    
C20   H4    S    
C22   C45   A    
C35   C43   A    
C34   C42   A    
C15   C32   A    
C19   C44   A    
S4    O31   D    
C18   C41   A    
C8    C14   S    
O4    V1    S    
C38   S5    S    
O9    V1    S    
C14   C37   A    
C4    C10   S    
C20   C28   A    
O17   V4    S    
O15   C7    A    
O11   V3    S    
O18   V3    S    
O16   C8    A    
O12   V4    S    
O19   V2    S    
O17   V1    S    
C27   F4    S    
C22   C30   A    
C45   C46   A    
C26   F1    S    
C17   C25   A    
O35   H13   S    
S1    O22   D    
S1    O21   D    
O5    V1    S    
C19   H3    S    
C30   F5    S    
C18   H2    S    
O7    V3    S    
O19   V3    S    
C43   C44   A    
O8    V4    S    
O20   V4    S    
O23   H9    S    
C3    C9    S    
C34   S1    S    
S3    O27   D    
C22   H6    S    
S2    O24   D    
C40   S7    S    
O16   V1    S    
C7    C13   S    
C17   H1    S    
O1    V4    S    
C11   C36   A    
O3    V2    S    
O6    C3    A    
S3    O28   D    
O10   V2    S    
O32   H12   S    
C5    C15   S    
O7    C2    A    
C6    C16   S    
S4    O30   D    
O12   C4    A    
O13   C5    A    
S7    O40   D    
C37   S6    S    
C12   C27   A    
C18   C26   A    
C39   S8    S    
O9    C1    A    
O6    V2    S    
C39   C47   A    
O18   V2    S    
S5    O35   S    
C35   S4    S    
C13   C30   A    
C24   C47   A    
O2    C7    A    
S1    O23   S    
O15   V2    S    
C23   C31   A    
C36   S3    S    
C37   C45   A    
C24   C32   A    
C10   C25   A    
C21   C46   A    
C33   C41   A    
C20   C43   A    
S2    O26   S    
C16   C31   A    
O44   H16   S    
C17   C42   A    
O8    C1    A    
S8    O44   S    
C24   H8    S    
C9    C26   A    
C47   C48   A    
O38   H14   S    
S3    O29   S    
O4    C5    A    
O14   C6    A    
C14   C29   A    
S6    O37   D    
O10   C2    A    
C10   C33   A    
C25   F2    S    
S8    O43   D    
S7    O41   S    
C40   C48   A    
O29   H11   S    
C23   C48   A    
C29   F6    S    
C21   C29   A    
C31   F8    S    
C36   C44   A    
O1    C8    A    
S5    O34   D    
C41   C42   A    
C11   C28   A    
C13   C38   A    
O2    V3    S    
O3    C6    A    
C21   H5    S    
C1    C11   S    
O26   H10   S    
C2    C12   S    
S6    O38   S    
