data_mof_unit_9685.cif
_audit_creation_date              2012-12-11T14:06:51-0500
_audit_creation_method            fapswitch 2.2
_symmetry_space_group_name_H-M    P1
_symmetry_Int_Tables_number       1
_space_group_crystal_system       triclinic
_cell_length_a                    6.900784
_cell_length_b                    17.36919
_cell_length_c                    24.127124
_cell_angle_alpha                 104.112571
_cell_angle_beta                  90.415321
_cell_angle_gamma                 89.900831
_cell_volume                      2804.54639447

loop_
_atom_site_label
_atom_site_type_symbol
_atom_type_description
_atom_site_fract_x
_atom_site_fract_y
_atom_site_fract_z
_atom_type_partial_charge
O1    O     O_R   0.494290 0.391990 0.999150 -0.544524
O2    O     O_R   0.827170 0.534410 0.082350 -0.558776
O3    O     O_R   0.994360 0.608010 0.000850 -0.533744
C1    C     C_R   0.658473 0.549532 0.106326 0.715710
O4    O     O_R   0.824210 0.388010 0.004470 -0.543234
O5    O     O_R   0.991370 0.460560 0.922410 -0.525278
C2    C     C_R   0.655728 0.354312 0.999231 0.771977
O6    O     O_R   0.497270 0.539440 0.077590 -0.529767
O7    O     O_3   0.659770 0.523970 0.973170 -0.368453
V1    V     V_3+5 0.935840 0.495550 0.004980 1.413954
O8    O     O_R   0.320910 0.465590 0.917650 -0.548957
C3    C     C_R   0.151444 0.450923 0.893791 0.700347
O9    O     O_R   0.323870 0.611990 0.995530 -0.553002
C4    C     C_R   0.153146 0.644776 0.997617 0.770692
V2    V     V_3+5 0.435470 0.504450 0.995020 1.413213
O10   O     O_3   0.161670 0.476030 0.026830 -0.372989
C5    C     C_2   0.136516 0.730189 0.998640 -0.358443
H1    H     H_    0.269841 0.764449 0.006307 0.121348
C6    C     C_2   0.965487 0.767433 0.992958 -0.040871
C7    C     C_R   0.126043 0.259862 0.624606 0.563953
N1    N     N_R   0.096157 0.339254 0.647407 -0.579144
C8    C     C_R   0.053018 0.388961 0.612746 0.579774
C9    C     C_R   0.042420 0.359305 0.552878 -0.049140
C10   C     C_R   0.061702 0.277209 0.529203 -0.013599
C11   C     C_R   0.101299 0.227082 0.565593 -0.069884
C12   C     C_R   0.007839 0.409811 0.516718 -0.072541
C13   C     C_R   0.994182 0.380442 0.457212 -0.031954
C14   C     C_R   0.017840 0.297387 0.432710 -0.111153
C15   C     C_R   0.041578 0.245311 0.469376 0.000318
C16   C     C_R   0.045967 0.161615 0.446516 -0.091920
C17   C     C_R   0.073989 0.111132 0.484874 -0.033331
C18   C     C_R   0.109398 0.145118 0.543015 -0.116576
C19   C     C_R   0.023928 0.264266 0.372979 0.566307
N2    N     N_R   0.013752 0.183788 0.351157 -0.542782
C20   C     C_R   0.025405 0.132653 0.386317 0.540699
O11   O     O_2   0.175789 0.212464 0.659200 -0.499555
O12   O     O_2   0.019968 0.466657 0.636070 -0.499891
H2    H     H_    0.987462 0.472772 0.535021 0.193063
O13   O     O_2   0.047068 0.311486 0.336693 -0.498069
O14   O     O_2   0.020973 0.054122 0.362395 -0.553501
H3    H     H_    0.133543 0.106589 0.571631 0.212722
C21   C     C_R   0.139425 0.100080 0.261143 -0.020807
H4    H     H_    0.260151 0.085633 0.285764 0.133129
C22   C     C_R   0.127892 0.065381 0.202382 0.143530
C23   C     C_R   0.975147 0.086912 0.169282 -0.151326
C24   C     C_R   0.831585 0.141846 0.197342 -0.122457
C25   C     C_R   0.839189 0.172115 0.257908 -0.041322
C26   C     C_R   0.996483 0.151796 0.289607 0.241835
C27   C     C_R   0.261879 0.419974 0.733761 0.007601
C28   C     C_R   0.273692 0.448882 0.794131 -0.105349
C29   C     C_R   0.138717 0.422347 0.829865 -0.167628
C30   C     C_R   0.990855 0.367838 0.804341 0.151659
C31   C     C_R   0.963991 0.348235 0.744131 0.046150
C32   C     C_R   0.107099 0.369777 0.708975 0.172711
C33   C     C_R   0.498371 0.867641 0.613442 0.604387
N3    N     N_R   0.494970 0.816977 0.648952 -0.545971
C34   C     C_R   0.501739 0.736223 0.626919 0.577385
C35   C     C_R   0.501394 0.703131 0.566702 -0.101373
C36   C     C_R   0.519774 0.755807 0.530348 -0.008849
C37   C     C_R   0.517718 0.838260 0.554030 -0.067436
C38   C     C_R   0.489292 0.619948 0.541357 -0.042196
C39   C     C_R   0.510775 0.591906 0.481989 -0.065644
C40   C     C_R   0.537297 0.643831 0.446383 -0.046424
C41   C     C_R   0.540176 0.726311 0.470278 -0.044917
C42   C     C_R   0.562222 0.779137 0.434131 -0.042175
C43   C     C_R   0.552314 0.862521 0.458807 0.137539
C44   C     C_R   0.532329 0.890342 0.518126 -0.060063
C45   C     C_R   0.556457 0.614600 0.386874 0.603799
N4    N     N_R   0.588808 0.665401 0.352540 -0.554540
C46   C     C_R   0.592856 0.745981 0.374812 0.570191
O15   O     O_2   0.482724 0.946640 0.635547 -0.506460
O16   O     O_2   0.517362 0.688689 0.663295 -0.499781
H5    H     H_    0.501744 0.528582 0.463227 0.190492
O17   O     O_2   0.542938 0.535863 0.363455 -0.502910
O18   O     O_2   0.629303 0.793223 0.339352 -0.529356
H6    H     H_    0.527637 0.953820 0.536467 0.183617
C47   C     C_R   0.475349 0.655371 0.254602 -0.124321
H7    H     H_    0.355144 0.692915 0.273181 0.137957
C48   C     C_R   0.493544 0.631572 0.195102 0.116104
C49   C     C_R   0.646846 0.579650 0.170307 -0.160515
C50   C     C_R   0.783884 0.555845 0.207659 -0.096932
C51   C     C_R   0.771262 0.586337 0.267967 0.129924
C52   C     C_R   0.611811 0.634393 0.291352 0.323574
C53   C     C_R   0.338044 0.827009 0.742572 -0.042595
H8    H     H_    0.232136 0.783972 0.720777 0.174023
C54   C     C_R   0.328076 0.857391 0.802240 -0.037565
C55   C     C_R   0.464948 0.915586 0.830559 -0.197868
C56   C     C_R   0.612901 0.939762 0.797436 -0.043743
C57   C     C_R   0.624222 0.904641 0.738418 -0.029197
H9    H     H_    0.738480 0.921941 0.713356 0.174304
C58   C     C_R   0.486251 0.849398 0.710421 0.283885
C59   C     C_2   0.650527 0.267560 0.993879 -0.046825
C60   C     C_2   0.479034 0.230188 0.998423 -0.334776
H10   H     H_    0.345448 0.264299 0.004813 0.129413
O19   O     O_R   0.618210 0.960470 0.922400 -0.540948
O20   O     O_R   0.291310 0.111960 0.995450 -0.542410
O21   O     O_R   0.124210 0.039530 0.077580 -0.525009
C61   C     C_R   0.462105 0.144797 0.997594 0.784009
O22   O     O_R   0.288310 0.965490 0.917650 -0.536334
O23   O     O_R   0.121180 0.892010 0.999220 -0.553080
C62   C     C_R   0.456543 0.949012 0.893975 0.668557
O24   O     O_R   0.621230 0.107990 0.000760 -0.542581
O25   O     O_3   0.455770 0.976060 0.026840 -0.373690
V3    V     V_3+5 0.179680 0.004440 0.995020 1.430819
O26   O     O_R   0.791670 0.888040 0.004570 -0.541875
C63   C     C_R   0.960040 0.854306 0.999046 0.757936
O27   O     O_R   0.794680 0.034510 0.082370 -0.552934
C64   C     C_R   0.964022 0.051664 0.105979 0.696743
V4    V     V_3+5 0.680070 0.995560 0.005010 1.407638
O28   O     O_3   0.953840 0.023940 0.973160 -0.372948
C65   C     C_2   0.686005 0.225231 0.289388 0.566566
H11   H     H_    0.637055 0.217723 0.330405 -0.007495
O29   O     O_2   0.621865 0.280429 0.271765 -0.459822
C66   C     C_2   0.406486 0.442561 0.694943 0.578572
H12   H     H_    0.448272 0.399908 0.656013 0.041899
O30   O     O_2   0.473107 0.509601 0.704384 -0.478485
C67   C     C_2   0.427963 0.506169 0.820315 0.545328
H13   H     H_    0.390754 0.559354 0.852641 0.010228
O31   O     O_2   0.597958 0.492756 0.807841 -0.502897
C68   C     C_3   0.874531 0.324497 0.840565 -0.603011
H14   H     H_    0.961180 0.315114 0.877284 0.157215
H15   H     H_    0.741015 0.358329 0.856341 0.230534
H16   H     H_    0.835442 0.263668 0.816122 0.218846
C69   C     C_2   0.784231 0.307425 0.716777 0.443494
H17   H     H_    0.778618 0.280150 0.671371 0.057360
O32   O     O_2   0.635688 0.307141 0.743889 -0.524794
C70   C     C_2   0.438601 0.560602 0.574044 0.482116
H18   H     H_    0.344629 0.576350 0.610863 0.137943
O33   O     O_2   0.496591 0.492235 0.558944 -0.534930
C71   C     C_3   0.553852 0.923876 0.423846 -0.617422
H19   H     H_    0.692929 0.921908 0.400987 0.225903
H20   H     H_    0.431317 0.912964 0.392830 0.240527
H21   H     H_    0.537500 0.985289 0.450727 0.186042
C72   C     C_3   0.775585 0.722594 0.977367 -0.641324
H22   H     H_    0.659021 0.759927 0.965710 0.179727
H23   H     H_    0.795232 0.672508 0.939200 0.220325
H24   H     H_    0.722175 0.700882 0.014128 0.205089
C73   C     C_3   0.349570 0.665193 0.159680 -0.726630
H25   H     H_    0.247305 0.618412 0.137473 0.206675
H26   H     H_    0.261369 0.713654 0.186428 0.195601
H27   H     H_    0.426922 0.690647 0.128060 0.194776
C74   C     C_2   0.939136 0.497820 0.184589 0.425377
H28   H     H_    0.042188 0.509382 0.153983 0.058222
O34   O     O_2   0.953883 0.436422 0.200390 -0.486757
C75   C     C_3   0.933444 0.570688 0.306509 -0.567849
H29   H     H_    0.926281 0.609615 0.350297 0.201326
H30   H     H_    0.928348 0.507990 0.309514 0.268120
H31   H     H_    0.075815 0.582524 0.289056 0.177624
C76   C     C_2   0.179439 0.823867 0.834082 0.430280
H32   H     H_    0.197031 0.827451 0.879290 0.034964
O35   O     O_2   0.035881 0.790300 0.809773 -0.516161
C77   C     C_2   0.751681 0.004495 0.822626 0.442424
H33   H     H_    0.719534 0.047152 0.862380 0.033791
O36   O     O_2   0.903348 0.011814 0.798623 -0.519282
C78   C     C_3   0.841577 0.223032 0.980620 -0.657908
H34   H     H_    0.960076 0.260446 0.970676 0.180838
H35   H     H_    0.890931 0.201146 0.017935 0.214011
H36   H     H_    0.825388 0.173200 0.942068 0.205287
C79   C     C_2   0.936612 0.437663 0.423203 0.453116
H37   H     H_    0.849334 0.418690 0.384779 0.131062
O37   O     O_2   0.981588 0.507656 0.438803 -0.537847
C80   C     C_2   0.060187 0.023019 0.467885 0.394057
H38   H     H_    0.963700 0.993074 0.434279 0.112573
O38   O     O_2   0.151142 0.982272 0.493706 -0.536432
C81   C     C_3   0.276701 0.003069 0.176899 -0.679622
H39   H     H_    0.203090 0.948043 0.152956 0.181074
H40   H     H_    0.374412 0.025211 0.147975 0.243642
H41   H     H_    0.368980 0.987028 0.210309 0.190448
C82   C     C_2   0.677716 0.168570 0.162679 0.507034
H42   H     H_    0.714526 0.182156 0.122445 0.027569
O39   O     O_2   0.508505 0.172976 0.177503 -0.517717

loop_
_geom_bond_atom_site_label_1
_geom_bond_atom_site_label_2
_ccdc_geom_bond_type
C55   C56   A    
C81   H39   S    
C78   H35   S    
C28   C67   S    
O27   V4    S    
C82   H42   S    
O2    C1    A    
C65   H11   S    
C33   N3    A    
C75   H31   S    
C72   H24   S    
C66   H12   S    
C31   C32   A    
C68   H14   S    
C6    C72   S    
C12   C13   A    
C19   O13   S    
C16   C20   A    
C14   C15   A    
C53   C54   A    
C1    C49   S    
C67   O31   D    
O5    C3    A    
C16   C17   A    
C7    C11   A    
C47   C52   A    
C45   O17   S    
V2    O10   S    
O23   V3    S    
N3    C34   A    
N2    C20   A    
C9    C12   A    
C10   C15   A    
O25   V3    S    
C55   C62   S    
O21   C64   A    
O8    V2    S    
N3    C58   S    
C79   H37   S    
C37   C44   A    
C45   N4    A    
O20   C61   A    
O19   C62   A    
C18   H3    S    
C79   O37   D    
C39   H5    S    
O1    V2    S    
C53   C58   A    
C57   C58   A    
O7    V1    S    
C23   C64   S    
C1    O6    A    
C33   C37   A    
C56   C57   A    
C35   C38   A    
C27   C66   S    
C17   C80   S    
C36   C37   A    
C81   H40   S    
C76   O35   D    
O9    C4    A    
C78   H36   S    
C56   C77   S    
C4    C5    S    
N4    C46   A    
C21   C22   A    
C8    C9    A    
C75   H30   S    
C68   H15   S    
C75   H29   S    
C80   O38   D    
C47   C48   A    
C67   H13   S    
C20   O14   S    
C29   C30   A    
C43   C44   A    
C10   C11   A    
C65   O29   D    
O19   V4    S    
C54   C76   S    
O4    C2    A    
C54   C55   A    
C12   H2    S    
C72   H23   S    
C28   C29   A    
C35   C36   A    
C47   H7    S    
C8    O12   S    
C73   H27   S    
C50   C51   A    
C48   C49   A    
C42   C46   A    
C71   H20   S    
C70   O33   D    
C15   C16   A    
N4    C52   S    
C25   C26   A    
O27   C64   A    
C39   C40   A    
C5    H1    S    
C36   C41   A    
C38   C70   S    
C60   H10   S    
C21   C26   A    
C53   H8    S    
O3    C4    A    
C73   H26   S    
C30   C68   S    
C50   C74   S    
O22   C62   A    
C77   O36   D    
C14   C19   A    
C51   C52   A    
C81   H41   S    
O9    V2    S    
C74   O34   D    
C23   C24   A    
C71   H21   S    
N2    C26   S    
C21   H4    S    
C70   H18   S    
O2    V1    S    
C13   C14   A    
C3    C29   S    
C30   C31   A    
C69   O32   D    
C80   H38   S    
C82   O39   D    
O26   V4    S    
C24   C25   A    
O1    C2    A    
C17   C18   A    
C22   C23   A    
C49   C50   A    
C31   C69   S    
O5    V1    S    
C66   O30   D    
O8    C3    A    
C68   H16   S    
C72   H22   S    
C44   H6    S    
O6    V2    S    
O26   C63   A    
C40   C45   A    
O23   C63   A    
C24   C82   S    
O25   V4    S    
C41   C42   A    
O20   V3    S    
C71   H19   S    
O7    V2    S    
O4    V1    S    
O3    V1    S    
C61   O24   A    
C76   H32   S    
V3    O28   S    
C34   C35   A    
N1    C32   S    
C11   C18   A    
C25   C65   S    
C2    C59   S    
C59   C60   D    
C5    C6    D    
C19   N2    A    
O22   V3    S    
C59   C78   S    
C22   C81   S    
C42   C43   A    
C34   O16   S    
C38   C39   A    
O21   V3    S    
C73   H25   S    
C9    C10   A    
C40   C41   A    
C7    O11   S    
C6    C63   S    
C51   C75   S    
C48   C73   S    
C7    N1    A    
C46   O18   S    
C27   C28   A    
V4    O28   S    
C78   H34   S    
C74   H28   S    
O24   V4    S    
V1    O10   S    
C77   H33   S    
C57   H9    S    
N1    C8    A    
C13   C79   S    
C60   C61   S    
C33   O15   S    
C27   C32   A    
C69   H17   S    
C43   C71   S    
