data_mof_unit_47309.cif
_audit_creation_date              2012-12-10T17:43:31-0500
_audit_creation_method            fapswitch 2.2
_symmetry_space_group_name_H-M    P1
_symmetry_Int_Tables_number       1
_space_group_crystal_system       triclinic
_cell_length_a                    14.975315
_cell_length_b                    10.593534
_cell_length_c                    9.926192
_cell_angle_alpha                 89.725254
_cell_angle_beta                  89.650799
_cell_angle_gamma                 92.317477
_cell_volume                      1573.36888028

loop_
_atom_site_label
_atom_site_type_symbol
_atom_type_description
_atom_site_fract_x
_atom_site_fract_y
_atom_site_fract_z
_atom_type_partial_charge
Br1   Br    Br    0.636156 0.696857 0.155490 -0.522760
C1    C     C_R   0.500681 0.260721 0.500278 0.836813
C2    C     C_R   0.183766 0.463531 0.618558 -0.272321
C3    C     C_R   0.230794 0.495436 0.500319 -0.069746
C4    C     C_R   0.326771 0.498858 0.500312 0.861615
C5    C     C_R   0.186239 0.522596 0.380960 -0.284150
C6    C     C_R   0.659606 0.141002 0.590786 -0.228553
C7    C     C_R   0.735917 0.080661 0.631418 -0.280335
C8    C     C_R   0.737764 0.947501 0.631847 0.565782
C9    C     C_R   0.661874 0.878389 0.587515 -0.212430
C10   C     C_R   0.584120 0.939054 0.545928 0.012990
C11   C     C_R   0.583139 0.070876 0.547332 0.105607
C12   C     C_R   0.908364 0.517269 0.378105 0.107577
C13   C     C_R   0.506014 0.128704 0.500518 -0.060140
C14   C     C_R   0.432701 0.060469 0.449509 -0.207791
C15   C     C_R   0.433374 0.931532 0.448701 -0.171981
C16   C     C_R   0.502230 0.739374 0.499613 0.883281
C17   C     C_R   0.507446 0.872007 0.498544 -0.054177
C18   C     C_R   0.381562 0.334252 0.141686 -0.259195
C19   C     C_R   0.322153 0.252412 0.072378 0.498450
C20   C     C_R   0.324117 0.251845 0.932606 -0.266176
C21   C     C_R   0.382117 0.334163 0.861902 -0.235304
C22   C     C_R   0.441616 0.418536 0.928719 0.164845
C23   C     C_R   0.950472 0.428365 0.736023 -0.221324
C24   C     C_R   0.441510 0.418554 0.073140 0.060715
C25   C     C_R   0.555493 0.578964 0.069385 0.308702
C26   C     C_R   0.555383 0.578329 0.926707 -0.147009
C27   C     C_R   0.673218 0.499218 0.499645 0.878406
C28   C     C_R   0.816169 0.519513 0.379349 -0.216696
C29   C     C_R   0.768986 0.493983 0.498901 -0.070231
C30   C     C_R   0.813154 0.462324 0.617383 -0.257277
C31   C     C_R   0.905413 0.458853 0.617797 0.128660
C32   C     C_R   0.953311 0.487882 0.498054 0.064466
C33   C     C_3   0.870909 0.939019 0.757165 0.093873
C34   C     C_R   0.043304 0.428836 0.736377 -0.224600
C35   C     C_3   0.952160 0.001982 0.685240 -0.352873
C36   C     C_3   0.012620 0.074458 0.783831 -0.951017
C37   C     C_3   0.207020 0.221433 0.224621 0.054187
C38   C     C_3   0.134739 0.123368 0.268042 -0.306434
C39   C     C_3   0.066245 0.179902 0.362165 -0.950596
C40   C     C_R   0.091283 0.460071 0.618571 0.117309
C41   C     C_R   0.046186 0.488937 0.498554 0.064562
C42   C     C_R   0.093985 0.519500 0.379108 0.119176
C43   C     C_R   0.048941 0.546626 0.259961 -0.239568
C44   C     C_R   0.956205 0.545430 0.259436 -0.212159
H1    H     H_    0.781425 0.542960 0.287682 0.195017
H2    H     H_    0.600460 0.642275 0.871368 0.176652
H3    H     H_    0.914012 0.405179 0.828101 0.145558
H4    H     H_    0.077530 0.405765 0.828652 0.147561
H5    H     H_    0.218942 0.441077 0.710248 0.162535
H6    H     H_    0.223251 0.546814 0.289518 0.164522
H7    H     H_    0.085389 0.569245 0.167722 0.149254
H8    H     H_    0.921970 0.567488 0.166876 0.157861
H9    H     H_    0.374566 0.107272 0.412292 0.149385
H10   H     H_    0.895506 0.864057 0.824485 0.172698
H11   H     H_    0.836981 0.005631 0.825250 0.128481
H12   H     H_    0.661957 0.243008 0.591068 0.164195
H13   H     H_    0.991046 0.928279 0.634844 0.235869
H14   H     H_    0.930263 0.068264 0.606339 0.222604
H15   H     H_    0.975388 0.150051 0.833719 0.264825
H16   H     H_    0.070549 0.118875 0.728554 0.268819
H17   H     H_    0.037873 0.009451 0.861679 0.266591
H18   H     H_    0.174307 0.300611 0.172205 0.141007
H19   H     H_    0.241491 0.257513 0.316452 0.136736
H20   H     H_    0.099926 0.085393 0.177354 0.227161
H21   H     H_    0.166374 0.043899 0.320598 0.225990
H22   H     H_    0.099254 0.216607 0.454753 0.269499
H23   H     H_    0.793159 0.139633 0.659961 0.148232
H24   H     H_    0.015224 0.105798 0.391461 0.263699
H25   H     H_    0.032082 0.257507 0.310619 0.274617
H26   H     H_    0.665080 0.776574 0.584020 0.157839
H27   H     H_    0.375584 0.877777 0.411310 0.148633
H28   H     H_    0.380209 0.327750 0.248422 0.202914
H29   H     H_    0.280096 0.186894 0.877953 0.170053
H30   H     H_    0.378864 0.328383 0.754982 0.219201
H31   H     H_    0.775889 0.440403 0.709170 0.164360
N1    N     N_R   0.499150 0.498800 0.142780 -0.129280
N2    N     N_R   0.499120 0.498720 0.857170 -0.130426
O1    O     O_R   0.500000 0.316780 0.614690 -0.636537
O2    O     O_3   0.268188 0.162520 0.138748 -0.641297
O3    O     O_R   0.499990 0.316750 0.385360 -0.624575
O4    O     O_R   0.367850 0.499980 0.614680 -0.634610
O5    O     O_R   0.367840 0.499960 0.385350 -0.650836
O6    O     O_R   0.500010 0.683250 0.614640 -0.619614
O7    O     O_R   0.500000 0.683220 0.385310 -0.564585
O8    O     O_R   0.632160 0.500040 0.614650 -0.634863
O9    O     O_R   0.632150 0.500020 0.385320 -0.582404
O10   O     O_3   0.813028 0.879513 0.662303 -0.648044
Zn1   Zn    Zn3+2 0.500010 0.500020 0.653130 0.941580
Zn2   Zn    Zn3+2 0.499990 0.499980 0.346870 0.980951

loop_
_geom_bond_atom_site_label_1
_geom_bond_atom_site_label_2
_ccdc_geom_bond_type
C10   C17   A    
C33   H11   S    
C40   C41   A    
C18   C19   A    
C15   H27   S    
C35   H14   S    
C36   H17   S    
C6    C7    A    
C25   C26   A    
O4    Zn1   S    
C39   H25   S    
C16   O7    A    
C32   C41   A    
C12   C28   A    
C35   C36   S    
C35   H13   S    
C8    O10   S    
C29   C30   A    
C4    O5    A    
C14   C15   A    
C1    O1    A    
C7    C8    A    
C39   H22   S    
C34   H4    S    
C5    H6    S    
C8    C9    A    
C9    H26   S    
C43   H7    S    
C44   H8    S    
C33   H10   S    
C20   C21   A    
C38   H20   S    
C21   H30   S    
C1    C13   S    
C2    H5    S    
C37   H19   S    
N2    Zn1   S    
C6    C11   A    
N1    Zn2   S    
C25   N1    A    
C39   H24   S    
C19   O2    S    
C23   C34   A    
C14   H9    S    
C18   H28   S    
C3    C5    A    
C38   C39   S    
C26   N2    A    
C20   H29   S    
C23   H3    S    
C42   C43   A    
C23   C31   A    
C12   C32   A    
C28   C29   A    
C30   C31   A    
O7    Zn2   S    
C27   O9    A    
C16   C17   S    
C33   O10   S    
O3    Zn2   S    
C11   C13   A    
C7    H23   S    
C5    C42   A    
C27   O8    A    
Br1   C25   S    
C38   H21   S    
C24   N1    A    
C41   C42   A    
C2    C3    A    
C43   C44   A    
C37   H18   S    
C26   H2    S    
O5    Zn2   S    
C2    C40   A    
C13   C14   A    
C3    C4    S    
O8    Zn1   S    
C36   H16   S    
C10   C11   A    
C28   H1    S    
C16   O6    A    
C31   C32   A    
C27   C29   S    
C12   C44   A    
C4    O4    A    
C30   H31   S    
C37   C38   S    
C37   O2    S    
C33   C35   S    
C22   C24   A    
C22   N2    A    
C34   C40   A    
O1    Zn1   S    
C36   H15   S    
C9    C10   A    
C18   C24   A    
C19   C20   A    
C15   C17   A    
O6    Zn1   S    
O9    Zn2   S    
C21   C22   A    
C1    O3    A    
C6    H12   S    
