data_mof_unit_60924.cif
_audit_creation_date              2012-12-10T20:44:41-0500
_audit_creation_method            fapswitch 2.2
_symmetry_space_group_name_H-M    P1
_symmetry_Int_Tables_number       1
_space_group_crystal_system       triclinic
_cell_length_a                    28.278593
_cell_length_b                    25.981365
_cell_length_c                    13.079341
_cell_angle_alpha                 89.977399
_cell_angle_beta                  82.79216
_cell_angle_gamma                 89.966003
_cell_volume                      9533.66525347

loop_
_atom_site_label
_atom_site_type_symbol
_atom_type_description
_atom_site_fract_x
_atom_site_fract_y
_atom_site_fract_z
_atom_type_partial_charge
C1    C     C_R   0.589916 0.099118 0.511105 0.503333
C2    C     C_R   0.298133 0.176397 0.565470 0.276089
C3    C     C_R   0.798047 0.323708 0.564818 0.276964
C4    C     C_R   0.798133 0.676397 0.565470 0.276089
C5    C     C_R   0.307953 0.778644 0.505829 0.234913
C6    C     C_R   0.308053 0.221559 0.506789 0.235201
C7    C     C_R   0.807953 0.278644 0.505829 0.234913
C8    C     C_R   0.808053 0.721559 0.506789 0.235201
C9    C     C_R   0.351569 0.773834 0.443032 -0.134868
C10   C     C_R   0.351672 0.226436 0.444046 -0.138057
C11   C     C_R   0.851569 0.273834 0.443033 -0.134868
C12   C     C_R   0.589897 0.900881 0.511158 0.503967
C13   C     C_R   0.851672 0.726436 0.444046 -0.138057
C14   C     C_R   0.384545 0.814042 0.435823 -0.136373
C15   C     C_R   0.384631 0.186174 0.436537 -0.147101
C16   C     C_R   0.884545 0.314042 0.435823 -0.136373
C17   C     C_R   0.884631 0.686174 0.436537 -0.147101
C18   C     C_R   0.673271 0.205945 0.412998 0.206481
C19   C     C_R   0.673578 0.794333 0.413094 0.206488
C20   C     C_R   0.173271 0.705945 0.412998 0.206480
C21   C     C_R   0.173578 0.294333 0.413094 0.206489
C22   C     C_R   0.637558 0.168939 0.421500 -0.115367
C23   C     C_R   0.089916 0.599118 0.511105 0.503333
C24   C     C_R   0.637811 0.831307 0.421476 -0.114543
C25   C     C_R   0.137557 0.668940 0.421500 -0.115367
C26   C     C_R   0.137812 0.331307 0.421476 -0.114543
C27   C     C_R   0.700615 0.212910 0.494965 0.220411
C28   C     C_R   0.700667 0.787157 0.495434 0.220637
C29   C     C_R   0.200615 0.712910 0.494965 0.220412
C30   C     C_R   0.200667 0.287157 0.495434 0.220637
C31   C     C_R   0.627054 0.139183 0.510986 -0.057353
C32   C     C_R   0.627021 0.860809 0.511178 -0.057495
C33   C     C_R   0.127054 0.639183 0.510986 -0.057353
C34   C     C_R   0.089897 0.400881 0.511158 0.503967
C35   C     C_R   0.127021 0.360809 0.511178 -0.057495
C36   C     C_R   0.652625 0.147864 0.595995 0.199761
C37   C     C_R   0.652307 0.851888 0.596555 0.199567
C38   C     C_R   0.152625 0.647864 0.595995 0.199761
C39   C     C_R   0.152307 0.351888 0.596555 0.199567
C40   C     C_R   0.409866 0.901094 0.490051 0.535027
C41   C     C_R   0.409876 0.098928 0.490102 0.525370
C42   C     C_R   0.909866 0.401094 0.490051 0.535027
C43   C     C_R   0.909876 0.598928 0.490102 0.525370
C44   C     C_R   0.690366 0.184012 0.586676 0.310352
C45   C     C_R   0.331092 0.863729 0.557407 -0.103255
C46   C     C_R   0.690101 0.815774 0.587384 0.310748
C47   C     C_R   0.190366 0.684012 0.586676 0.310352
C48   C     C_R   0.190101 0.315774 0.587384 0.310748
C49   C     C_R   0.477512 0.998570 0.777330 0.528537
C50   C     C_R   0.977512 0.498570 0.777330 0.528537
C51   C     C_R   0.521948 0.000061 0.222917 0.538057
C52   C     C_R   0.021948 0.500061 0.222917 0.538057
C53   C     C_2   0.527880 0.000432 0.109795 0.247804
C54   C     C_2   0.027880 0.500432 0.109795 0.247804
C55   C     C_2   0.495814 0.976548 0.058000 0.206736
C56   C     C_R   0.331149 0.136322 0.557740 -0.104797
C57   C     C_2   0.995814 0.476548 0.058000 0.206736
C58   C     C_2   0.469290 0.993905 0.890252 -0.012777
C59   C     C_2   0.969290 0.493905 0.890252 -0.012777
C60   C     C_2   0.503322 0.975501 0.944151 0.287206
C61   C     C_2   0.003322 0.475501 0.944151 0.287206
C62   C     C_R   0.374489 0.859390 0.492822 -0.008879
C63   C     C_R   0.374537 0.140709 0.493150 -0.012128
C64   C     C_R   0.874489 0.359390 0.492822 -0.008879
C65   C     C_R   0.874537 0.640709 0.493150 -0.012128
C66   C     C_R   0.831091 0.363729 0.557407 -0.103255
C67   C     C_R   0.831149 0.636322 0.557740 -0.104797
C68   C     C_R   0.298047 0.823708 0.564818 0.276963
Cl1   Cl    Cl    0.245715 0.830361 0.652298 -0.453703
Cl2   Cl    Cl    0.245783 0.169658 0.652857 -0.457108
Cl3   Cl    Cl    0.745714 0.330361 0.652297 -0.453703
Cl4   Cl    Cl    0.745783 0.669658 0.652857 -0.457108
Cl5   Cl    Cl    0.443829 0.947219 0.121869 -0.579261
Cl6   Cl    Cl    0.943829 0.447219 0.121869 -0.579261
H1    H     H_    0.322995 0.897957 0.603582 0.181646
H2    H     H_    0.118537 0.337256 0.355857 0.195485
H3    H     H_    0.359687 0.739095 0.398520 0.153352
H4    H     H_    0.359788 0.261252 0.399761 0.151328
H5    H     H_    0.859688 0.239095 0.398521 0.153352
H6    H     H_    0.859788 0.761252 0.399761 0.151328
H7    H     H_    0.417991 0.809463 0.386423 0.172845
H8    H     H_    0.418085 0.190795 0.387194 0.165444
H9    H     H_    0.917991 0.309463 0.386423 0.172845
H10   H     H_    0.918085 0.690795 0.387195 0.165444
H11   H     H_    0.564489 0.941403 0.944619 0.355132
H12   H     H_    0.323030 0.102004 0.603652 0.181036
H13   H     H_    0.064489 0.441403 0.944619 0.355132
H14   H     H_    0.706576 0.170640 0.725578 0.385655
H15   H     H_    0.705857 0.828732 0.726764 0.384468
H16   H     H_    0.206576 0.670639 0.725578 0.385655
H17   H     H_    0.205857 0.328732 0.726764 0.384468
H18   H     H_    0.584763 0.042424 0.105925 0.337865
H19   H     H_    0.084763 0.542424 0.105925 0.337865
H20   H     H_    0.707790 0.257622 0.323800 0.361996
H21   H     H_    0.708413 0.742892 0.323813 0.360372
H22   H     H_    0.207789 0.757623 0.323800 0.361996
H23   H     H_    0.822995 0.397957 0.603582 0.181646
H24   H     H_    0.208413 0.242892 0.323813 0.360372
H25   H     H_    0.605824 0.118980 0.701038 0.354353
H26   H     H_    0.605186 0.880666 0.701177 0.361035
H27   H     H_    0.105824 0.618979 0.701038 0.354353
H28   H     H_    0.105186 0.380666 0.701177 0.361035
H29   H     H_    0.823030 0.602004 0.603652 0.181036
H30   H     H_    0.435123 0.006263 0.930035 0.113504
H31   H     H_    0.935124 0.506264 0.930035 0.113504
H32   H     H_    0.618083 0.163187 0.356141 0.194389
H33   H     H_    0.618537 0.837256 0.355857 0.195485
H34   H     H_    0.118083 0.663187 0.356141 0.194389
N1    N     N_2   0.274876 0.737699 0.509389 -0.151989
N2    N     N_2   0.274908 0.262464 0.510371 -0.152921
N3    N     N_2   0.774876 0.237699 0.509389 -0.151989
N4    N     N_2   0.774908 0.762464 0.510371 -0.152921
N5    N     N_2   0.735355 0.252407 0.487837 -0.170997
N6    N     N_2   0.735496 0.747732 0.488351 -0.172324
N7    N     N_2   0.235355 0.752407 0.487837 -0.170997
N8    N     N_2   0.235496 0.247732 0.488351 -0.172324
O1    O     O_3   0.499990 0.000000 0.500000 -0.464282
O2    O     O_R   0.950070 0.602520 0.433660 -0.532863
O3    O     O_R   0.588860 0.940050 0.570910 -0.501951
O4    O     O_R   0.588860 0.059950 0.570910 -0.507769
O5    O     O_R   0.088860 0.440050 0.570910 -0.501951
O6    O     O_R   0.088860 0.559950 0.570910 -0.507769
O7    O     O_R   0.401370 0.059920 0.548800 -0.537372
O8    O     O_R   0.401370 0.940080 0.548800 -0.538357
O9    O     O_R   0.901370 0.559920 0.548800 -0.537372
O10   O     O_R   0.901370 0.440080 0.548800 -0.538357
O11   O     O_R   0.520330 0.000000 0.732910 -0.466746
O12   O     O_3   0.999990 0.500000 0.500000 -0.464282
O13   O     O_R   0.020330 0.500000 0.732910 -0.466746
O14   O     O_R   0.518600 0.042600 0.271700 -0.537215
O15   O     O_R   0.518600 0.957400 0.271700 -0.504543
O16   O     O_R   0.018600 0.542600 0.271700 -0.537215
O17   O     O_R   0.018600 0.457400 0.271700 -0.504543
O18   O     O_R   0.442440 1.000000 0.723710 -0.544913
O19   O     O_R   0.942440 0.500000 0.723710 -0.544913
O20   O     O_3   0.545731 0.956777 0.893144 -0.623087
O21   O     O_3   0.045731 0.456777 0.893144 -0.623087
O22   O     O_3   0.716166 0.194358 0.667478 -0.594114
O23   O     O_R   0.559670 0.102510 0.446620 -0.551295
O24   O     O_3   0.715665 0.805196 0.668491 -0.594764
O25   O     O_3   0.216167 0.694357 0.667478 -0.594114
O26   O     O_3   0.215665 0.305196 0.668491 -0.594764
O27   O     O_3   0.564797 0.027942 0.055780 -0.682501
O28   O     O_3   0.064797 0.527942 0.055780 -0.682501
O29   O     O_3   0.680687 0.233706 0.322209 -0.648582
O30   O     O_3   0.681310 0.766829 0.322060 -0.649794
O31   O     O_3   0.180687 0.733706 0.322209 -0.648582
O32   O     O_3   0.181311 0.266829 0.322060 -0.649794
O33   O     O_3   0.640875 0.123219 0.689229 -0.656575
O34   O     O_R   0.559670 0.897490 0.446620 -0.551155
O35   O     O_3   0.640232 0.876262 0.689963 -0.657371
O36   O     O_3   0.140875 0.623219 0.689229 -0.656575
O37   O     O_3   0.140232 0.376262 0.689963 -0.657371
O38   O     O_R   0.059670 0.602510 0.446620 -0.551295
O39   O     O_R   0.059670 0.397490 0.446620 -0.551155
O40   O     O_R   0.450070 0.897480 0.433660 -0.517479
O41   O     O_R   0.450070 0.102520 0.433660 -0.532863
O42   O     O_R   0.950070 0.397480 0.433660 -0.517478
Zn1   Zn    Zn3+2 0.506960 0.939150 0.414470 0.994926
Zn2   Zn    Zn3+2 0.506960 0.060850 0.414470 0.969130
Zn3   Zn    Zn3+2 0.006960 0.439150 0.414470 0.994926
Zn4   Zn    Zn3+2 0.006960 0.560850 0.414470 0.969130
Zn5   Zn    Zn3+2 0.548670 0.000000 0.592090 1.018753
Zn6   Zn    Zn3+2 0.048670 0.500000 0.592090 1.018753
Zn7   Zn    Zn3+2 0.437380 0.000000 0.578960 0.977660
Zn8   Zn    Zn3+2 0.937380 0.500000 0.578960 0.977660

loop_
_geom_bond_atom_site_label_1
_geom_bond_atom_site_label_2
_ccdc_geom_bond_type
C54   O28   S    
C49   O18   A    
C8    C13   A    
C42   C64   S    
O1    Zn1   S    
C3    Cl3   S    
C1    C31   S    
C4    C8    A    
C18   O29   S    
C43   O9    A    
N4    N6    D    
C10   H4    S    
C67   H29   S    
C30   N8    S    
C34   O39   A    
O39   Zn3   S    
C7    C11   A    
H25   O33   S    
C28   C46   A    
C59   H31   S    
H24   O32   S    
C39   O37   S    
C50   C59   S    
C66   H23   S    
C30   C48   A    
H13   O21   S    
C3    C7    A    
C10   C15   A    
C8    N4    S    
C36   O33   S    
C20   C25   A    
C58   C60   D    
C14   C62   A    
C45   C62   A    
O12   Zn6   S    
O6    Zn6   S    
O14   Zn2   S    
C34   C35   S    
O17   Zn3   S    
H18   O27   S    
O42   Zn3   S    
C27   C44   A    
C51   O14   A    
O1    Zn7   S    
C68   Cl1   S    
C65   C67   A    
C26   H2    S    
C15   H8    S    
C60   O20   S    
C55   Cl5   S    
O4    Zn5   S    
H17   O26   S    
H20   O29   S    
C29   N7    S    
C13   H6    S    
C55   C60   S    
C12   C32   S    
O1    Zn2   S    
O12   Zn8   S    
C52   O17   A    
C6    N2    S    
C42   O42   A    
H21   O30   S    
C37   O35   S    
C5    C68   A    
C49   O11   A    
C38   O36   S    
C21   C26   A    
C52   C54   S    
C23   O6    A    
C20   C29   A    
C53   C55   D    
H26   O35   S    
C40   O8    A    
C59   C61   D    
C19   O30   S    
C22   C31   A    
C52   O16   A    
C21   O32   S    
C12   O34   A    
O34   Zn1   S    
O3    Zn5   S    
C51   O15   A    
C43   O2    A    
C23   C33   S    
C22   H32   S    
O5    Zn6   S    
C16   H9    S    
O1    Zn5   S    
C49   C58   S    
C2    C6    A    
O13   Zn6   S    
O11   Zn5   S    
C53   O27   S    
C1    O4    A    
C64   C66   A    
C57   Cl6   S    
C35   C39   A    
C9    C14   A    
C24   C32   A    
C5    C9    A    
C50   O13   A    
C12   O3    A    
C11   C16   A    
C56   H12   S    
C43   C65   S    
H15   O24   S    
C45   C68   A    
O12   Zn4   S    
C56   C63   A    
C48   O26   S    
N3    N5    D    
C24   H33   S    
C9    H3    S    
C32   C37   A    
O15   Zn1   S    
C19   C28   A    
H28   O37   S    
H14   O22   S    
C38   C47   A    
H19   O28   S    
C11   H5    S    
C41   O41   A    
C27   N5    S    
C29   C47   A    
O23   Zn2   S    
C34   O5    A    
C20   O31   S    
O18   Zn7   S    
C36   C44   A    
C3    C66   A    
C58   H30   S    
C41   C63   S    
C42   O10   A    
N2    N8    D    
C4    Cl4   S    
C46   O24   S    
H22   O31   S    
O2    Zn4   S    
C44   O22   S    
C18   C22   A    
O38   Zn4   S    
O40   Zn1   S    
C18   C27   A    
O10   Zn8   S    
C1    O23   A    
C6    C10   A    
C4    C67   A    
C57   C61   S    
O41   Zn2   S    
C21   C30   A    
C47   O25   S    
H27   O36   S    
C17   C65   A    
C33   C38   A    
C13   C17   A    
C45   H1    S    
C17   H10   S    
C41   O7    A    
O9    Zn8   S    
C2    C56   A    
C61   O21   S    
C5    N1    S    
C28   N6    S    
C40   C62   S    
O12   Zn3   S    
O19   Zn8   S    
C7    N3    S    
C19   C24   A    
O16   Zn4   S    
H16   O25   S    
N1    N7    D    
H11   O20   S    
O8    Zn7   S    
O7    Zn7   S    
C26   C35   A    
C50   O19   A    
C23   O38   A    
C15   C63   A    
C31   C36   A    
C40   O40   A    
C16   C64   A    
C14   H7    S    
C51   C53   S    
C37   C46   A    
C2    Cl2   S    
C25   H34   S    
C25   C33   A    
C39   C48   A    
C54   C57   D    
