data_mof_unit_50642.cif
_audit_creation_date              2012-12-10T17:38:57-0500
_audit_creation_method            fapswitch 2.2
_symmetry_space_group_name_H-M    P1
_symmetry_Int_Tables_number       1
_space_group_crystal_system       triclinic
_cell_length_a                    12.10876
_cell_length_b                    12.727957
_cell_length_c                    23.159623
_cell_angle_alpha                 91.41683
_cell_angle_beta                  86.447817
_cell_angle_gamma                 95.501074
_cell_volume                      3545.45693397

loop_
_atom_site_label
_atom_site_type_symbol
_atom_type_description
_atom_site_fract_x
_atom_site_fract_y
_atom_site_fract_z
_atom_type_partial_charge
C1    C     C_R   0.523530 0.700155 0.498223 0.945157
C2    C     C_R   0.603383 0.500577 0.294435 -0.327397
C3    C     C_R   0.542102 0.655362 0.747161 0.511278
C4    C     C_R   0.617152 0.519534 0.235280 0.521592
C5    C     C_R   0.528429 0.575250 0.788424 0.242819
C6    C     C_R   0.528202 0.552746 0.206630 0.250260
C7    C     C_R   0.460749 0.187827 0.506482 -0.160334
C8    C     C_R   0.540002 0.812255 0.495294 -0.168613
C9    C     C_R   0.620374 0.971156 0.449152 0.352688
C10   C     C_R   0.392047 0.032362 0.559657 0.337906
C11   C     C_R   0.614822 0.861350 0.453617 0.375078
C12   C     C_R   0.476411 0.299781 0.501670 0.962193
C13   C     C_R   0.389403 0.140435 0.550176 0.409447
C14   C     C_R   0.469941 0.868206 0.531350 -0.360073
C15   C     C_R   0.532972 0.131574 0.472150 -0.342648
C16   C     C_R   0.500204 0.500282 0.610461 0.898492
C17   C     C_R   0.500626 0.504987 0.389196 0.883722
C18   C     C_R   0.468815 0.975708 0.525592 -0.025373
C19   C     C_R   0.542340 0.026887 0.482666 -0.025557
C20   C     C_R   0.945302 0.387910 0.452431 0.351632
C21   C     C_R   0.057072 0.619006 0.542672 0.353742
C22   C     C_R   0.831339 0.401106 0.457136 -0.123832
C23   C     C_R   0.495415 0.470750 0.771123 -0.232913
C24   C     C_R   0.170438 0.604049 0.538721 -0.100059
C25   C     C_R   0.862757 0.553860 0.517004 0.034992
C26   C     C_R   0.136572 0.444817 0.484338 0.055571
C27   C     C_R   0.979885 0.545084 0.514636 -0.084588
C28   C     C_R   0.020910 0.458227 0.483396 -0.074191
C29   C     C_R   0.566687 0.480347 0.111050 0.576432
C30   C     C_R   0.510981 0.672257 0.880670 0.573085
C31   C     C_R   0.520816 0.658539 0.121428 0.517013
C32   C     C_R   0.620920 0.526478 0.871362 0.499392
C33   C     C_R   0.527925 0.669352 0.061367 -0.021582
C34   C     C_R   0.429913 0.574219 0.237986 -0.234651
C35   C     C_R   0.619034 0.518141 0.931142 -0.021064
C36   C     C_R   0.565843 0.586730 0.026373 -0.029789
C37   C     C_R   0.572710 0.596296 0.965952 -0.026599
C38   C     C_R   0.592610 0.492818 0.051462 -0.074739
C39   C     C_R   0.529688 0.681919 0.940187 -0.095342
C40   C     C_R   0.499394 0.761124 0.035818 -0.213837
C41   C     C_R   0.656262 0.430187 0.956205 -0.215650
C42   C     C_R   0.499164 0.768466 0.975525 0.001796
C43   C     C_R   0.640374 0.414526 0.015686 -0.010926
C44   C     C_R   0.178348 0.344764 0.462933 0.236241
C45   C     C_R   0.491681 0.441966 0.712819 -0.036232
C46   C     C_R   0.229080 0.336128 0.407093 -0.038766
C47   C     C_R   0.259244 0.238653 0.385569 -0.164614
C48   C     C_R   0.235293 0.148310 0.418828 -0.121233
C49   C     C_R   0.181122 0.155428 0.473626 -0.109263
C50   C     C_R   0.153536 0.253321 0.495887 -0.035484
C51   C     C_R   0.816276 0.642216 0.549329 0.231952
C52   C     C_R   0.819459 0.741055 0.523167 -0.010702
C53   C     C_R   0.793544 0.829967 0.556087 -0.123313
C54   C     C_R   0.767849 0.821471 0.615513 -0.143445
C55   C     C_R   0.768896 0.724256 0.642109 -0.144030
C56   C     C_R   0.419461 0.564758 0.298130 -0.042669
C57   C     C_R   0.791465 0.634507 0.609160 -0.054194
C58   C     C_R   0.476732 0.870767 0.951319 0.156956
C59   C     C_R   0.379608 0.917907 0.969082 -0.138519
C60   C     C_R   0.360349 0.015552 0.947212 -0.127036
C61   C     C_R   0.437939 0.067081 0.907744 -0.136043
C62   C     C_R   0.535233 0.021324 0.890273 -0.123964
C63   C     C_R   0.554940 0.923804 0.912081 -0.071732
C64   C     C_R   0.677285 0.316408 0.037942 0.168122
C65   C     C_R   0.624329 0.217854 0.021921 -0.142090
C66   C     C_R   0.660004 0.124866 0.042029 -0.118815
C67   C     C_R   0.504492 0.522387 0.671847 -0.098030
C68   C     C_R   0.749078 0.129679 0.077926 -0.099644
C69   C     C_R   0.802816 0.227462 0.093613 -0.128158
C70   C     C_R   0.767483 0.320672 0.073522 -0.055218
C71   C     C_R   0.489164 0.328109 0.696912 0.138908
C72   C     C_R   0.407788 0.254977 0.722877 -0.141377
C73   C     C_R   0.415870 0.146542 0.715401 -0.100996
C74   C     C_R   0.505105 0.110242 0.682050 -0.087568
C75   C     C_R   0.585109 0.182131 0.655098 -0.150116
C76   C     C_R   0.577833 0.290547 0.662802 -0.114020
C77   C     C_R   0.323095 0.608668 0.329629 0.141212
C78   C     C_R   0.505437 0.522061 0.326433 -0.129988
C79   C     C_R   0.213855 0.570378 0.317917 -0.191484
C80   C     C_R   0.123509 0.610456 0.348701 -0.116261
C81   C     C_R   0.141415 0.690740 0.390289 -0.121321
C82   C     C_R   0.249669 0.731863 0.400775 -0.124089
C83   C     C_R   0.340194 0.691795 0.370228 -0.051117
C84   C     C_R   0.524091 0.628320 0.689247 -0.379378
H1    H     H_    0.476042 0.827239 0.062767 0.186027
H2    H     H_    0.412068 0.824845 0.561625 0.184731
H3    H     H_    0.242531 0.403773 0.379701 0.138558
H4    H     H_    0.299322 0.232869 0.342675 0.143847
H5    H     H_    0.257838 0.072695 0.401986 0.143344
H6    H     H_    0.161370 0.085209 0.499098 0.149487
H7    H     H_    0.111031 0.257706 0.538306 0.121493
H8    H     H_    0.844846 0.749367 0.477731 0.142237
H9    H     H_    0.795749 0.905864 0.535770 0.133364
H10   H     H_    0.749481 0.890610 0.641144 0.133171
H11   H     H_    0.754029 0.718656 0.688465 0.168077
H12   H     H_    0.692616 0.370128 0.929172 0.187844
H13   H     H_    0.794699 0.560238 0.630568 0.126147
H14   H     H_    0.919494 0.268271 0.398693 0.333575
H15   H     H_    0.087031 0.747953 0.589354 0.342791
H16   H     H_    0.318679 0.878833 0.999581 0.135171
H17   H     H_    0.285242 0.051320 0.960898 0.138076
H18   H     H_    0.422929 0.142677 0.890899 0.131894
H19   H     H_    0.595580 0.061606 0.859977 0.143585
H20   H     H_    0.631229 0.889753 0.898581 0.135379
H21   H     H_    0.555233 0.213262 0.994141 0.134922
H22   H     H_    0.618628 0.049128 0.029779 0.142049
H23   H     H_    0.229803 0.660073 0.558878 0.144390
H24   H     H_    0.776601 0.057644 0.093489 0.142316
H25   H     H_    0.871979 0.231016 0.121267 0.137296
H26   H     H_    0.809902 0.395999 0.085743 0.145914
H27   H     H_    0.339779 0.281974 0.750100 0.129033
H28   H     H_    0.353716 0.090649 0.736074 0.148231
H29   H     H_    0.512362 0.026390 0.677036 0.118553
H30   H     H_    0.654121 0.153834 0.629240 0.131018
H31   H     H_    0.644196 0.344782 0.644361 0.143414
H32   H     H_    0.198839 0.507633 0.286108 0.137731
H33   H     H_    0.039590 0.578942 0.340503 0.146056
H34   H     H_    0.772949 0.347717 0.434566 0.137537
H35   H     H_    0.071406 0.721245 0.414273 0.137571
H36   H     H_    0.263513 0.794505 0.432733 0.141444
H37   H     H_    0.423677 0.724469 0.378701 0.130557
H38   H     H_    0.581343 0.803507 0.729537 0.317182
H39   H     H_    0.770195 0.482899 0.230853 0.326678
H40   H     H_    0.276338 0.159127 0.612916 0.375434
H41   H     H_    0.724632 0.844482 0.389093 0.382378
H42   H     H_    0.729463 0.087869 0.429665 0.328096
H43   H     H_    0.360518 0.937204 0.623834 0.326248
H44   H     H_    0.483858 0.409601 0.803290 0.165058
H45   H     H_    0.362970 0.602451 0.215503 0.180004
H46   H     H_    0.532543 0.689253 0.656921 0.139551
H47   H     H_    0.671013 0.470751 0.315606 0.166772
H48   H     H_    0.582964 0.171922 0.437500 0.188765
N1    N     N_R   0.538113 0.564341 0.144995 -0.334324
N2    N     N_R   0.557206 0.595233 0.847356 -0.331992
N3    N     N_R   0.207800 0.519350 0.510590 -0.137794
N4    N     N_R   0.792200 0.480650 0.489410 -0.138541
O1    O     O_R   0.421690 0.658830 0.502820 -0.644542
O2    O     O_2   0.441373 0.733881 0.857495 -0.510402
O3    O     O_2   0.496379 0.741140 0.155978 -0.562422
O4    O     O_2   0.681148 0.462654 0.837292 -0.566967
O5    O     O_3   0.983088 0.309089 0.416438 -0.785206
O6    O     O_3   0.022481 0.705626 0.573350 -0.778923
O7    O     O_3   0.578293 0.757314 0.763576 -0.749912
O8    O     O_3   0.716480 0.506448 0.204420 -0.763315
O9    O     O_3   0.323395 0.202937 0.584534 -0.769054
O10   O     O_3   0.678316 0.799682 0.417330 -0.780512
O11   O     O_3   0.699808 0.020919 0.411144 -0.786826
O12   O     O_R   0.578310 0.341170 0.497180 -0.641195
O13   O     O_3   0.319751 0.985234 0.601952 -0.802119
O14   O     O_R   0.609320 0.646410 0.496030 -0.582824
O15   O     O_R   0.390680 0.353590 0.503970 -0.580031
O16   O     O_R   0.406170 0.506240 0.587240 -0.592039
O17   O     O_R   0.593830 0.493760 0.412760 -0.604791
O18   O     O_R   0.593790 0.493820 0.580450 -0.642811
O19   O     O_R   0.406210 0.506180 0.419550 -0.634396
O20   O     O_2   0.567080 0.384930 0.135097 -0.537625
Zn1   Zn    Zn3+2 0.374720 0.508290 0.504530 0.961475
Zn2   Zn    Zn3+2 0.625280 0.491710 0.495470 0.947082

loop_
_geom_bond_atom_site_label_1
_geom_bond_atom_site_label_2
_ccdc_geom_bond_type
C29   N1    A    
C34   C56   A    
N3    Zn1   S    
C45   C71   S    
C1    C8    S    
C73   C74   A    
C14   C18   A    
H15   O6    S    
C66   C68   A    
C82   H36   S    
C49   H6    S    
C31   N1    A    
C17   O17   A    
C42   C58   S    
C81   C82   A    
C26   C44   S    
C53   C54   A    
C15   C19   A    
C76   H31   S    
C23   C45   A    
O15   Zn1   S    
C36   C37   A    
C35   C37   A    
C21   O6    S    
C32   O4    S    
C6    N1    S    
H41   O10   S    
C10   O13   S    
C71   C76   A    
C41   H12   S    
O19   Zn1   S    
C77   C83   A    
C33   C36   A    
C56   C78   A    
C18   C19   A    
C84   H46   S    
O17   Zn2   S    
C49   C50   A    
C25   N4    A    
C26   N3    A    
C70   H26   S    
C46   C47   A    
C69   H25   S    
C9    C19   A    
C15   H48   S    
C34   H45   S    
C68   C69   A    
C30   N2    A    
H39   O8    S    
C45   C67   A    
C31   C33   A    
C51   C57   A    
C13   O9    S    
C30   O2    S    
C72   C73   A    
N4    Zn2   S    
C40   C42   A    
C21   C27   A    
C72   H27   S    
C59   C60   A    
C79   H32   S    
C59   H16   S    
C41   C43   A    
C12   O15   A    
C5    N2    S    
H38   O7    S    
C66   H22   S    
C65   H21   S    
C44   C46   A    
C43   C64   S    
C80   H33   S    
C39   C42   A    
C77   C79   A    
C7    C12   S    
C33   C40   A    
C74   C75   A    
C53   H9    S    
C51   C52   A    
C32   C35   A    
C3    O7    S    
C14   H2    S    
C55   H11   S    
C16   C67   S    
C80   C81   A    
C20   C28   A    
C58   C59   A    
C74   H29   S    
C9    O11   S    
C56   C77   S    
C6    C34   A    
C22   N4    A    
C60   C61   A    
C40   H1    S    
C29   C38   A    
C2    C4    A    
C75   C76   A    
C25   C51   S    
C4    O8    S    
C62   C63   A    
C2    C78   A    
C47   C48   A    
C5    C23   A    
C7    C13   A    
C57   H13   S    
C2    H47   S    
C1    O14   A    
C16   O16   A    
C24   H23   S    
O12   Zn2   S    
C83   H37   S    
C9    C11   A    
C29   O20   S    
C24   N3    A    
C4    C6    A    
C48   C49   A    
C20   C22   A    
C65   C66   A    
C64   C70   A    
C48   H5    S    
C55   C57   A    
H14   O5    S    
C16   O18   A    
C52   H8    S    
C31   O3    S    
C60   H17   S    
C17   O19   A    
C3    C84   A    
C1    O1    A    
C52   C53   A    
C73   H28   S    
C46   H3    S    
C44   C50   A    
C58   C63   A    
C22   H34   S    
C54   C55   A    
C8    C14   A    
O14   Zn2   S    
C75   H30   S    
C20   O5    S    
C63   H20   S    
C3    C5    A    
C10   C13   A    
C62   H19   S    
H42   O11   S    
C11   O10   S    
O18   Zn2   S    
C25   C27   A    
H40   O9    S    
C81   H35   S    
C26   C28   A    
O1    Zn1   S    
C47   H4    S    
C12   O12   A    
C36   C38   A    
C61   H18   S    
C38   C43   A    
C37   C39   A    
C64   C65   A    
C32   N2    A    
C10   C18   A    
C8    C11   A    
C7    C15   A    
C17   C78   S    
C30   C39   A    
O16   Zn1   S    
C61   C62   A    
C35   C41   A    
C69   C70   A    
C54   H10   S    
C79   C80   A    
C50   H7    S    
C67   C84   A    
C71   C72   A    
C82   C83   A    
C21   C24   A    
C27   C28   A    
C68   H24   S    
H43   O13   S    
C23   H44   S    
