data_mof_unit_6801.cif
_audit_creation_date              2012-12-10T17:31:11-0500
_audit_creation_method            fapswitch 2.2
_symmetry_space_group_name_H-M    P1
_symmetry_Int_Tables_number       1
_space_group_crystal_system       triclinic
_cell_length_a                    12.021442
_cell_length_b                    12.869426
_cell_length_c                    15.481832
_cell_angle_alpha                 86.582676
_cell_angle_beta                  115.419719
_cell_angle_gamma                 94.352868
_cell_volume                      2156.08490351

loop_
_atom_site_label
_atom_site_type_symbol
_atom_type_description
_atom_site_fract_x
_atom_site_fract_y
_atom_site_fract_z
_atom_type_partial_charge
C1    C     C_R   0.475969 0.299539 0.497863 0.927407
C2    C     C_R   0.665139 0.968106 0.574530 0.417183
C3    C     C_R   0.342859 0.138813 0.438750 0.049503
C4    C     C_R   0.657143 0.861379 0.560411 0.049726
C5    C     C_R   0.563774 0.131796 0.537833 -0.300117
C6    C     C_R   0.436093 0.868256 0.461802 -0.301902
C7    C     C_R   0.557629 0.025203 0.528819 0.001318
C8    C     C_R   0.442293 0.974911 0.470558 0.001471
C9    C     C_R   0.012873 0.609720 0.421141 -0.325026
C10   C     C_R   0.986691 0.389721 0.578163 -0.334212
C11   C     C_R   0.131521 0.598193 0.428229 0.008882
C12   C     C_R   0.523994 0.700480 0.502038 0.926477
C13   C     C_R   0.868733 0.402122 0.572153 0.012851
C14   C     C_R   0.155700 0.449475 0.531597 0.218315
C15   C     C_R   0.843230 0.549204 0.466722 0.215354
C16   C     C_R   0.575745 0.492882 0.680346 0.873149
C17   C     C_R   0.423778 0.503613 0.319676 0.871421
C18   C     C_R   0.035877 0.458848 0.527632 0.028327
C19   C     C_R   0.963415 0.540270 0.471265 0.023123
C20   C     C_R   0.619971 0.474854 0.783575 -0.068022
C21   C     C_R   0.375829 0.489921 0.216807 -0.068079
C22   C     C_R   0.781486 0.444707 0.941919 -0.132134
C23   C     C_R   0.641329 0.424632 0.114498 -0.327316
C24   C     C_R   0.210789 0.448065 0.062811 -0.132894
C25   C     C_R   0.744766 0.463832 0.844149 -0.225469
C26   C     C_R   0.249818 0.472866 0.158329 -0.224657
C27   C     C_R   0.532563 0.462948 0.820618 -0.223749
C28   C     C_R   0.461408 0.482172 0.179486 -0.220669
C29   C     C_R   0.566139 0.439058 0.917290 0.037426
C30   C     C_R   0.425655 0.449099 0.086904 0.037983
C31   C     C_R   0.693391 0.434686 0.979779 0.115352
C32   C     C_R   0.297803 0.436608 0.025975 0.113839
C33   C     C_R   0.476024 0.427786 0.953624 0.025279
C34   C     C_R   0.348542 0.411413 0.893996 -0.320804
C35   C     C_R   0.514845 0.433973 0.052710 0.023679
C36   C     C_R   0.730325 0.422803 0.078675 0.421032
C37   C     C_R   0.259512 0.413831 0.929715 0.424615
C38   C     C_R   0.541473 0.812057 0.506201 -0.137192
C39   C     C_R   0.458427 0.188010 0.493413 -0.135933
C40   C     C_R   0.334852 0.032079 0.424619 0.418030
H1    H     H_    0.832205 0.348465 0.611336 0.143042
H2    H     H_    0.112741 0.437108 0.018354 0.187814
H3    H     H_    0.672433 0.415442 0.190983 0.147060
H4    H     H_    0.316513 0.393012 0.819915 0.132696
H5    H     H_    0.348341 0.826850 0.422181 0.182482
H6    H     H_    0.651474 0.173166 0.577682 0.183636
H7    H     H_    0.864212 0.407877 0.206362 0.337436
H8    H     H_    0.123990 0.383732 0.805565 0.332548
H9    H     H_    0.831182 0.832100 0.584220 0.219866
H10   H     H_    0.799635 0.811241 0.680749 0.212225
H11   H     H_    0.168456 0.168228 0.413862 0.219439
H12   H     H_    0.168514 0.652438 0.389771 0.140179
H13   H     H_    0.201289 0.189306 0.317963 0.217008
H14   H     H_    0.235029 0.939613 0.322657 0.326368
H15   H     H_    0.765328 0.060300 0.676586 0.328176
H16   H     H_    0.811193 0.701849 0.433420 0.174071
H17   H     H_    0.751107 0.621986 0.338410 0.156622
H18   H     H_    0.183432 0.295631 0.559111 0.174443
H19   H     H_    0.246228 0.370978 0.656862 0.144989
H20   H     H_    0.961278 0.673274 0.376761 0.158359
H21   H     H_    0.038211 0.326066 0.622416 0.151794
H22   H     H_    0.556890 0.503748 0.223739 0.160520
H23   H     H_    0.438009 0.477032 0.773434 0.166615
H24   H     H_    0.182002 0.477714 0.186425 0.182898
H25   H     H_    0.813808 0.471385 0.816341 0.181396
H26   H     H_    0.878936 0.439563 0.987755 0.187441
N1    N     N_R   0.799120 0.480200 0.517090 -0.096674
N2    N     N_R   0.200880 0.519800 0.482910 -0.096284
N3    N     N_3   0.764617 0.801885 0.606934 -0.420019
N4    N     N_3   0.235583 0.198463 0.391758 -0.418536
N5    N     N_3   0.765820 0.629497 0.409432 -0.400071
N6    N     N_3   0.231015 0.366578 0.585550 -0.396959
O1    O     O_R   0.580150 0.341050 0.504560 -0.634271
O2    O     O_3   0.135117 0.397567 0.871191 -0.790071
O3    O     O_3   0.221679 0.987020 0.364991 -0.783493
O4    O     O_3   0.778407 0.013263 0.633851 -0.783030
O5    O     O_R   0.419850 0.658950 0.495440 -0.633082
O6    O     O_R   0.388090 0.353760 0.493600 -0.577067
O7    O     O_R   0.611910 0.646240 0.506400 -0.576703
O8    O     O_R   0.650890 0.490020 0.640860 -0.619576
O9    O     O_R   0.349110 0.509980 0.359140 -0.620266
O10   O     O_R   0.458830 0.502730 0.629890 -0.605572
O11   O     O_R   0.541170 0.497270 0.370110 -0.605691
O12   O     O_3   0.853809 0.413976 0.139186 -0.789635
Zn1   Zn    Zn3+2 0.628240 0.491510 0.507320 0.966698
Zn2   Zn    Zn3+2 0.371760 0.508490 0.492680 0.967611

loop_
_geom_bond_atom_site_label_1
_geom_bond_atom_site_label_2
_ccdc_geom_bond_type
C37   O2    S    
C6    H5    S    
C27   C29   A    
C34   C37   A    
C24   H2    S    
C14   C18   A    
C2    C7    A    
C21   C26   A    
C13   H1    S    
C7    C8    A    
C15   C19   A    
C30   C35   A    
H10   N3    S    
C24   C26   A    
C20   C25   A    
C12   O7    A    
C29   C33   A    
C23   H3    S    
C18   C19   A    
C26   H24   S    
C22   H26   S    
C11   H12   S    
C9    C19   A    
C22   C25   A    
C6    C38   A    
H11   N4    S    
O9    Zn2   S    
H19   N6    S    
O6    Zn2   S    
C3    C39   A    
H9    N3    S    
C1    O6    A    
H13   N4    S    
C4    N3    S    
C10   C18   A    
N1    Zn1   S    
C32   C37   A    
C22   C31   A    
H8    O2    S    
C3    N4    S    
C25   H25   S    
C5    C7    A    
C6    C8    A    
O10   Zn2   S    
C17   C21   S    
C16   O8    A    
C2    C4    A    
C24   C32   A    
O8    Zn1   S    
C16   C20   S    
H16   N5    S    
C15   N1    A    
C12   O5    A    
C16   O10   A    
C33   C34   A    
C34   H4    S    
N2    Zn2   S    
H7    O12   S    
H17   N5    S    
C9    C11   A    
O1    Zn1   S    
C27   H23   S    
H15   O4    S    
O11   Zn1   S    
C21   C28   A    
C4    C38   A    
C3    C40   A    
C23   C35   A    
C5    C39   A    
C10   H21   S    
O7    Zn1   S    
C2    O4    S    
C11   N2    A    
C13   N1    A    
C14   N6    S    
C10   C13   A    
O5    Zn2   S    
C20   C27   A    
C15   N5    S    
C5    H6    S    
C40   O3    S    
C9    H20   S    
C1    O1    A    
C28   C30   A    
C29   C31   A    
C30   C32   A    
H18   N6    S    
C36   O12   S    
C33   C35   A    
C17   O9    A    
C12   C38   S    
C1    C39   S    
H14   O3    S    
C23   C36   A    
C14   N2    A    
C31   C36   A    
C8    C40   A    
C17   O11   A    
C28   H22   S    
