data_mof_unit_37232.cif
_audit_creation_date              2012-12-10T17:22:43-0500
_audit_creation_method            fapswitch 2.2
_symmetry_space_group_name_H-M    P1
_symmetry_Int_Tables_number       1
_space_group_crystal_system       triclinic
_cell_length_a                    10.647912
_cell_length_b                    10.937573
_cell_length_c                    9.635024
_cell_angle_alpha                 89.758444
_cell_angle_beta                  90.140517
_cell_angle_gamma                 95.156761
_cell_volume                      1117.5630882

loop_
_atom_site_label
_atom_site_type_symbol
_atom_type_description
_atom_site_fract_x
_atom_site_fract_y
_atom_site_fract_z
_atom_type_partial_charge
C1    C     C_R   0.486567 0.262258 0.501169 0.877972
C2    C     C_3   0.958345 0.485044 0.370111 0.620230
C3    C     C_3   0.032299 0.392306 0.449143 0.262643
C4    C     C_3   0.123414 0.499473 0.500489 -0.425589
C5    C     C_R   0.479957 0.111161 0.764486 -0.235499
C6    C     C_R   0.539667 0.060635 0.876785 0.655462
C7    C     C_R   0.609822 0.961467 0.855353 0.616393
C8    C     C_R   0.605606 0.903942 0.725994 -0.259549
C9    C     C_R   0.531050 0.944297 0.617696 -0.040277
C10   C     C_R   0.490039 0.061987 0.629574 -0.071692
C11   C     C_R   0.468529 0.127099 0.505814 -0.230645
C12   C     C_R   0.259840 0.499656 0.500060 0.933012
C13   C     C_R   0.446631 0.061585 0.382009 0.645279
C14   C     C_R   0.455683 0.935276 0.378324 0.322191
C15   C     C_R   0.501391 0.874412 0.496342 -0.202015
C16   C     C_R   0.695346 0.647549 0.138877 0.654498
C17   C     C_R   0.798760 0.698576 0.063555 0.441546
C18   C     C_R   0.797225 0.692880 0.921404 -0.189016
C19   C     C_R   0.692541 0.637072 0.854849 -0.169594
C20   C     C_R   0.595226 0.567867 0.925239 0.042591
C21   C     C_R   0.595395 0.570472 0.074321 0.023588
C22   C     C_R   0.409696 0.434084 0.074044 0.011870
C23   C     C_R   0.502990 0.738652 0.499074 0.881519
C24   C     C_R   0.408946 0.434928 0.926535 0.737329
C25   C     C_R   0.740088 0.499522 0.499926 0.978948
C26   C     C_3   0.041809 0.512726 0.629951 0.600281
C27   C     C_3   0.949998 0.405675 0.578759 0.182643
C28   C     C_3   0.876366 0.498288 0.499268 -0.439149
C29   C     C_3   0.968051 0.604775 0.550143 0.503302
C30   C     C_3   0.050770 0.593150 0.419924 -0.326357
Cu1   Cu    Cu3+1 0.499990 0.499990 0.640660 1.067102
Cu2   Cu    Cu3+1 0.500010 0.500010 0.359340 1.121897
H1    H     H_    0.668057 0.835677 0.705082 0.188321
H2    H     H_    0.335672 0.379812 0.129119 0.208274
H3    H     H_    0.872052 0.741732 0.861944 0.265371
H4    H     H_    0.688038 0.655884 0.748258 0.225568
H5    H     H_    0.094288 0.669787 0.355339 0.257173
H6    H     H_    0.424790 0.186775 0.785307 0.249053
N1    N     N_R   0.501210 0.501210 0.147910 -0.225067
N2    N     N_R   0.501250 0.501290 0.852040 -0.242826
O1    O     O_R   0.499990 0.319640 0.618810 -0.584826
O2    O     O_R   0.500000 0.319660 0.381240 -0.519664
O3    O     O_R   0.316850 0.499960 0.618770 -0.496845
O4    O     O_R   0.316860 0.499980 0.381190 -0.581766
O5    O     O_R   0.500000 0.680340 0.618760 -0.624180
O6    O     O_R   0.500010 0.680360 0.381190 -0.481791
O7    O     O_R   0.683140 0.500020 0.618810 -0.599039
O8    O     O_R   0.683150 0.500040 0.381230 -0.508331
Cl1   Cl    Cl    0.881930 0.282830 0.684065 -0.394017
F1    F     F_    0.681078 0.921453 0.959727 -0.596702
Cl2   Cl    Cl    0.409482 0.860743 0.221252 -0.406185
F2    F     F_    0.692698 0.690186 0.268647 -0.604099
Cl3   Cl    Cl    0.923771 0.786164 0.146200 -0.355875
F3    F     F_    0.314064 0.368927 0.859049 -0.596763
F4    F     F_    0.085836 0.528247 0.764449 -0.535822
F5    F     F_    0.932692 0.714128 0.602063 -0.607680
F6    F     F_    0.913808 0.469266 0.235870 -0.569933
Cl4   Cl    Cl    0.077603 0.251889 0.380232 -0.370449
F7    F     F_    0.411892 0.119696 0.264935 -0.539896
F8    F     F_    0.536015 0.112873 0.003887 -0.542921

loop_
_geom_bond_atom_site_label_1
_geom_bond_atom_site_label_2
_ccdc_geom_bond_type
C24   F3    S    
C4    C26   S    
Cu1   O5    S    
C16   C21   A    
C23   O5    A    
C29   F5    S    
C17   Cl3   S    
C4    C12   S    
C11   C13   A    
C9    C10   A    
C25   O7    A    
Cu1   Cu2   S    
C21   N1    A    
C20   N2    A    
C2    C30   S    
C26   F4    S    
C19   C20   A    
C15   C23   S    
C17   C18   A    
Cu2   O4    S    
C2    F6    S    
C5    C10   A    
C12   O4    A    
C23   O6    A    
Cu1   O7    S    
C5    H6    S    
C20   C21   A    
C25   C28   S    
Cu2   O8    S    
C25   O8    A    
C26   C27   S    
C29   C30   S    
Cu1   O3    S    
C13   F7    S    
C22   N1    A    
C3    C27   S    
C28   C29   S    
C24   N2    A    
C2    C3    S    
C6    C7    A    
C8    H1    S    
C9    C15   A    
C5    C6    A    
C22   H2    S    
C22   C24   A    
C10   C11   A    
C27   Cl1   S    
C3    C4    S    
C3    Cl4   S    
C6    F8    S    
C1    O2    A    
C7    C8    A    
Cu1   N2    S    
C7    F1    S    
C26   C29   S    
C16   F2    S    
C18   C19   A    
C18   H3    S    
Cu2   N1    S    
C1    O1    A    
C27   C28   S    
Cu2   O2    S    
C14   C15   A    
C16   C17   A    
C2    C28   S    
Cu1   O1    S    
C19   H4    S    
C13   C14   A    
Cu2   O6    S    
C12   O3    A    
C4    C30   S    
C14   Cl2   S    
C30   H5    S    
C8    C9    A    
C1    C11   S    
