data_mof_unit_27120.cif
_audit_creation_date              2012-12-11T14:49:39-0500
_audit_creation_method            fapswitch 2.2
_symmetry_space_group_name_H-M    P1
_symmetry_Int_Tables_number       1
_space_group_crystal_system       triclinic
_cell_length_a                    16.897649
_cell_length_b                    7.018431
_cell_length_c                    16.831606
_cell_angle_alpha                 90.166161
_cell_angle_beta                  100.765367
_cell_angle_gamma                 89.948025
_cell_volume                      1961.00419012

loop_
_atom_site_label
_atom_site_type_symbol
_atom_type_description
_atom_site_fract_x
_atom_site_fract_y
_atom_site_fract_z
_atom_type_partial_charge
O1    O     O_R   0.579510 0.506290 0.439030 -0.528177
O2    O     O_R   0.420490 0.006290 0.560970 -0.541886
O3    O     O_R   0.412540 0.170090 0.405290 -0.544728
O4    O     O_R   0.587460 0.670090 0.594710 -0.527160
C1    C     C_R   0.384259 0.345573 0.382852 0.659196
C2    C     C_R   0.616488 0.846075 0.616247 0.665635
O5    O     O_R   0.578390 0.176230 0.429330 -0.540513
O6    O     O_R   0.421610 0.676230 0.570670 -0.546033
O7    O     O_R   0.587530 0.011250 0.585190 -0.529842
O8    O     O_R   0.412470 0.511250 0.414810 -0.540683
C3    C     C_R   0.604765 0.343274 0.413378 0.796995
C4    C     C_R   0.395078 0.843743 0.586450 0.678149
O9    O     O_3   0.502800 0.340940 0.551110 -0.366642
O10   O     O_3   0.497200 0.840940 0.448890 -0.368310
V1    V     V_3+5 0.499480 0.064020 0.490520 1.439729
V2    V     V_3+5 0.500520 0.564020 0.509480 1.455310
C5    C     C_R   0.166882 0.926727 0.860828 -0.068624
C6    C     C_R   0.834985 0.429255 0.141431 -0.050057
C7    C     C_R   0.333056 0.840059 0.639022 -0.064649
C8    C     C_R   0.666667 0.338153 0.360758 -0.069030
C9    C     C_R   0.234153 0.653436 0.695271 -0.187017
C10   C     C_R   0.762432 0.147947 0.300964 -0.190955
C11   C     C_R   0.286319 0.673767 0.640451 -0.164975
C12   C     C_R   0.710536 0.168200 0.356073 -0.137489
C13   C     C_R   0.324707 0.988661 0.693008 -0.239806
C14   C     C_R   0.678119 0.490529 0.310241 -0.203558
C15   C     C_R   0.272533 0.968199 0.749069 0.158711
C16   C     C_R   0.730259 0.470457 0.254176 0.152459
C17   C     C_R   0.227170 0.798755 0.750586 0.152178
C18   C     C_R   0.772176 0.297109 0.248775 0.154927
C19   C     C_R   0.175074 0.778225 0.806730 -0.219863
C20   C     C_R   0.823613 0.276534 0.191941 -0.231196
C21   C     C_R   0.213495 0.093150 0.859262 -0.154853
C22   C     C_R   0.792822 0.600947 0.148063 -0.074972
C23   C     C_R   0.265539 0.113571 0.804347 -0.191259
C24   C     C_R   0.740805 0.620649 0.202932 -0.193633
H1    H     H_    0.139171 0.650192 0.806440 0.150608
H2    H     H_    0.856419 0.144716 0.188860 0.142162
H3    H     H_    0.208948 0.210256 0.900248 0.124058
H4    H     H_    0.800634 0.723035 0.111131 0.161325
H5    H     H_    0.199897 0.522844 0.694889 0.130786
H6    H     H_    0.794429 0.014714 0.298785 0.127688
H7    H     H_    0.299743 0.244226 0.804673 0.121611
H8    H     H_    0.709502 0.754601 0.205832 0.128980
H9    H     H_    0.290881 0.556681 0.599459 0.124417
H10   H     H_    0.703931 0.048191 0.394637 0.131954
H11   H     H_    0.360606 0.116701 0.693329 0.121387
H12   H     H_    0.644797 0.621827 0.312709 0.145437
C25   C     C_3   0.735727 0.831687 0.838744 -0.105926
C26   C     C_3   0.191662 0.194801 0.226805 -0.126613
H13   H     H_    0.720406 0.940292 0.881955 0.135902
H14   H     H_    0.202176 0.098781 0.176879 0.137331
C27   C     C_3   0.662702 0.819058 0.766808 -0.410376
C28   C     C_3   0.266116 0.173447 0.296307 -0.413028
H15   H     H_    0.615199 0.921092 0.777309 0.134539
H16   H     H_    0.307031 0.062943 0.278950 0.139598
H17   H     H_    0.634235 0.675342 0.762612 0.141454
H18   H     H_    0.248377 0.122391 0.353106 0.132466
H19   H     H_    0.737493 0.578472 0.683903 0.181968
H20   H     H_    0.228367 0.461450 0.389675 0.123139
C29   C     C_3   0.835270 0.772457 0.739573 -0.171826
C30   C     C_3   0.178811 0.549548 0.263061 -0.130447
C31   C     C_3   0.791539 0.099364 0.769113 -0.433085
C32   C     C_3   0.263692 0.449198 0.163115 -0.436768
C33   C     C_3   0.814088 0.903415 0.809513 -0.022227
C34   C     C_3   0.183672 0.405493 0.192728 0.002736
H21   H     H_    0.846071 0.165354 0.752468 0.155851
H22   H     H_    0.260657 0.595159 0.136840 0.134244
H23   H     H_    0.771248 0.197344 0.813297 0.137539
H24   H     H_    0.270208 0.350228 0.112910 0.136189
C35   C     C_3   0.688835 0.866757 0.685817 0.019995
C36   C     C_3   0.311873 0.364910 0.313115 0.055113
C37   C     C_3   0.757863 0.726969 0.676218 -0.375468
C38   C     C_3   0.250146 0.513508 0.335184 -0.424082
C39   C     C_3   0.722994 0.077515 0.693682 -0.087384
C40   C     C_3   0.338526 0.426758 0.232727 -0.110640
H25   H     H_    0.673546 0.175619 0.702959 0.142097
H26   H     H_    0.377112 0.310997 0.215111 0.135478
H27   H     H_    0.875621 0.856798 0.707635 0.147825
H28   H     H_    0.186455 0.695901 0.240153 0.152735
H29   H     H_    0.771392 0.735549 0.614155 0.142447
H30   H     H_    0.280087 0.652199 0.353040 0.142274
O11   O     O_R   0.087500 0.266000 0.085220 -0.541023
O12   O     O_R   0.912500 0.766000 0.914780 -0.538477
O13   O     O_R   0.921600 0.589950 0.070670 -0.520363
O14   O     O_R   0.078400 0.089950 0.929330 -0.546827
C41   C     C_R   0.895457 0.423487 0.087074 0.771558
C42   C     C_R   0.105097 0.922998 0.913641 0.687432
O15   O     O_R   0.087460 0.596020 0.094710 -0.517478
O16   O     O_R   0.912540 0.096020 0.905290 -0.545452
O17   O     O_R   0.079520 0.760970 0.939020 -0.540972
O18   O     O_R   0.920480 0.260970 0.060980 -0.542605
C43   C     C_R   0.113915 0.425333 0.120108 0.715118
C44   C     C_R   0.884773 0.925107 0.881108 0.682856
O19   O     O_3   0.997180 0.425140 0.948910 -0.376931
O20   O     O_3   0.002820 0.925140 0.051090 -0.334463
V3    V     V_3+5 0.000520 0.702080 0.009480 1.556435
V4    V     V_3+5 0.999480 0.202080 0.990520 1.477137
C45   C     C_2   0.881196 0.591941 0.766337 0.406792
H31   H     H_    0.855981 0.484171 0.799717 0.037219
O21   O     O_2   0.948092 0.565727 0.750704 -0.539560
C46   C     C_2   0.098599 0.550376 0.291042 0.357424
H32   H     H_    0.093787 0.499667 0.350790 0.043606
O22   O     O_2   0.037777 0.608069 0.246846 -0.506686
C47   C     C_2   0.752546 0.141447 0.618452 0.341375
H33   H     H_    0.801291 0.066474 0.598124 0.056036
O23   O     O_2   0.722639 0.279846 0.580502 -0.545707
C48   C     C_2   0.387930 0.607618 0.242254 0.387462
H34   H     H_    0.361045 0.741418 0.255701 0.040001
O24   O     O_2   0.458348 0.605018 0.234551 -0.540732
C49   C     C_2   0.745646 0.644814 0.883519 0.361003
H35   H     H_    0.745669 0.511929 0.850908 0.022894
O25   O     O_2   0.749703 0.640830 0.956589 -0.555284
C50   C     C_2   0.116711 0.124246 0.254464 0.375294
H36   H     H_    0.101688 0.174389 0.310737 0.037871
O26   O     O_2   0.073531 0.005146 0.215127 -0.495795

loop_
_geom_bond_atom_site_label_1
_geom_bond_atom_site_label_2
_ccdc_geom_bond_type
C18   C20   A    
C31   C33   S    
C11   H9    S    
C15   C17   A    
C5    C42   S    
C27   H15   S    
C49   H35   S    
O1    C3    A    
C36   C40   S    
O2    C4    A    
C2    O7    A    
C50   H36   S    
O19   V4    S    
O18   V4    S    
O5    C3    A    
C47   O23   D    
C21   H3    S    
C25   C33   S    
C22   H4    S    
O12   V3    S    
C32   H22   S    
C30   H28   S    
C40   H26   S    
C1    C36   S    
O14   C42   A    
O11   C43   A    
C48   H34   S    
O6    V2    S    
C8    C12   A    
C25   H13   S    
O11   V4    S    
O20   V4    S    
C26   H14   S    
C20   H2    S    
C23   H7    S    
C13   H11   S    
C14   H12   S    
C25   C49   S    
O5    V1    S    
C40   C48   S    
C41   O18   A    
C29   C45   S    
C5    C21   A    
C38   H30   S    
O14   V4    S    
C37   H29   S    
O16   C44   A    
C31   H21   S    
C6    C22   A    
C2    C35   S    
C28   H16   S    
C3    C8    S    
C30   C34   S    
O13   C41   A    
C31   H23   S    
O4    C2    A    
C35   C37   S    
C27   H17   S    
C29   C37   S    
C9    C17   A    
C19   H1    S    
O15   V3    S    
C26   C50   S    
C32   C34   S    
O4    V2    S    
C7    C11   A    
C39   H25   S    
C45   H31   S    
C42   O17   A    
O6    C4    A    
O20   V3    S    
C32   C40   S    
C49   O25   D    
O1    V2    S    
O12   C44   A    
O17   V3    S    
C46   O22   D    
O2    V1    S    
C26   C34   S    
C34   C43   S    
C9    H5    S    
C36   C38   S    
C33   C44   S    
C45   O21   D    
C39   C47   S    
C32   H24   S    
C9    C11   A    
C5    C19   A    
C10   C12   A    
C24   H8    S    
C6    C20   A    
C27   C35   S    
O3    V1    S    
C31   C39   S    
C28   H18   S    
H19   C37   S    
C10   C18   A    
O3    C1    A    
C50   O26   D    
O19   V3    S    
C13   C15   A    
C47   H33   S    
C14   C16   A    
C6    C41   S    
C15   C23   A    
C16   C18   A    
O7    V1    S    
C12   H10   S    
C1    O8    A    
C26   C28   S    
O8    V2    S    
C35   C39   S    
C10   H6    S    
C8    C14   A    
C29   H27   S    
C25   C27   S    
C4    C7    S    
H20   C38   S    
C21   C23   A    
C48   O24   D    
C22   C24   A    
O15   C43   A    
C46   H32   S    
C7    C13   A    
O13   V3    S    
C29   C33   S    
C28   C36   S    
C16   C24   A    
C17   C19   A    
O9    V2    S    
O10   V1    S    
C30   C38   S    
O16   V4    S    
C30   C46   S    
