data_mof_unit_10803.cif
_audit_creation_date              2012-12-10T17:22:08-0500
_audit_creation_method            fapswitch 2.2
_symmetry_space_group_name_H-M    P1
_symmetry_Int_Tables_number       1
_space_group_crystal_system       triclinic
_cell_length_a                    15.874926
_cell_length_b                    10.84084
_cell_length_c                    9.615444
_cell_angle_alpha                 88.636295
_cell_angle_beta                  89.858166
_cell_angle_gamma                 92.980625
_cell_volume                      1652.07605782

loop_
_atom_site_label
_atom_site_type_symbol
_atom_type_description
_atom_site_fract_x
_atom_site_fract_y
_atom_site_fract_z
_atom_type_partial_charge
C1    C     C_R   0.503563 0.261968 0.502311 0.796479
C2    C     C_3   0.947914 0.410035 0.614465 0.145215
C3    C     C_3   0.916620 0.497601 0.495919 -0.223045
C4    C     C_3   0.954194 0.630498 0.525631 0.078198
C5    C     C_3   0.052709 0.630552 0.530427 0.188990
C6    C     C_1   0.824295 0.497670 0.498008 0.202019
C7    C     C_1   0.175610 0.499163 0.499399 0.221990
C8    C     C_1   0.251038 0.499078 0.500311 0.011943
C9    C     C_R   0.503620 0.102375 0.767878 -0.095110
C10   C     C_R   0.469562 0.039193 0.884576 -0.185492
C11   C     C_R   0.421396 0.929811 0.868523 -0.118281
C12   C     C_R   0.340466 0.499029 0.500191 0.847354
C13   C     C_R   0.416570 0.874887 0.738698 0.381920
C14   C     C_R   0.461198 0.930883 0.623220 -0.006261
C15   C     C_R   0.490642 0.055335 0.633111 0.063135
C16   C     C_R   0.504470 0.126233 0.507603 -0.071183
C17   C     C_R   0.506893 0.065542 0.380584 -0.161269
C18   C     C_R   0.497539 0.938237 0.377141 -0.137205
C19   C     C_R   0.478216 0.869159 0.498600 -0.075288
C20   C     C_R   0.580575 0.707079 0.126644 0.411640
C21   C     C_R   0.589326 0.812513 0.039741 -0.288169
C22   C     C_R   0.598412 0.798305 0.897827 -0.243812
C23   C     C_R   0.490926 0.736140 0.499097 0.866008
C24   C     C_R   0.599207 0.679234 0.848669 0.457622
C25   C     C_R   0.550159 0.586856 0.921815 0.036753
C26   C     C_R   0.545969 0.593630 0.070483 0.098449
C27   C     C_R   0.453332 0.415472 0.077164 -0.067302
C28   C     C_R   0.450534 0.418345 0.929806 0.455596
C29   C     C_R   0.659441 0.498490 0.499827 0.867172
C30   C     C_3   0.045734 0.407018 0.611952 0.065575
C31   C     C_3   0.048529 0.454029 0.351769 0.545372
C32   C     C_3   0.949823 0.459707 0.350421 0.204526
C33   C     C_1   0.748870 0.497835 0.499135 0.014729
C34   C     C_3   0.083238 0.498970 0.496882 -0.237287
Cu1   Cu    Cu3+1 0.499990 0.499990 0.640660 1.067508
Cu2   Cu    Cu3+1 0.500010 0.500010 0.359340 1.032062
H1    H     H_    0.541408 0.185920 0.786172 0.182437
H2    H     H_    0.477591 0.077865 0.986783 0.161093
H3    H     H_    0.388756 0.886769 0.957544 0.189530
H4    H     H_    0.506059 0.893972 0.279082 0.159228
H5    H     H_    0.414325 0.347284 0.135056 0.178621
H6    H     H_    0.064311 0.312069 0.590195 0.250958
H7    H     H_    0.608926 0.901205 0.082064 0.207498
H8    H     H_    0.071529 0.651515 0.638949 0.191633
H9    H     H_    0.931752 0.657071 0.630080 0.170811
N1    N     N_R   0.500800 0.501210 0.147910 -0.215050
N2    N     N_R   0.500820 0.501290 0.852040 -0.227156
O1    O     O_R   0.499990 0.319640 0.618810 -0.569321
O2    O     O_R   0.500000 0.319660 0.381240 -0.595801
O3    O     O_R   0.379430 0.499990 0.618840 -0.488406
O4    O     O_R   0.379440 0.500020 0.381260 -0.579258
O5    O     O_R   0.500000 0.680340 0.618760 -0.582917
O6    O     O_R   0.500010 0.680360 0.381190 -0.572418
O7    O     O_R   0.620560 0.499980 0.618740 -0.554865
O8    O     O_R   0.620570 0.500010 0.381160 -0.526891
Cl1   Cl    Cl    0.900356 0.256144 0.611245 -0.394610
Cl2   Cl    Cl    0.088092 0.436775 0.782142 -0.423664
H10   H     H_    0.927502 0.447001 0.715464 0.194530
Cl3   Cl    Cl    0.914192 0.745368 0.407743 -0.348028
H11   H     H_    0.518100 0.116189 0.283235 0.161598
Cl4   Cl    Cl    0.340396 0.752536 0.720565 -0.535444
Cl5   Cl    Cl    0.657352 0.718287 0.257606 -0.507142
H12   H     H_    0.626429 0.874965 0.836442 0.207857
Cl6   Cl    Cl    0.703000 0.646904 0.802810 -0.533063
Cl7   Cl    Cl    0.376120 0.317756 0.850541 -0.516206
Cl8   Cl    Cl    0.092071 0.546914 0.209026 -0.365042
Cl9   Cl    Cl    0.082931 0.301287 0.317825 -0.375562
Cl10  Cl    Cl    0.894404 0.324434 0.283493 -0.360014
H13   H     H_    0.932742 0.532610 0.274039 0.206751
Cl11  Cl    Cl    0.106489 0.754939 0.432649 -0.342234

loop_
_geom_bond_atom_site_label_1
_geom_bond_atom_site_label_2
_ccdc_geom_bond_type
C31   Cl8   S    
C12   O3    A    
C2    H10   S    
C28   N2    A    
Cu2   N1    S    
C32   H13   S    
C16   C17   A    
C9    C10   A    
C27   H5    S    
C19   C23   S    
Cu1   Cu2   S    
C6    C33   T    
C8    C12   S    
C10   H2    S    
C3    C6    S    
Cu1   N2    S    
C5    C34   S    
Cu1   O3    S    
C9    H1    S    
C17   C18   A    
C22   H12   S    
C31   C34   S    
C7    C8    T    
C24   Cl6   S    
Cu2   O8    S    
C2    Cl1   S    
C13   C14   A    
C20   C21   A    
Cu1   O7    S    
C31   Cl9   S    
C11   C13   A    
C23   O5    A    
C5    Cl11  S    
Cu2   O4    S    
C20   C26   A    
Cu1   O1    S    
C27   N1    A    
C5    H8    S    
C23   O6    A    
C2    C3    S    
C4    H9    S    
C1    O1    A    
C20   Cl5   S    
C3    C32   S    
C11   H3    S    
C7    C34   S    
C22   C24   A    
C25   N2    A    
C10   C11   A    
C30   C34   S    
C17   H11   S    
C3    C4    S    
C30   Cl2   S    
C29   C33   S    
C27   C28   A    
C12   O4    A    
C13   Cl4   S    
C24   C25   A    
C4    Cl3   S    
C32   Cl10  S    
C18   C19   A    
C29   O7    A    
Cu1   O5    S    
C1    C16   S    
C18   H4    S    
C14   C15   A    
C30   H6    S    
C2    C30   S    
Cu2   O6    S    
C29   O8    A    
C25   C26   A    
C21   C22   A    
C26   N1    A    
C1    O2    A    
C14   C19   A    
C31   C32   S    
C21   H7    S    
Cu2   O2    S    
C15   C16   A    
C28   Cl7   S    
C4    C5    S    
C9    C15   A    
