data_mof_unit_5296.cif
_audit_creation_date              2012-12-10T17:19:55-0500
_audit_creation_method            fapswitch 2.2
_symmetry_space_group_name_H-M    P1
_symmetry_Int_Tables_number       1
_space_group_crystal_system       triclinic
_cell_length_a                    9.641828
_cell_length_b                    10.877777
_cell_length_c                    15.424139
_cell_angle_alpha                 86.125357
_cell_angle_beta                  73.959119
_cell_angle_gamma                 88.178948
_cell_volume                      1551.02480547

loop_
_atom_site_label
_atom_site_type_symbol
_atom_type_description
_atom_site_fract_x
_atom_site_fract_y
_atom_site_fract_z
_atom_type_partial_charge
C1    C     C_R   0.000746 0.262294 0.504216 0.797973
C2    C     C_R   0.678263 0.455678 0.911527 0.124504
C3    C     C_R   0.777304 0.483785 0.960121 0.143919
C4    C     C_R   0.531007 0.433140 0.958885 0.000153
C5    C     C_R   0.482126 0.453917 0.052478 0.056750
C6    C     C_R   0.585231 0.478614 0.098721 -0.198671
C7    C     C_R   0.729949 0.492606 0.053250 -0.249479
C8    C     C_R   0.431797 0.388900 0.916188 -0.318258
C9    C     C_R   0.287130 0.369461 0.962880 0.455104
C10   C     C_R   0.235124 0.402869 0.052491 0.057628
C11   C     C_R   0.331973 0.447344 0.097254 0.024215
C12   C     C_R   0.918252 0.493294 0.672238 0.833345
C13   C     C_R   0.087631 0.391425 0.098637 -0.192967
C14   C     C_R   0.035249 0.425452 0.187489 -0.231054
C15   C     C_R   0.274954 0.486184 0.185251 -0.225484
C16   C     C_R   0.175480 0.106221 0.605802 -0.161750
C17   C     C_R   0.244148 0.032057 0.659012 -0.268867
C18   C     C_R   0.211131 0.908133 0.676292 -0.217756
C19   C     C_R   0.113828 0.856760 0.636988 0.555466
C20   C     C_R   0.065167 0.925513 0.569332 -0.077811
C21   C     C_R   0.083832 0.054964 0.560193 0.041493
C22   C     C_R   0.001891 0.127625 0.511221 -0.147288
C23   C     C_R   0.994843 0.737052 0.505979 0.912350
C24   C     C_R   0.904858 0.071278 0.474463 -0.294494
C25   C     C_R   0.890777 0.944731 0.480899 0.457174
C26   C     C_R   0.982634 0.870284 0.519587 -0.223099
C27   C     C_R   0.694638 0.642655 0.355171 0.542354
C28   C     C_R   0.640865 0.686632 0.282007 -0.287083
C29   C     C_R   0.496232 0.693896 0.291699 -0.325484
C30   C     C_R   0.402975 0.646580 0.369734 -0.146545
C31   C     C_R   0.450271 0.571015 0.434163 0.163318
C32   C     C_R   0.601360 0.569923 0.430944 0.079672
C33   C     C_R   0.548018 0.434425 0.563684 -0.060685
C34   C     C_R   0.082206 0.494497 0.328228 0.798938
C35   C     C_R   0.400842 0.434129 0.563410 -0.055197
C36   C     C_R   0.873528 0.481436 0.771560 -0.085143
C37   C     C_R   0.129209 0.472474 0.231371 -0.054156
C38   C     C_R   0.922930 0.504294 0.914882 -0.180751
C39   C     C_R   0.971398 0.500746 0.821375 -0.107841
C40   C     C_R   0.728895 0.457188 0.816722 -0.287947
Cu1   Cu    Cu3+1 0.140660 0.499990 0.500010 0.952014
Cu2   Cu    Cu3+1 0.859340 0.500010 0.499990 0.979027
H1    H     H_    0.804788 0.512913 0.091248 0.140429
H2    H     H_    0.314201 0.072993 0.692874 0.149697
H3    H     H_    0.250772 0.854463 0.726405 0.145518
H4    H     H_    0.455438 0.742240 0.239843 0.172950
H5    H     H_    0.922174 0.412497 0.222373 0.153903
H6    H     H_    0.083781 0.519452 0.787838 0.186161
H7    H     H_    0.656326 0.445575 0.776043 0.153476
N1    N     N_R   0.648320 0.501210 0.499140 -0.187630
N2    N     N_R   0.352470 0.501290 0.499110 -0.184563
O1    O     O_R   0.118810 0.319640 0.500010 -0.592022
O2    O     O_R   0.881240 0.319660 0.500000 -0.591338
O3    O     O_R   0.055570 0.499980 0.629840 -0.559308
O4    O     O_R   0.818000 0.500010 0.629830 -0.603124
O5    O     O_R   0.118760 0.680340 0.500000 -0.601474
O6    O     O_R   0.881190 0.680360 0.499990 -0.486223
O7    O     O_R   0.182000 0.499990 0.370170 -0.606182
O8    O     O_R   0.944430 0.500020 0.370160 -0.540065
H8    H     H_    0.012616 0.354160 0.066731 0.181206
H9    H     H_    0.838460 0.125837 0.439509 0.180210
H10   H     H_    0.193349 0.203132 0.604662 0.167775
O9    O     O_3   0.041251 0.752274 0.679064 -0.589363
C41   C     C_3   0.924537 0.789404 0.751401 -0.377286
H11   H     H_    0.837259 0.721412 0.764902 0.193130
H12   H     H_    0.873686 0.879380 0.737114 0.150369
H13   H     H_    0.960875 0.793585 0.813493 0.179879
O10   O     O_3   0.791107 0.894805 0.444667 -0.547296
C42   C     C_3   0.653755 0.901154 0.507522 -0.236842
H14   H     H_    0.617057 0.998332 0.518437 0.141262
H15   H     H_    0.652827 0.851004 0.573073 0.150848
H16   H     H_    0.574792 0.856062 0.479998 0.186657
H17   H     H_    0.581337 0.380247 0.616058 0.125437
O11   O     O_3   0.823305 0.688891 0.361592 -0.494673
C43   C     C_3   0.915183 0.745543 0.281774 -0.256300
H18   H     H_    0.020605 0.762548 0.294357 0.150666
H19   H     H_    0.870997 0.836889 0.264995 0.178683
H20   H     H_    0.936639 0.684661 0.224315 0.121953
H21   H     H_    0.706963 0.731080 0.220388 0.151544
H22   H     H_    0.342012 0.528947 0.219446 0.154806
H23   H     H_    0.294237 0.671124 0.374498 0.207047
H24   H     H_    0.325078 0.380460 0.615984 0.118933
O12   O     O_3   0.193491 0.328511 0.917670 -0.594722
C44   C     C_3   0.213573 0.200388 0.909827 -0.354285
H25   H     H_    0.196071 0.150347 0.977318 0.163197
H26   H     H_    0.322309 0.177969 0.865417 0.156144
H27   H     H_    0.132718 0.166978 0.878154 0.196687
H28   H     H_    0.998842 0.526186 0.951647 0.155819
H29   H     H_    0.558289 0.483793 0.170983 0.158065
H30   H     H_    0.463844 0.364307 0.846893 0.152655

loop_
_geom_bond_atom_site_label_1
_geom_bond_atom_site_label_2
_ccdc_geom_bond_type
C8    C9    A    
C16   C21   A    
C34   C37   S    
Cu1   Cu2   S    
C19   C20   A    
C44   H27   S    
C4    C8    A    
C23   O5    A    
C13   H8    S    
C31   C32   A    
C24   H9    S    
C5    C6    A    
C28   C29   A    
C44   H26   S    
Cu1   O7    S    
C5    C11   A    
C3    C7    A    
Cu2   O2    S    
C30   C31   A    
C40   H7    S    
C18   C19   A    
C23   C26   S    
C42   H15   S    
C28   H21   S    
C1    O2    A    
C15   C37   A    
C11   C15   A    
C15   H22   S    
C3    C38   A    
C19   O9    S    
C16   C17   A    
C7    H1    S    
C12   C36   S    
C27   O11   S    
C9    C10   A    
Cu1   O1    S    
C1    C22   S    
C21   C22   A    
C25   O10   S    
C16   H10   S    
Cu2   O6    S    
C1    O1    A    
C35   H24   S    
O11   C43   S    
C41   H13   S    
C36   C40   A    
C24   C25   A    
O10   C42   S    
C25   C26   A    
C38   H28   S    
C41   H12   S    
C42   H16   S    
C2    C4    A    
C43   H18   S    
Cu1   O5    S    
C29   C30   A    
Cu2   O4    S    
O12   C44   S    
C17   C18   A    
C44   H25   S    
C43   H19   S    
C32   N1    A    
C14   H5    S    
Cu2   N1    S    
C33   H17   S    
C9    O12   S    
C35   N2    A    
C34   O8    A    
C22   C24   A    
C8    H30   S    
C18   H3    S    
C23   O6    A    
C27   C32   A    
C36   C39   A    
C31   N2    A    
C4    C5    A    
C10   C13   A    
Cu2   O8    S    
C6    C7    A    
C6    H29   S    
C29   H4    S    
C41   H11   S    
C30   H23   S    
C2    C3    A    
C33   N1    A    
C17   H2    S    
C14   C37   A    
C38   C39   A    
C20   C26   A    
C33   C35   A    
C42   H14   S    
C43   H20   S    
Cu1   O3    S    
C12   O4    A    
C10   C11   A    
O9    C41   S    
C2    C40   A    
C20   C21   A    
C27   C28   A    
C34   O7    A    
C13   C14   A    
Cu1   N2    S    
C12   O3    A    
C39   H6    S    
