data_mof_unit_37137.cif
_audit_creation_date              2012-10-26T20:21:29-0400
_audit_creation_method            fapswitch 2.2
_symmetry_space_group_name_H-M    P1
_symmetry_Int_Tables_number       1
_space_group_crystal_system       triclinic
_cell_length_a                    10.855843
_cell_length_b                    9.726097
_cell_length_c                    11.630012
_cell_angle_alpha                 89.939279
_cell_angle_beta                  93.45884
_cell_angle_gamma                 90.068104
_cell_volume                      1225.7162956

loop_
_atom_site_label
_atom_site_type_symbol
_atom_type_description
_atom_site_fract_x
_atom_site_fract_y
_atom_site_fract_z
_atom_type_partial_charge
C1    C     C_R   0.262804 0.499951 0.502543 0.546215
C2    C     C_R   0.936366 0.624221 0.496015 -0.146188
C3    C     C_R   0.936019 0.375832 0.495139 -0.146798
C4    C     C_R   0.063981 0.624168 0.504861 -0.146798
C5    C     C_R   0.871294 0.500058 0.494942 0.023734
C6    C     C_R   0.128706 0.499942 0.505058 0.023734
C7    C     C_R   0.440991 0.073807 0.411691 0.067453
C8    C     C_R   0.559008 0.926193 0.588309 0.067453
C9    C     C_R   0.558750 0.073731 0.588442 0.067080
C10   C     C_R   0.441250 0.926269 0.411558 0.067080
C11   C     C_R   0.369241 0.143720 0.316089 0.089819
C12   C     C_R   0.737196 0.500049 0.497457 0.546215
C13   C     C_R   0.242724 0.165611 0.324871 -0.069920
C14   C     C_R   0.169529 0.215220 0.230918 -0.115202
C15   C     C_R   0.221341 0.237150 0.125375 -0.104233
C16   C     C_R   0.345869 0.207773 0.113549 -0.112658
C17   C     C_R   0.419681 0.160821 0.208263 -0.074777
C18   C     C_R   0.630758 0.856280 0.683911 0.089819
C19   C     C_R   0.580318 0.839180 0.791737 -0.074777
C20   C     C_R   0.654129 0.792228 0.886451 -0.112658
C21   C     C_R   0.778656 0.762850 0.874626 -0.104233
C22   C     C_R   0.830470 0.784780 0.769084 -0.115202
C23   C     C_R   0.500302 0.500053 0.284605 0.556562
C24   C     C_R   0.757275 0.834389 0.675130 -0.069920
C25   C     C_R   0.627991 0.143673 0.685500 0.089333
C26   C     C_R   0.754285 0.169275 0.678804 -0.067774
C27   C     C_R   0.824959 0.219128 0.774240 -0.115010
C28   C     C_R   0.770901 0.237685 0.879097 -0.104188
C29   C     C_R   0.646608 0.204944 0.888698 -0.112488
C30   C     C_R   0.575217 0.157973 0.792487 -0.076053
C31   C     C_R   0.372009 0.856327 0.314500 0.089333
C32   C     C_R   0.424782 0.842027 0.207513 -0.076053
C33   C     C_R   0.353390 0.795055 0.111303 -0.112488
C34   C     C_R   0.499698 0.499947 0.715395 0.556562
C35   C     C_R   0.229097 0.762315 0.120904 -0.104188
C36   C     C_R   0.175040 0.780873 0.225762 -0.115010
C37   C     C_R   0.245714 0.830725 0.321197 -0.067774
C38   C     C_1   0.501173 0.500116 0.162796 -0.017515
C39   C     C_1   0.498827 0.499884 0.837204 -0.017515
C40   C     C_1   0.500762 0.500047 0.060005 -0.070236
C41   C     C_1   0.499237 0.499953 0.939995 -0.070236
C42   C     C_R   0.063634 0.375779 0.503986 -0.146187
Cu1   Cu    Cu3+1 0.500000 0.640660 0.500000 0.948025
Cu2   Cu    Cu3+1 0.500000 0.359340 0.500000 0.948025
H1    H     H_    0.110643 0.278645 0.511109 0.117172
H2    H     H_    0.484253 0.863168 0.802290 0.088553
H3    H     H_    0.614980 0.779147 0.969131 0.103365
H4    H     H_    0.835582 0.726171 0.947886 0.103814
H5    H     H_    0.927992 0.767201 0.760949 0.103964
H6    H     H_    0.799595 0.863425 0.597216 0.079352
H7    H     H_    0.798508 0.143108 0.601333 0.081109
H8    H     H_    0.922330 0.239538 0.767750 0.104049
H9    H     H_    0.825915 0.274511 0.953495 0.104018
H10   H     H_    0.605725 0.215599 0.970776 0.102608
H11   H     H_    0.479293 0.131528 0.801277 0.087921
H12   H     H_    0.889356 0.721355 0.488892 0.117172
H13   H     H_    0.520706 0.868471 0.198723 0.087921
H14   H     H_    0.394273 0.784400 0.029224 0.102608
H15   H     H_    0.174083 0.725489 0.046506 0.104018
H16   H     H_    0.077669 0.760463 0.232252 0.104049
H17   H     H_    0.201492 0.856893 0.398668 0.081109
H18   H     H_    0.888759 0.278721 0.487284 0.116391
H19   H     H_    0.111241 0.721279 0.512716 0.116391
H20   H     H_    0.200405 0.136575 0.402785 0.079352
H21   H     H_    0.072007 0.232798 0.239053 0.103964
H22   H     H_    0.164415 0.273828 0.052115 0.103813
H23   H     H_    0.385017 0.220854 0.030869 0.103365
H24   H     H_    0.515745 0.136832 0.197709 0.088553
N1    N     N_R   0.500000 0.852070 0.500000 -0.251103
N2    N     N_R   0.500000 0.147930 0.500000 -0.251103
O1    O     O_R   0.319640 0.618740 0.499990 -0.506001
O2    O     O_R   0.680360 0.381260 0.500010 -0.506001
O3    O     O_R   0.680360 0.618740 0.500010 -0.505058
O4    O     O_R   0.319640 0.381260 0.499990 -0.505058
O5    O     O_R   0.500010 0.618790 0.337200 -0.492191
O6    O     O_R   0.499990 0.381210 0.662800 -0.492191
O7    O     O_R   0.499990 0.618790 0.662800 -0.493142
O8    O     O_R   0.500010 0.381210 0.337200 -0.493142

loop_
_geom_bond_atom_site_label_1
_geom_bond_atom_site_label_2
_ccdc_geom_bond_type
Cu1   O3    S    
C7    C10   A    
C3    C42   A    
C33   H14   S    
C35   C36   A    
C7    N2    A    
C19   H2    S    
C9    C25   S    
C39   C41   T    
C7    C11   S    
C4    H19   S    
C26   C27   A    
C1    O1    A    
C18   C24   A    
C1    O4    A    
C21   C22   A    
C28   C29   A    
C34   O7    A    
C29   H10   S    
C15   C16   A    
C35   H15   S    
C18   C19   A    
Cu2   O6    S    
C10   C31   S    
C11   C17   A    
C19   C20   A    
C8    C9    A    
Cu2   N2    S    
C21   H4    S    
C12   O2    A    
Cu1   N1    S    
C13   C14   A    
Cu1   O5    S    
C32   H13   S    
C24   H6    S    
C34   C39   S    
C9    N2    A    
C5    C12   S    
C4    C6    A    
C16   C17   A    
C3    C5    A    
C25   C26   A    
C15   H22   S    
C8    C18   S    
C31   C37   A    
C42   H1    S    
C2    C4    A    
Cu1   Cu2   S    
C29   C30   A    
C31   C32   A    
C8    N1    A    
C16   H23   S    
Cu2   O4    S    
C22   H5    S    
C40   C41   S    
C22   C24   A    
C2    C5    A    
C27   C28   A    
C27   H8    S    
C3    H18   S    
C25   C30   A    
C36   C37   A    
C17   H24   S    
Cu1   O1    S    
C23   O5    A    
C36   H16   S    
C37   H17   S    
C28   H9    S    
Cu1   O7    S    
C23   C38   S    
C30   H11   S    
C32   C33   A    
Cu2   O8    S    
C2    H12   S    
C26   H7    S    
C38   C40   T    
C11   C13   A    
C13   H20   S    
C33   C35   A    
C14   H21   S    
Cu2   O2    S    
C23   O8    A    
C20   H3    S    
C10   N1    A    
C20   C21   A    
C6    C42   A    
C1    C6    S    
C14   C15   A    
C12   O3    A    
C34   O6    A    
