data_mof_unit_12731.cif
_audit_creation_date              2012-12-10T17:03:29-0500
_audit_creation_method            fapswitch 2.2
_symmetry_space_group_name_H-M    P1
_symmetry_Int_Tables_number       1
_space_group_crystal_system       triclinic
_cell_length_a                    15.150757
_cell_length_b                    15.133754
_cell_length_c                    17.712128
_cell_angle_alpha                 97.985645
_cell_angle_beta                  80.944184
_cell_angle_gamma                 90.071726
_cell_volume                      3970.78158973

loop_
_atom_site_label
_atom_site_type_symbol
_atom_type_description
_atom_site_fract_x
_atom_site_fract_y
_atom_site_fract_z
_atom_type_partial_charge
C1    C     C_R   0.261458 0.484233 0.488850 0.811872
C2    C     C_R   0.608118 0.441605 0.921564 -0.030654
C3    C     C_R   0.630235 0.380777 0.968159 -0.282986
C4    C     C_R   0.735970 0.518902 0.512968 0.825875
C5    C     C_R   0.604743 0.395803 0.048269 0.089852
C6    C     C_R   0.564883 0.479721 0.083380 0.080695
C7    C     C_R   0.623308 0.330681 0.094486 0.011709
C8    C     C_R   0.605170 0.350973 0.174776 -0.265304
C9    C     C_R   0.550363 0.498086 0.164661 -0.273008
C10   C     C_R   0.165062 0.479608 0.483515 -0.121114
C11   C     C_R   0.829576 0.525911 0.518112 -0.080228
C12   C     C_R   0.411602 0.664271 0.821672 -0.270608
C13   C     C_R   0.948246 0.588903 0.582423 -0.278629
C14   C     C_R   0.858550 0.590174 0.573802 -0.034291
C15   C     C_R   0.890100 0.466891 0.467001 -0.092940
C16   C     C_R   0.513333 0.261813 0.510469 0.805601
C17   C     C_R   0.981646 0.471523 0.472154 0.106554
C18   C     C_R   0.010624 0.530180 0.532486 0.092679
C19   C     C_R   0.101525 0.530092 0.541087 -0.084046
C20   C     C_R   0.135376 0.425732 0.420528 -0.036090
C21   C     C_R   0.044506 0.419652 0.417486 -0.264800
C22   C     C_R   0.525742 0.165575 0.509278 -0.172414
C23   C     C_R   0.490084 0.530118 0.835326 -0.246702
C24   C     C_R   0.483123 0.832349 0.483267 -0.198825
C25   C     C_R   0.405603 0.959398 0.449793 0.409273
C26   C     C_R   0.412503 0.866450 0.451436 -0.179645
C27   C     C_R   0.547271 0.889247 0.512908 0.373754
C28   C     C_R   0.488414 0.737307 0.487236 0.827132
C29   C     C_R   0.540202 0.980930 0.510708 -0.039948
C30   C     C_R   0.468661 0.016161 0.480747 0.024058
C31   C     C_R   0.461785 0.108502 0.481463 -0.228818
C32   C     C_R   0.600070 0.129419 0.534979 0.397459
C33   C     C_R   0.604576 0.038356 0.538034 -0.130710
C34   C     C_R   0.504181 0.565777 0.909882 0.066889
C35   C     C_R   0.550627 0.454391 0.292889 0.796151
C36   C     C_R   0.451262 0.546483 0.707742 0.794155
C37   C     C_R   0.446556 0.579256 0.790468 -0.053482
C38   C     C_R   0.570725 0.434628 0.209310 -0.013198
C39   C     C_R   0.419698 0.700260 0.897432 -0.005081
C40   C     C_R   0.658799 0.239908 0.061167 0.116939
C41   C     C_R   0.739342 0.209057 0.079157 -0.164590
C42   C     C_R   0.772244 0.123084 0.048635 -0.133215
C43   C     C_R   0.724956 0.067291 0.000180 -0.103584
C44   C     C_R   0.644507 0.097260 0.982376 -0.141641
C45   C     C_R   0.463768 0.649812 0.942819 0.119494
C46   C     C_R   0.611147 0.183055 0.013034 -0.170981
C47   C     C_R   0.128617 0.578370 0.612656 0.150807
C48   C     C_R   0.142447 0.670778 0.620052 -0.117746
C49   C     C_R   0.171121 0.715011 0.686248 -0.126563
C50   C     C_R   0.186050 0.667376 0.745381 -0.094186
C51   C     C_R   0.172339 0.575445 0.738460 -0.124659
C52   C     C_R   0.143596 0.530933 0.672335 -0.149868
C53   C     C_R   0.197084 0.376050 0.355212 0.159175
C54   C     C_R   0.204057 0.282594 0.347007 -0.134117
C55   C     C_R   0.264479 0.236106 0.286749 -0.129707
C56   C     C_R   0.550697 0.515985 0.954659 0.015981
C57   C     C_R   0.317742 0.282520 0.234160 -0.096259
C58   C     C_R   0.310258 0.375462 0.241420 -0.109612
C59   C     C_R   0.249907 0.422137 0.301544 -0.127104
C60   C     C_R   0.799053 0.663917 0.619370 0.101442
C61   C     C_R   0.824565 0.752991 0.616421 -0.137532
C62   C     C_R   0.770469 0.823421 0.658703 -0.085269
C63   C     C_R   0.690473 0.805871 0.704634 -0.091667
C64   C     C_R   0.664419 0.717873 0.708295 -0.173295
C65   C     C_R   0.718227 0.647290 0.666019 -0.184109
C66   C     C_R   0.856202 0.400305 0.409018 0.086438
C67   C     C_R   0.538332 0.540775 0.036124 0.071449
C68   C     C_R   0.838617 0.313213 0.425075 -0.159579
C69   C     C_R   0.802869 0.251688 0.372116 -0.150102
C70   C     C_R   0.784443 0.276850 0.303085 -0.138243
C71   C     C_R   0.802080 0.363495 0.286735 -0.151783
C72   C     C_R   0.837981 0.425153 0.339478 -0.111075
C73   C     C_R   0.346596 0.804572 0.419867 0.137995
C74   C     C_R   0.256466 0.809333 0.454742 -0.128061
C75   C     C_R   0.194562 0.751854 0.424174 -0.146596
C76   C     C_R   0.222324 0.688571 0.359488 -0.106956
C77   C     C_R   0.312013 0.682958 0.324804 -0.165857
C78   C     C_R   0.498541 0.625144 0.067300 -0.224298
C79   C     C_R   0.373961 0.740912 0.354622 -0.158994
C80   C     C_R   0.383236 0.791454 0.926578 0.112203
C81   C     C_R   0.290823 0.808716 0.936460 -0.160368
C82   C     C_R   0.256517 0.895067 0.963306 -0.136784
C83   C     C_R   0.314209 0.964596 0.980283 -0.105572
C84   C     C_R   0.406328 0.947918 0.970327 -0.135989
C85   C     C_R   0.440935 0.861692 0.943336 -0.171438
C86   C     C_R   0.662154 0.434620 0.843398 0.118139
C87   C     C_R   0.660701 0.356949 0.789885 -0.180322
C88   C     C_R   0.719052 0.346873 0.719603 -0.076492
C89   C     C_R   0.464643 0.679415 0.021142 -0.239046
C90   C     C_R   0.781016 0.412767 0.703237 -0.095654
C91   C     C_R   0.783988 0.489334 0.756795 -0.170437
C92   C     C_R   0.723739 0.501142 0.825999 -0.131555
H1    H     H_    0.434067 0.742699 0.048816 0.164692
H2    H     H_    0.510438 0.462390 0.811703 0.173096
H3    H     H_    0.492400 0.651945 0.127472 0.143474
H4    H     H_    0.776861 0.251783 0.116295 0.121919
H5    H     H_    0.834483 0.099761 0.062470 0.127575
H6    H     H_    0.750602 0.000817 0.976486 0.121277
H7    H     H_    0.608010 0.053950 0.944849 0.121543
H8    H     H_    0.548342 0.205233 0.999317 0.127848
H9    H     H_    0.131065 0.708195 0.574666 0.114525
H10   H     H_    0.181889 0.786173 0.691654 0.123140
H11   H     H_    0.208240 0.701711 0.796519 0.112252
H12   H     H_    0.968786 0.636559 0.627394 0.156553
H13   H     H_    0.184284 0.538663 0.784223 0.124057
H14   H     H_    0.133741 0.459587 0.667225 0.116074
H15   H     H_    0.163673 0.246069 0.387809 0.132038
H16   H     H_    0.270282 0.164122 0.281011 0.144491
H17   H     H_    0.364772 0.246496 0.187790 0.125864
H18   H     H_    0.351536 0.411366 0.200717 0.127602
H19   H     H_    0.245075 0.494033 0.306951 0.102498
H20   H     H_    0.886186 0.767959 0.580868 0.125700
H21   H     H_    0.790535 0.891676 0.655732 0.132685
H22   H     H_    0.648656 0.860439 0.737322 0.131420
H23   H     H_    0.023795 0.376543 0.369549 0.164338
H24   H     H_    0.602614 0.704270 0.744162 0.146128
H25   H     H_    0.696785 0.580159 0.670992 0.177693
H26   H     H_    0.851713 0.293475 0.478818 0.140726
H27   H     H_    0.788972 0.184654 0.384775 0.145323
H28   H     H_    0.756396 0.229239 0.262370 0.127726
H29   H     H_    0.787585 0.383003 0.233384 0.134366
H30   H     H_    0.850738 0.492349 0.326661 0.139282
H31   H     H_    0.680943 0.227006 0.522168 0.338695
H32   H     H_    0.312762 0.950785 0.383531 0.342853
H33   H     H_    0.234255 0.857807 0.505166 0.136438
H34   H     H_    0.405904 0.136784 0.460861 0.228295
H35   H     H_    0.124940 0.756445 0.450483 0.124125
H36   H     H_    0.174156 0.644236 0.336104 0.124261
H37   H     H_    0.333506 0.634088 0.274542 0.119869
H38   H     H_    0.443120 0.736425 0.326832 0.129186
H39   H     H_    0.607050 0.796414 0.555815 0.340236
H40   H     H_    0.245470 0.755226 0.924144 0.120957
H41   H     H_    0.185192 0.908045 0.971101 0.126498
H42   H     H_    0.287546 0.031376 0.001161 0.121150
H43   H     H_    0.450837 0.001843 0.983509 0.125081
H44   H     H_    0.512469 0.849567 0.935477 0.127210
H45   H     H_    0.520674 0.559885 0.195685 0.124820
H46   H     H_    0.614741 0.304256 0.802901 0.133303
H47   H     H_    0.717348 0.287254 0.678451 0.182101
H48   H     H_    0.827003 0.404321 0.649272 0.138059
H49   H     H_    0.832710 0.539859 0.744463 0.147500
H50   H     H_    0.727275 0.560508 0.867229 0.133249
H51   H     H_    0.661076 0.012603 0.559538 0.210487
H52   H     H_    0.618051 0.301418 0.210668 0.144628
H53   H     H_    0.672589 0.323709 0.941458 0.170604
H54   H     H_    0.380623 0.704083 0.786264 0.170447
O1    O     O_3   0.500000 0.500000 0.500000 -0.487352
O2    O     O_R   0.491950 0.408270 0.329190 -0.632837
O3    O     O_R   0.405000 0.584780 0.666010 -0.637635
O4    O     O_R   0.590360 0.518280 0.328620 -0.638638
O5    O     O_R   0.512690 0.488670 0.676180 -0.643115
O6    O     O_3   0.670621 0.179685 0.555721 -0.792588
O7    O     O_3   0.339661 0.996991 0.417502 -0.793780
O8    O     O_3   0.616951 0.858317 0.545176 -0.782213
O9    O     O_R   0.549580 0.316560 0.557500 -0.625954
O10   O     O_R   0.428830 0.702690 0.532220 -0.634406
O11   O     O_R   0.316580 0.425590 0.448670 -0.631173
O12   O     O_R   0.705010 0.555150 0.461620 -0.633841
O13   O     O_R   0.290360 0.547900 0.533020 -0.623058
O14   O     O_R   0.688060 0.471350 0.556700 -0.658758
O15   O     O_R   0.468110 0.290360 0.462980 -0.642796
O16   O     O_R   0.553470 0.690390 0.447300 -0.638000
Zn1   Zn    Zn3+2 0.561520 0.445100 0.571350 0.966208
Zn2   Zn    Zn3+2 0.445110 0.407660 0.436320 0.982872
Zn3   Zn    Zn3+2 0.585720 0.564830 0.435510 0.979281
Zn4   Zn    Zn3+2 0.407650 0.582410 0.556820 0.982485

loop_
_geom_bond_atom_site_label_1
_geom_bond_atom_site_label_2
_ccdc_geom_bond_type
C66   C68   A    
C87   C88   A    
C84   H43   S    
C34   C56   A    
C64   H24   S    
C27   C29   A    
C41   C42   A    
C43   H6    S    
C21   H23   S    
C6    C9    A    
C81   C82   A    
C53   C59   A    
C28   O16   A    
C7    C8    A    
C53   C54   A    
C33   H51   S    
C40   C46   A    
C62   C63   A    
C22   C32   A    
C54   H15   S    
C5    C6    A    
C36   C37   S    
C24   C26   A    
O1    Zn2   S    
C30   C31   A    
C44   H7    S    
C19   C47   S    
C36   O3    A    
C74   H33   S    
C29   C33   A    
C26   C73   S    
C18   C19   A    
C73   C74   A    
C12   H54   S    
C12   C37   A    
C83   H42   S    
O1    Zn3   S    
C68   H26   S    
H31   O6    S    
C63   H22   S    
C9    H45   S    
C4    O12   A    
C83   C84   A    
C10   C20   A    
C68   C69   A    
C59   H19   S    
C7    C40   S    
C24   C27   A    
C70   C71   A    
C35   O4    A    
C29   C30   A    
C45   C89   A    
C78   H3    S    
C39   C45   A    
C27   O8    S    
C52   H14   S    
C50   H11   S    
C13   C14   A    
C15   C66   S    
C61   C62   A    
C67   C78   A    
C8    C38   A    
C44   C46   A    
C50   C51   A    
C57   C58   A    
C77   C79   A    
C78   C89   A    
C66   C72   A    
C22   C31   A    
C1    C10   S    
C25   O7    S    
C51   C52   A    
O2    Zn2   S    
O14   Zn1   S    
C1    O13   A    
C35   C38   S    
C76   C77   A    
C62   H21   S    
C74   C75   A    
C42   H5    S    
C70   H28   S    
C91   C92   A    
C5    C7    A    
C86   C87   A    
C80   C81   A    
C81   H40   S    
O9    Zn1   S    
C25   C26   A    
C23   C37   A    
C79   H38   S    
C69   H27   S    
C17   C21   A    
C32   C33   A    
C57   H17   S    
C60   C61   A    
C13   H12   S    
C75   C76   A    
C88   H47   S    
C80   C85   A    
O1    Zn4   S    
O16   Zn3   S    
C47   C48   A    
C32   O6    S    
O10   Zn4   S    
C10   C19   A    
C51   H13   S    
C23   C34   A    
C16   O9    A    
C17   C18   A    
C73   C79   A    
C8    H52   S    
C34   C45   A    
C77   H37   S    
C84   C85   A    
C4    C11   S    
O11   Zn2   S    
O1    Zn1   S    
C13   C18   A    
C48   C49   A    
C88   C90   A    
C60   C65   A    
C3    H53   S    
C11   C15   A    
C55   C57   A    
C43   C44   A    
C76   H36   S    
C42   C43   A    
C87   H46   S    
C86   C92   A    
C49   H10   S    
O15   Zn2   S    
C92   H50   S    
C25   C30   A    
C15   C17   A    
C46   H8    S    
C54   C55   A    
C6    C67   A    
C16   C22   S    
C72   H30   S    
C58   H18   S    
C71   H29   S    
H39   O8    S    
O3    Zn4   S    
C24   C28   S    
C20   C53   S    
C3    C5    A    
C90   H48   S    
C23   H2    S    
C36   O5    A    
C47   C52   A    
C16   O15   A    
C56   C67   A    
C14   C60   S    
O5    Zn1   S    
O13   Zn4   S    
C55   H16   S    
C39   C80   S    
C12   C39   A    
C1    O11   A    
C2    C3    A    
C58   C59   A    
C71   C72   A    
C2    C56   A    
C64   C65   A    
O4    Zn3   S    
C90   C91   A    
C4    O14   A    
C82   H41   S    
C48   H9    S    
C9    C38   A    
C11   C14   A    
C2    C86   S    
C75   H35   S    
C35   O2    A    
C89   H1    S    
C69   C70   A    
C85   H44   S    
C63   C64   A    
C41   H4    S    
C20   C21   A    
C49   C50   A    
C28   O10   A    
C65   H25   S    
C40   C41   A    
C31   H34   S    
C82   C83   A    
H32   O7    S    
C61   H20   S    
O12   Zn3   S    
C91   H49   S    
