data_mof_unit_52938.cif
_audit_creation_date              2012-12-11T16:07:27-0500
_audit_creation_method            fapswitch 2.2
_symmetry_space_group_name_H-M    P1
_symmetry_Int_Tables_number       1
_space_group_crystal_system       triclinic
_cell_length_a                    17.229864
_cell_length_b                    17.230351
_cell_length_c                    17.334052
_cell_angle_alpha                 89.999215
_cell_angle_beta                  90.012279
_cell_angle_gamma                 89.998396
_cell_volume                      5146.07437762

loop_
_atom_site_label
_atom_site_type_symbol
_atom_type_description
_atom_site_fract_x
_atom_site_fract_y
_atom_site_fract_z
_atom_type_partial_charge
C1    C     C_R   0.413649 0.678152 0.639609 0.449946
C2    C     C_R   0.609566 0.699689 0.598915 0.441950
C3    C     C_3   0.754076 0.245645 0.674260 0.537728
C4    C     C_3   0.754451 0.754035 0.325717 0.538133
C5    C     C_3   0.215243 0.219213 0.688556 0.620292
C6    C     C_3   0.786583 0.221279 0.311305 0.620353
C7    C     C_3   0.245780 0.754055 0.674366 0.538053
C8    C     C_3   0.724184 0.711054 0.810998 0.620654
C9    C     C_3   0.254282 0.254438 0.174080 0.537958
C10   C     C_3   0.745836 0.254430 0.825832 0.537830
C11   C     C_3   0.280187 0.714821 0.188816 0.620526
C12   C     C_3   0.284686 0.280716 0.811225 0.620315
C13   C     C_R   0.699704 0.390440 0.401131 0.440423
C14   C     C_3   0.745421 0.745860 0.174142 0.538263
C15   C     C_3   0.254463 0.745681 0.825933 0.538262
C16   C     C_3   0.713448 0.278690 0.188782 0.620334
C17   C     C_R   0.321878 0.586345 0.639628 0.452366
C18   C     C_R   0.586410 0.678269 0.360503 0.451361
C19   C     C_R   0.390445 0.300260 0.598734 0.437376
C20   C     C_R   0.300249 0.609558 0.401291 0.437116
C21   C     C_R   0.678227 0.413597 0.639544 0.454242
C22   C     C_R   0.890487 0.199730 0.098817 0.436717
C23   C     C_R   0.086500 0.821692 0.860534 0.450004
C24   C     C_R   0.178301 0.086487 0.139482 0.452740
C25   C     C_R   0.609527 0.300263 0.401229 0.436948
C26   C     C_R   0.800259 0.890528 0.901171 0.436193
C27   C     C_R   0.109549 0.800297 0.098903 0.438602
C28   C     C_R   0.913540 0.178214 0.860453 0.452692
C29   C     C_R   0.821770 0.913509 0.139522 0.451778
C30   C     C_R   0.199703 0.109543 0.901104 0.438898
C31   C     C_R   0.890452 0.800321 0.901018 0.441645
C32   C     C_R   0.086488 0.178263 0.139505 0.453588
C33   C     C_R   0.178275 0.913494 0.860513 0.452414
C34   C     C_R   0.800304 0.109550 0.098914 0.440260
C35   C     C_R   0.109525 0.199720 0.901149 0.437429
C36   C     C_R   0.699752 0.609487 0.598768 0.436309
C37   C     C_R   0.913512 0.821664 0.139433 0.451314
C38   C     C_R   0.821716 0.086450 0.860506 0.454158
C39   C     C_R   0.199728 0.890476 0.098846 0.436951
C40   C     C_3   0.299232 0.299282 0.278902 -0.071583
C41   C     C_3   0.720451 0.720076 0.686877 -0.094891
C42   C     C_3   0.279648 0.720206 0.313201 -0.095709
C43   C     C_3   0.700853 0.299196 0.720994 -0.071890
C44   C     C_3   0.700784 0.700876 0.279023 -0.070200
C45   C     C_3   0.279780 0.279672 0.686817 -0.095912
C46   C     C_3   0.720143 0.279642 0.313106 -0.095703
C47   C     C_R   0.321844 0.413667 0.360385 0.452722
C48   C     C_3   0.299268 0.700746 0.721100 -0.069967
C49   C     C_3   0.779589 0.779964 0.813009 -0.094838
C50   C     C_3   0.200995 0.200973 0.220829 -0.071682
C51   C     C_3   0.799058 0.200881 0.779098 -0.071888
C52   C     C_3   0.220275 0.779866 0.187032 -0.095455
C53   C     C_3   0.220148 0.220258 0.812967 -0.095703
C54   C     C_3   0.799086 0.799015 0.220837 -0.070221
C55   C     C_3   0.200982 0.798984 0.779194 -0.070068
C56   C     C_3   0.779888 0.220329 0.186979 -0.095684
C57   C     C_R   0.350287 0.649736 0.679085 -0.165802
C58   C     C_R   0.586406 0.321833 0.639590 0.452755
C59   C     C_R   0.684816 0.315110 0.381766 -0.019584
C60   C     C_R   0.684885 0.684740 0.618291 -0.020422
C61   C     C_R   0.350256 0.350303 0.320902 -0.163596
C62   C     C_R   0.649834 0.350222 0.679012 -0.163490
C63   C     C_R   0.315067 0.684879 0.381904 -0.017932
C64   C     C_R   0.315119 0.315084 0.618119 -0.018613
C65   C     C_R   0.649771 0.649876 0.321022 -0.165691
C66   C     C_R   0.815208 0.184869 0.118312 -0.019585
C67   C     C_R   0.149937 0.850029 0.821128 -0.165846
C68   C     C_R   0.149952 0.149919 0.178900 -0.163639
C69   C     C_R   0.390417 0.699726 0.401228 0.438581
C70   C     C_R   0.815147 0.815290 0.881603 -0.020482
C71   C     C_R   0.184870 0.815184 0.118319 -0.018407
C72   C     C_R   0.850088 0.149846 0.821055 -0.163536
C73   C     C_R   0.850117 0.850027 0.178878 -0.165736
C74   C     C_R   0.184822 0.184860 0.881679 -0.019029
C75   C     C_3   0.771564 0.675093 0.744640 -0.223466
C76   C     C_3   0.231707 0.322547 0.226282 -0.146829
C77   C     C_3   0.677541 0.231884 0.773833 -0.146141
C78   C     C_3   0.327391 0.760253 0.249314 -0.248090
C79   C     C_3   0.239085 0.327307 0.750380 -0.246341
C80   C     C_R   0.300276 0.390428 0.598773 0.439095
C81   C     C_3   0.767990 0.677527 0.226075 -0.145888
C82   C     C_3   0.322554 0.768259 0.773717 -0.148540
C83   C     C_3   0.674140 0.231669 0.253497 -0.230389
C84   C     C_3   0.758381 0.327615 0.248293 -0.251225
C85   C     C_3   0.231900 0.677447 0.773873 -0.145887
C86   C     C_3   0.677488 0.768489 0.226537 -0.148341
C87   C     C_3   0.326421 0.234062 0.747763 -0.235391
C88   C     C_3   0.233417 0.673726 0.252603 -0.233991
C89   C     C_3   0.768427 0.322465 0.773546 -0.145737
C90   C     C_3   0.322529 0.231897 0.226144 -0.145435
C91   C     C_R   0.678154 0.586426 0.360408 0.451812
C92   C     C_3   0.672158 0.754925 0.753327 -0.258951
C93   C     C_3   0.268518 0.177708 0.273447 -0.146850
C94   C     C_3   0.728477 0.824948 0.755246 -0.223501
C95   C     C_3   0.172530 0.739821 0.250920 -0.248098
C96   C     C_3   0.822369 0.268191 0.726258 -0.146199
C97   C     C_3   0.731881 0.822366 0.273784 -0.145929
C98   C     C_3   0.260841 0.172621 0.749404 -0.246344
C99   C     C_3   0.825892 0.268300 0.246588 -0.230431
C100  C     C_3   0.177694 0.731474 0.726581 -0.148535
C101  C     C_3   0.268347 0.822284 0.726424 -0.145905
C102  C     C_R   0.413648 0.321883 0.360364 0.453496
C103  C     C_3   0.741652 0.172354 0.251792 -0.251289
C104  C     C_3   0.173506 0.265867 0.752019 -0.235388
C105  C     C_3   0.822382 0.731404 0.273323 -0.148377
C106  C     C_3   0.731485 0.177611 0.726546 -0.145791
C107  C     C_3   0.266504 0.826348 0.247632 -0.233992
C108  C     C_3   0.827883 0.745115 0.746560 -0.259020
C109  C     C_3   0.177697 0.268357 0.273585 -0.145448
C110  C     C_3   0.245938 0.245812 0.325648 0.537777
C111  C     C_3   0.775857 0.788985 0.688887 0.620664
C112  C     C_3   0.219736 0.785251 0.311421 0.620493
Cl1   Cl    Cl    0.450860 0.772100 0.650745 -0.515666
Cl2   Cl    Cl    0.592177 0.786665 0.548830 -0.332933
Cl3   Cl    Cl    0.786676 0.407886 0.451218 -0.334963
Cl4   Cl    Cl    0.227954 0.549095 0.650824 -0.517732
Cl5   Cl    Cl    0.549320 0.772296 0.349616 -0.516429
Cl6   Cl    Cl    0.407956 0.213397 0.548502 -0.340084
Cl7   Cl    Cl    0.213421 0.592046 0.451569 -0.341632
Cl8   Cl    Cl    0.772213 0.450768 0.650557 -0.518132
Cl9   Cl    Cl    0.907894 0.286607 0.048574 -0.341457
Cl10  Cl    Cl    0.049350 0.727702 0.849548 -0.515046
Cl11  Cl    Cl    0.272310 0.049363 0.150435 -0.517340
Cl12  Cl    Cl    0.592064 0.213396 0.451480 -0.341439
Cl13  Cl    Cl    0.713425 0.907895 0.951497 -0.345214
Cl14  Cl    Cl    0.092190 0.713353 0.048764 -0.336532
Cl15  Cl    Cl    0.950746 0.272166 0.849329 -0.517489
Cl16  Cl    Cl    0.727846 0.950771 0.150717 -0.516613
Cl17  Cl    Cl    0.286665 0.092152 0.951223 -0.336465
Cl18  Cl    Cl    0.907775 0.713322 0.951079 -0.332955
Cl19  Cl    Cl    0.049296 0.272230 0.150549 -0.517836
Cl20  Cl    Cl    0.272235 0.950690 0.849446 -0.517110
Cl21  Cl    Cl    0.713316 0.092154 0.048843 -0.334917
Cl22  Cl    Cl    0.092112 0.286633 0.951324 -0.340055
Cl23  Cl    Cl    0.786563 0.592062 0.548417 -0.345266
Cl24  Cl    Cl    0.950555 0.727611 0.150253 -0.516082
Cl25  Cl    Cl    0.727692 0.049350 0.849593 -0.517767
Cl26  Cl    Cl    0.286616 0.907875 0.048638 -0.341635
Cl27  Cl    Cl    0.239857 0.239493 0.427943 -0.414340
Cl28  Cl    Cl    0.810493 0.841379 0.607503 -0.420689
Cl29  Cl    Cl    0.179103 0.832655 0.393079 -0.422231
Cl30  Cl    Cl    0.760051 0.239207 0.571961 -0.414077
Cl31  Cl    Cl    0.761108 0.759955 0.428018 -0.416896
Cl32  Cl    Cl    0.168501 0.177861 0.606860 -0.419050
Cl33  Cl    Cl    0.835803 0.182720 0.392913 -0.418347
Cl34  Cl    Cl    0.227873 0.450851 0.349307 -0.517952
Cl35  Cl    Cl    0.239410 0.760146 0.572071 -0.416758
Cl36  Cl    Cl    0.689540 0.658647 0.892369 -0.420644
Cl37  Cl    Cl    0.260321 0.260717 0.071783 -0.414023
Cl38  Cl    Cl    0.739875 0.260857 0.928132 -0.413876
Cl39  Cl    Cl    0.320837 0.667391 0.107183 -0.422188
Cl40  Cl    Cl    0.331453 0.322087 0.892895 -0.419024
Cl41  Cl    Cl    0.738784 0.739959 0.071840 -0.416676
Cl42  Cl    Cl    0.260788 0.739639 0.928230 -0.416414
Cl43  Cl    Cl    0.664217 0.317253 0.107181 -0.418325
Cl44  Cl    Cl    0.549160 0.227903 0.650767 -0.517759
Cl45  Cl    Cl    0.407884 0.786609 0.451441 -0.336575
Cl46  Cl    Cl    0.213370 0.407924 0.548588 -0.336462
Cl47  Cl    Cl    0.772041 0.549100 0.349102 -0.517017
Cl48  Cl    Cl    0.450869 0.227940 0.349200 -0.518337
H1    H     H_    0.789001 0.613234 0.740170 0.230902
H2    H     H_    0.218627 0.618590 0.796274 0.239198
H3    H     H_    0.618601 0.782033 0.204356 0.238918
H4    H     H_    0.389548 0.221322 0.745915 0.227294
H5    H     H_    0.220144 0.610720 0.254746 0.227591
H6    H     H_    0.781906 0.381329 0.795810 0.240825
H7    H     H_    0.381382 0.218621 0.203740 0.240394
H8    H     H_    0.607865 0.758436 0.755860 0.218977
H9    H     H_    0.281944 0.118849 0.295763 0.240059
H10   H     H_    0.711044 0.886807 0.759720 0.230797
H11   H     H_    0.108595 0.731853 0.251421 0.222612
H12   H     H_    0.218281 0.381405 0.203967 0.240090
H13   H     H_    0.881226 0.281396 0.703821 0.240113
H14   H     H_    0.718757 0.881231 0.296254 0.239056
H15   H     H_    0.269367 0.108759 0.749149 0.223448
H16   H     H_    0.888541 0.283042 0.243645 0.228828
H17   H     H_    0.118829 0.718056 0.704269 0.238586
H18   H     H_    0.281621 0.881140 0.704021 0.239176
H19   H     H_    0.735241 0.108253 0.253047 0.221720
H20   H     H_    0.110377 0.278603 0.753875 0.227188
H21   H     H_    0.881269 0.717859 0.295505 0.238889
H22   H     H_    0.718008 0.118743 0.704289 0.240774
H23   H     H_    0.618684 0.218681 0.796268 0.240149
H24   H     H_    0.279772 0.889355 0.245480 0.227400
H25   H     H_    0.892177 0.741605 0.744034 0.218812
H26   H     H_    0.118841 0.281630 0.295985 0.240375
H27   H     H_    0.391325 0.768224 0.248804 0.222736
H28   H     H_    0.230556 0.391169 0.750645 0.223636
H29   H     H_    0.781116 0.618665 0.203598 0.239093
H30   H     H_    0.381416 0.781678 0.796034 0.238604
H31   H     H_    0.611492 0.216924 0.256435 0.228966
H32   H     H_    0.764792 0.391716 0.247032 0.221833
N1    N     N_R   0.424590 0.632770 0.578330 -0.112915
N2    N     N_R   0.575410 0.632770 0.578330 -0.151066
N3    N     N_R   0.632770 0.424590 0.421670 -0.150571
N4    N     N_R   0.367230 0.575410 0.578330 -0.112697
N5    N     N_R   0.575410 0.632770 0.421670 -0.113195
N6    N     N_R   0.424590 0.367230 0.578330 -0.149684
N7    N     N_R   0.367230 0.575410 0.421670 -0.149594
N8    N     N_R   0.632770 0.424590 0.578330 -0.113544
N9    N     N_R   0.924590 0.132770 0.078330 -0.149438
N10   N     N_R   0.075410 0.867230 0.921670 -0.113092
N11   N     N_R   0.132770 0.075410 0.078330 -0.113402
N12   N     N_R   0.575410 0.367230 0.421670 -0.149499
N13   N     N_R   0.867230 0.924590 0.921670 -0.149143
N14   N     N_R   0.075410 0.867230 0.078330 -0.150358
N15   N     N_R   0.924590 0.132770 0.921670 -0.113195
N16   N     N_R   0.867230 0.924590 0.078330 -0.112752
N17   N     N_R   0.132770 0.075410 0.921670 -0.150263
N18   N     N_R   0.924590 0.867230 0.921670 -0.151001
N19   N     N_R   0.075410 0.132770 0.078330 -0.113285
N20   N     N_R   0.132770 0.924590 0.921670 -0.112867
N21   N     N_R   0.867230 0.075410 0.078330 -0.150525
N22   N     N_R   0.075410 0.132770 0.921670 -0.149638
N23   N     N_R   0.632770 0.575410 0.578330 -0.149185
N24   N     N_R   0.924590 0.867230 0.078330 -0.113251
N25   N     N_R   0.867230 0.075410 0.921670 -0.113576
N26   N     N_R   0.132770 0.924590 0.078330 -0.149519
N27   N     N_R   0.367230 0.424590 0.421670 -0.113241
N28   N     N_R   0.575410 0.367230 0.578330 -0.113168
N29   N     N_R   0.424590 0.632770 0.421670 -0.150418
N30   N     N_R   0.367230 0.424590 0.578330 -0.150336
N31   N     N_R   0.632770 0.575410 0.421670 -0.112688
N32   N     N_R   0.424590 0.367230 0.421670 -0.113121
Ni1   Ni    Ni4+2 0.500000 0.631570 0.500000 0.329018
Ni2   Ni    Ni4+2 0.500000 0.368430 0.500000 0.329585
Ni3   Ni    Ni4+2 0.631570 0.500000 0.500000 0.329356
Ni4   Ni    Ni4+2 0.368430 0.500000 0.500000 0.329397
Ni5   Ni    Ni4+2 0.000000 0.131570 0.000000 0.329575
Ni6   Ni    Ni4+2 0.000000 0.868430 0.000000 0.328996
Ni7   Ni    Ni4+2 0.131570 0.000000 0.000000 0.329341
Ni8   Ni    Ni4+2 0.868430 0.000000 0.000000 0.329381

loop_
_geom_bond_atom_site_label_1
_geom_bond_atom_site_label_2
_ccdc_geom_bond_type
C58   C62   A    
C21   Cl8   S    
N4    Ni4   S    
C24   N11   A    
C90   H7    S    
N14   Ni6   S    
C107  C112  S    
C12   Cl40  S    
C39   N26   A    
C53   C74   S    
C25   N12   A    
N25   Ni8   S    
C34   C66   A    
C30   N17   A    
C86   H3    S    
C102  N32   A    
C48   C57   S    
C35   C74   A    
C8    Cl36  S    
C32   C68   A    
N14   N26   A    
C18   C65   A    
N9    N21   A    
C93   H9    S    
C43   C89   S    
C29   N16   A    
C83   C103  S    
C90   C93   S    
N2    Ni1   S    
C83   H31   S    
C110  Cl27  S    
N6    N30   A    
C45   C64   S    
C31   Cl18  S    
C7    C101  S    
C95   C112  S    
C36   N23   A    
C95   H11   S    
C30   C74   A    
C33   N20   A    
N31   Ni3   S    
C29   C73   A    
C10   C51   S    
C53   C104  S    
C12   C79   S    
N29   Ni1   S    
C94   C111  S    
C16   C84   S    
C52   C95   S    
C69   N29   A    
N17   Ni7   S    
C23   C67   A    
C76   H12   S    
C86   C97   S    
C42   C112  S    
C22   C66   A    
C15   Cl42  S    
C101  H18   S    
C41   C60   S    
C77   H23   S    
N27   N32   A    
C53   C98   S    
C58   N28   A    
C52   C107  S    
C31   C70   A    
C106  H22   S    
C99   H16   S    
C63   C69   A    
C19   Cl6   S    
C76   C109  S    
C55   C100  S    
N24   Ni6   S    
C56   C66   S    
C54   C97   S    
C3    C96   S    
C11   C52   S    
C9    C76   S    
C49   C94   S    
C15   C82   S    
N19   Ni5   S    
N7    Ni4   S    
C19   C64   A    
C37   N24   A    
C91   Cl47  S    
C12   C53   S    
C22   N9    A    
C28   Cl15  S    
C51   C96   S    
N10   Ni6   S    
C87   C98   S    
N9    Ni5   S    
C87   H4    S    
C5    C104  S    
C10   Cl38  S    
C75   C108  S    
N16   N24   A    
C4    C97   S    
C82   H30   S    
C85   H2    S    
C64   C80   A    
C38   N25   A    
N11   N19   A    
C44   C65   S    
C28   C72   A    
C3    Cl30  S    
C1    Cl1   S    
C4    Cl31  S    
C44   C86   S    
C100  H17   S    
C35   Cl22  S    
C25   Cl12  S    
C10   C77   S    
C111  Cl28  S    
C23   Cl10  S    
C7    Cl35  S    
C3    C106  S    
C9    Cl37  S    
C38   C72   A    
N15   N25   A    
C96   H13   S    
C23   N10   A    
C89   H6    S    
C108  H25   S    
C2    C60   A    
C14   C86   S    
C44   C81   S    
C79   H28   S    
C102  Cl48  S    
N2    N23   A    
N20   Ni7   S    
C24   C68   A    
N15   Ni5   S    
C5    Cl32  S    
C40   C110  S    
N3    N12   A    
C4    C44   S    
C34   Cl21  S    
C36   C60   A    
C47   Cl34  S    
C5    C45   S    
C24   Cl11  S    
C40   C61   S    
C40   C76   S    
C78   C107  S    
C2    N2    A    
C26   Cl13  S    
C15   C55   S    
C112  Cl29  S    
N27   Ni4   S    
C1    N1    A    
C16   C56   S    
C20   N7    A    
C47   C61   A    
C20   Cl7   S    
C11   C78   S    
C1    C57   A    
C41   C75   S    
C54   C73   S    
C92   H8    S    
C80   Cl46  S    
N30   Ni4   S    
C11   C88   S    
N1    N4    A    
C3    C43   S    
C93   C110  S    
C16   Cl43  S    
C92   C94   S    
N18   Ni6   S    
C37   Cl24  S    
N28   Ni2   S    
C45   C79   S    
C6    C103  S    
N21   Ni8   S    
C18   Cl5   S    
C81   H29   S    
C21   C62   A    
C13   Cl3   S    
C32   N19   A    
C58   Cl44  S    
C69   Cl45  S    
N16   Ni8   S    
C8    C92   S    
C33   Cl20  S    
C11   Cl39  S    
C14   C54   S    
C42   C78   S    
C49   C70   S    
C14   Cl41  S    
C41   C111  S    
N7    N29   A    
C26   C70   A    
C46   C84   S    
C79   C104  S    
C26   N13   A    
C42   C88   S    
C51   C72   S    
C21   N8    A    
C91   N31   A    
C36   Cl23  S    
C27   C71   A    
C33   C67   A    
C22   Cl9   S    
C65   C91   A    
C81   C105  S    
C37   C73   A    
C77   C106  S    
C19   N6    A    
C97   H14   S    
C6    C46   S    
C54   C105  S    
C45   C87   S    
C82   C101  S    
C84   C99   S    
C9    C50   S    
C56   C103  S    
N10   N20   A    
N5    N31   A    
C34   N21   A    
N32   Ni2   S    
C9    C90   S    
C16   C83   S    
C55   C67   S    
C50   C93   S    
C88   C95   S    
C13   C59   A    
N3    Ni3   S    
C109  H26   S    
C43   C77   S    
C30   Cl17  S    
C4    C105  S    
C55   C101  S    
C18   N5    A    
N17   N22   A    
C14   C81   S    
C108  C111  S    
C15   C85   S    
C39   Cl26  S    
C75   H1    S    
C27   N14   A    
C40   C90   S    
C7    C48   S    
C89   C96   S    
C61   C102  A    
N1    Ni1   S    
C12   C87   S    
C52   C71   S    
C109  C110  S    
C6    C99   S    
N12   Ni2   S    
N11   Ni7   S    
C98   H15   S    
C2    Cl2   S    
C104  H20   S    
C31   N18   A    
C47   N27   A    
N13   N18   A    
C20   C63   A    
C51   C106  S    
N8    N28   A    
C8    C49   S    
C10   C89   S    
C27   Cl14  S    
C38   Cl25  S    
C48   C82   S    
C84   H32   S    
C103  H19   S    
C50   C109  S    
C7    C100  S    
C35   N22   A    
C49   C108  S    
N26   Ni7   S    
C6    Cl33  S    
C8    C75   S    
C80   N30   A    
C46   C83   S    
N23   Ni3   S    
C41   C92   S    
C5    C98   S    
C43   C62   S    
C46   C59   S    
C88   H5    S    
C13   N3    A    
C29   Cl16  S    
C85   C100  S    
C28   N15   A    
C39   C71   A    
C48   C85   S    
C17   N4    A    
N13   Ni8   S    
C78   H27   S    
C25   C59   A    
C56   C99   S    
C105  H21   S    
N22   Ni5   S    
C107  H24   S    
C50   C68   S    
C42   C63   S    
N8    Ni3   S    
C32   Cl19  S    
C94   H10   S    
N6    Ni2   S    
C17   Cl4   S    
C17   C57   A    
N5    Ni1   S    
