data_mof_unit_49366.cif
_audit_creation_date              2012-12-11T16:30:47-0500
_audit_creation_method            fapswitch 2.2
_symmetry_space_group_name_H-M    P1
_symmetry_Int_Tables_number       1
_space_group_crystal_system       triclinic
_cell_length_a                    22.010121
_cell_length_b                    29.969733
_cell_length_c                    19.304954
_cell_angle_alpha                 90.013857
_cell_angle_beta                  124.850773
_cell_angle_gamma                 89.876954
_cell_volume                      10450.2602681

loop_
_atom_site_label
_atom_site_type_symbol
_atom_type_description
_atom_site_fract_x
_atom_site_fract_y
_atom_site_fract_z
_atom_type_partial_charge
C1    C     C_R   0.613377 0.879240 0.069049 -0.145240
C2    C     C_1   0.034182 0.002071 0.525829 -0.012213
C3    C     C_R   0.008461 0.536313 0.797284 -0.140790
C4    C     C_R   0.703537 0.037903 0.233653 0.102771
C5    C     C_R   0.295538 0.963019 0.765218 0.103647
C6    C     C_R   0.297538 0.037957 0.765472 0.106133
C7    C     C_R   0.706771 0.962975 0.231397 0.121978
C8    C     C_R   0.206224 0.537816 0.229668 0.123410
C9    C     C_R   0.794479 0.463047 0.767304 0.120499
C10   C     C_R   0.797590 0.537889 0.765402 0.100928
C11   C     C_R   0.207914 0.462739 0.228630 0.121994
C12   C     C_R   0.598756 0.853978 0.000802 0.055368
C13   C     C_1   0.469876 0.502057 0.466522 -0.010993
C14   C     C_R   0.355461 0.114165 0.999193 0.052326
C15   C     C_R   0.354709 0.887407 0.999501 0.051626
C16   C     C_R   0.641408 0.118967 0.002912 0.048054
C17   C     C_R   0.091716 0.351697 0.000195 0.056481
C18   C     C_R   0.853084 0.611204 0.998835 0.052983
C19   C     C_R   0.907806 0.352281 0.000629 0.051380
C20   C     C_R   0.098438 0.646008 0.001130 0.046989
C21   C     C_R   0.520442 0.000086 0.763033 0.045264
C22   C     C_R   0.538106 0.999515 0.281217 0.048485
C23   C     C_R   0.028662 0.499273 0.771662 0.043862
C24   C     C_1   0.535262 0.502295 0.523462 -0.010910
C25   C     C_R   0.034621 0.500328 0.279352 0.046276
C26   C     C_R   0.748816 0.000838 0.274107 0.007975
C27   C     C_R   0.253001 0.001006 0.723586 0.003895
C28   C     C_R   0.251323 0.500538 0.268746 -0.006750
C29   C     C_R   0.752486 0.501008 0.724349 0.004382
C30   C     C_1   0.825847 0.001359 0.346639 -0.056433
C31   C     C_1   0.176407 0.001717 0.650166 -0.066911
C32   C     C_1   0.328260 0.501098 0.341133 -0.055603
C33   C     C_1   0.676396 0.501924 0.650273 -0.063237
C34   C     C_1   0.891118 0.001640 0.404310 -0.022250
C35   C     C_R   0.739754 0.189087 0.936543 -0.190526
C36   C     C_1   0.111322 0.002010 0.591980 -0.005916
C37   C     C_1   0.393193 0.501575 0.399445 -0.011899
C38   C     C_1   0.611792 0.502281 0.591055 -0.007054
C39   C     C_3   0.711467 0.081757 0.276506 -0.432556
C40   C     C_3   0.784388 0.105785 0.306567 -0.238632
C41   C     C_3   0.778945 0.155699 0.317705 -0.941236
C42   C     C_3   0.280294 0.918688 0.720140 -0.437311
C43   C     C_3   0.350388 0.893829 0.743135 -0.242076
C44   C     C_3   0.331765 0.848580 0.699378 -0.947195
C45   C     C_3   0.289446 0.082605 0.725079 -0.447448
C46   C     C_R   0.257722 0.820541 0.071910 -0.192826
C47   C     C_3   0.291327 0.077892 0.647146 -0.220409
C48   C     C_3   0.290293 0.123446 0.611233 -0.939936
C49   C     C_3   0.730322 0.916310 0.265549 -0.425757
C50   C     C_3   0.677921 0.895435 0.284606 -0.248166
C51   C     C_3   0.701151 0.847796 0.317425 -0.947657
C52   C     C_3   0.220661 0.582225 0.272440 -0.426442
C53   C     C_3   0.277939 0.609193 0.268686 -0.234520
C54   C     C_3   0.285076 0.656492 0.301804 -0.938073
C55   C     C_3   0.775117 0.416788 0.730722 -0.428439
C56   C     C_3   0.833003 0.398934 0.717262 -0.242833
C57   C     C_R   0.260578 0.186136 0.068294 -0.194494
C58   C     C_3   0.815676 0.351158 0.684133 -0.952502
C59   C     C_3   0.789885 0.582305 0.724550 -0.446912
C60   C     C_3   0.794425 0.577084 0.648554 -0.220033
C61   C     C_3   0.793136 0.622395 0.611735 -0.937930
C62   C     C_3   0.231079 0.416173 0.263402 -0.418557
C63   C     C_3   0.180359 0.396846 0.286336 -0.250916
C64   C     C_3   0.202676 0.349230 0.319643 -0.954104
C65   C     C_3   0.912282 0.135101 0.130999 -0.463147
C66   C     C_3   0.931583 0.142117 0.220488 -0.231210
C67   C     C_3   0.014815 0.138966 0.287104 -0.922736
C68   C     C_R   0.629501 0.746694 0.927119 -0.198822
C69   C     C_3   0.083972 0.859406 0.861488 -0.473038
C70   C     C_3   0.058772 0.907459 0.859549 -0.234073
C71   C     C_3   0.977581 0.914190 0.787396 -0.915228
C72   C     C_3   0.086139 0.129982 0.883173 -0.481825
C73   C     C_3   0.074961 0.081438 0.899034 -0.224096
C74   C     C_3   0.993460 0.068324 0.844184 -0.930637
C75   C     C_3   0.626577 0.697769 0.109075 -0.469585
C76   C     C_3   0.549818 0.693915 0.092546 -0.227188
C77   C     C_3   0.550533 0.660622 0.152800 -0.919914
C78   C     C_3   0.131219 0.801800 0.113818 -0.455985
C79   C     C_R   0.128433 0.753646 0.927959 -0.200483
C80   C     C_3   0.067060 0.835333 0.068240 -0.230393
C81   C     C_3   0.069201 0.867900 0.130344 -0.920704
C82   C     C_3   0.841837 0.201209 0.865061 -0.462691
C83   C     C_3   0.904281 0.194606 0.852775 -0.230475
C84   C     C_3   0.875956 0.170498 0.769937 -0.939121
C85   C     C_3   0.582446 0.645474 0.848847 -0.469154
C86   C     C_3   0.551965 0.597987 0.836490 -0.227315
C87   C     C_3   0.472427 0.595087 0.758424 -0.916702
C88   C     C_3   0.144997 0.198234 0.129605 -0.443672
C89   C     C_3   0.084662 0.162474 0.095709 -0.243239
C90   C     C_R   0.894780 0.241922 0.081305 -0.178770
C91   C     C_3   0.103139 0.128455 0.163908 -0.931034
C92   C     C_R   0.751188 0.673649 0.070998 -0.201274
C93   C     C_R   0.354762 0.099828 0.930021 -0.148354
C94   C     C_R   0.111351 0.241309 0.923871 -0.203730
C95   C     C_R   0.684040 0.169026 0.937867 -0.176856
C96   C     C_R   0.312313 0.842901 0.071648 -0.173628
C97   C     C_R   0.315108 0.164660 0.066174 -0.175634
C98   C     C_R   0.616325 0.791238 0.932177 -0.174696
C99   C     C_R   0.114578 0.709160 0.932136 -0.178002
C100  C     C_R   0.910637 0.286096 0.078461 -0.180398
C101  C     C_R   0.806530 0.650944 0.072319 -0.166033
C102  C     C_R   0.095116 0.285701 0.925770 -0.178099
C103  C     C_R   0.701433 0.139251 0.002381 0.118903
C104  C     C_R   0.354687 0.900830 0.930373 -0.144515
C105  C     C_R   0.294481 0.868215 0.001399 0.119896
C106  C     C_R   0.296074 0.134604 0.001333 0.117397
C107  C     C_R   0.611045 0.806322 0.997048 0.119470
C108  C     C_R   0.110898 0.693652 0.997943 0.126127
C109  C     C_R   0.900187 0.303902 0.005288 0.117504
C110  C     C_R   0.791335 0.629203 0.999746 0.120064
C111  C     C_R   0.100356 0.303235 0.996343 0.118941
C112  C     C_R   0.775329 0.127324 0.062644 -0.212281
C113  C     C_R   0.220053 0.874484 0.934697 -0.229440
C114  C     C_R   0.221629 0.123501 0.942183 -0.226905
C115  C     C_R   0.643107 0.102235 0.070995 -0.159628
C116  C     C_R   0.613484 0.775663 0.053415 -0.230940
C117  C     C_R   0.115088 0.723937 0.055931 -0.229345
C118  C     C_R   0.882012 0.275379 0.938553 -0.217447
C119  C     C_R   0.717854 0.626080 0.928888 -0.230101
C120  C     C_R   0.113707 0.274320 0.060891 -0.226692
C121  C     C_R   0.832856 0.148013 0.063280 0.148833
C122  C     C_R   0.163786 0.852599 0.934972 0.147349
C123  C     C_R   0.165716 0.144030 0.945334 0.149067
C124  C     C_R   0.625128 0.730058 0.047826 0.154611
C125  C     C_R   0.128160 0.769396 0.051706 0.151603
C126  C     C_R   0.109687 0.378170 0.068646 -0.140373
C127  C     C_R   0.866426 0.230201 0.940985 0.146457
C128  C     C_R   0.660858 0.648408 0.927260 0.154973
C129  C     C_R   0.129979 0.229069 0.059389 0.149032
C130  C     C_R   0.814389 0.180290 0.000148 0.052167
C131  C     C_R   0.183920 0.822953 0.002107 0.067058
C132  C     C_R   0.185638 0.177619 0.006454 0.074160
C133  C     C_R   0.637262 0.716005 0.986496 0.055288
C134  C     C_R   0.139124 0.783619 0.989636 0.053757
C135  C     C_R   0.866889 0.214531 0.010676 0.037516
C136  C     C_R   0.679396 0.675366 0.997087 0.052764
C137  C     C_R   0.853954 0.598495 0.929902 -0.143288
C138  C     C_R   0.134406 0.213621 0.993055 0.044045
C139  C     C_R   0.569004 0.959009 0.482312 -0.166127
C140  C     C_R   0.572675 0.039353 0.619252 -0.166380
C141  C     C_R   0.614030 0.962831 0.659784 -0.185070
C142  C     C_R   0.624924 0.032159 0.507398 -0.180095
C143  C     C_R   0.121049 0.467022 0.505277 -0.178295
C144  C     C_R   0.113923 0.537352 0.659788 -0.182366
C145  C     C_R   0.078960 0.459608 0.626510 -0.168352
C146  C     C_R   0.063520 0.539815 0.480146 -0.168432
C147  C     C_R   0.549456 0.959944 0.400201 -0.175009
C148  C     C_R   0.889552 0.378500 0.931566 -0.138981
C149  C     C_R   0.548352 0.039698 0.671468 -0.171601
C150  C     C_R   0.589383 0.963115 0.712008 -0.163928
C151  C     C_R   0.605003 0.033174 0.424806 -0.168982
C152  C     C_R   0.100216 0.466006 0.422331 -0.169351
C153  C     C_R   0.093323 0.536839 0.715858 -0.166134
C154  C     C_R   0.058908 0.459011 0.682740 -0.168994
C155  C     C_R   0.043515 0.539004 0.397756 -0.173910
C156  C     C_R   0.564731 0.997713 0.369951 0.139724
C157  C     C_R   0.553459 0.000962 0.715281 0.146177
C158  C     C_R   0.059592 0.501524 0.367570 0.141906
C159  C     C_R   0.114182 0.620360 0.069512 -0.140211
C160  C     C_R   0.062281 0.498217 0.724490 0.145126
C161  C     C_R   0.573629 0.108288 0.932184 -0.118495
C162  C     C_R   0.423225 0.897462 0.069616 -0.133643
C163  C     C_R   0.423702 0.103544 0.069500 -0.131424
C164  C     C_R   0.551775 0.878904 0.930931 -0.153138
C165  C     C_R   0.051006 0.621356 0.931039 -0.142940
C166  C     C_R   0.951842 0.378207 0.069872 -0.131168
C167  C     C_R   0.922127 0.601654 0.069212 -0.131776
C168  C     C_R   0.047762 0.377605 0.930809 -0.145731
C169  C     C_R   0.604057 0.995898 0.535386 0.117458
C170  C     C_1   0.968334 0.001941 0.470150 -0.010323
C171  C     C_R   0.602415 0.000262 0.609923 0.116921
C172  C     C_R   0.100359 0.503212 0.533803 0.117165
C173  C     C_R   0.102928 0.499389 0.611295 0.116974
C174  C     C_R   0.505629 0.963378 0.794424 -0.158275
C175  C     C_R   0.532512 0.036202 0.234758 -0.140259
C176  C     C_R   0.529846 0.963389 0.232871 -0.156690
C177  C     C_R   0.499103 0.036405 0.788187 -0.138514
C178  C     C_R   0.008024 0.462945 0.797624 -0.152384
C179  C     C_R   0.030096 0.536587 0.233023 -0.148110
C180  C     C_R   0.028175 0.463630 0.232363 -0.143444
H1    H     H_    0.633781 0.864884 0.129394 0.113209
H2    H     H_    0.521651 0.069596 0.673114 0.108657
H3    H     H_    0.815295 0.328725 0.729672 0.256537
H4    H     H_    0.760908 0.349695 0.622395 0.268677
H5    H     H_    0.858693 0.339211 0.675437 0.250012
H6    H     H_    0.834003 0.420531 0.671088 0.198754
H7    H     H_    0.888907 0.399696 0.777310 0.193874
H8    H     H_    0.767720 0.394805 0.771322 0.182877
H9    H     H_    0.720635 0.417234 0.668511 0.193657
H10   H     H_    0.741239 0.640585 0.590691 0.265306
H11   H     H_    0.841450 0.642693 0.659615 0.258149
H12   H     H_    0.795856 0.617569 0.556534 0.251262
H13   H     H_    0.596302 0.933275 0.747412 0.110597
H14   H     H_    0.846512 0.559449 0.668338 0.199163
H15   H     H_    0.746957 0.557057 0.598506 0.202164
H16   H     H_    0.736284 0.597881 0.704476 0.186373
H17   H     H_    0.835729 0.604556 0.770949 0.191631
H18   H     H_    0.199293 0.327222 0.271250 0.256864
H19   H     H_    0.260067 0.348548 0.377680 0.269148
H20   H     H_    0.164626 0.336192 0.335193 0.249577
H21   H     H_    0.183636 0.417988 0.335679 0.196866
H22   H     H_    0.122181 0.396780 0.230225 0.190076
H23   H     H_    0.234052 0.395055 0.218510 0.183066
H24   H     H_    0.619519 0.062073 0.403589 0.106354
H25   H     H_    0.288349 0.416565 0.321678 0.194032
H26   H     H_    0.036693 0.106658 0.281800 0.267694
H27   H     H_    0.043499 0.166903 0.279324 0.258472
H28   H     H_    0.026351 0.141280 0.351005 0.250007
H29   H     H_    0.911840 0.175233 0.225735 0.192579
H30   H     H_    0.903971 0.116210 0.234448 0.189292
H31   H     H_    0.920170 0.099302 0.122932 0.188595
H32   H     H_    0.951380 0.154212 0.123636 0.209040
H33   H     H_    0.968961 0.907210 0.725846 0.263538
H34   H     H_    0.941850 0.891739 0.795305 0.259149
H35   H     H_    0.114992 0.437239 0.400995 0.106665
H36   H     H_    0.961159 0.949262 0.787288 0.249010
H37   H     H_    0.066051 0.915133 0.920236 0.195673
H38   H     H_    0.092760 0.931317 0.851277 0.197604
H39   H     H_    0.078352 0.851848 0.801685 0.191868
H40   H     H_    0.046696 0.836415 0.865722 0.196362
H41   H     H_    0.961860 0.088130 0.862216 0.267613
H42   H     H_    0.969940 0.073952 0.776409 0.267878
H43   H     H_    0.987892 0.032433 0.853776 0.249191
H44   H     H_    0.106359 0.058592 0.884864 0.195310
H45   H     H_    0.095977 0.077042 0.966457 0.198849
H46   H     H_    0.098672 0.567160 0.749356 0.109608
H47   H     H_    0.048276 0.151588 0.888896 0.199320
H48   H     H_    0.071110 0.133657 0.817831 0.190748
H49   H     H_    0.566460 0.626926 0.144277 0.261904
H50   H     H_    0.590252 0.671442 0.219241 0.261763
H51   H     H_    0.494429 0.658667 0.139548 0.249308
H52   H     H_    0.531671 0.726902 0.100925 0.195277
H53   H     H_    0.509025 0.682665 0.026547 0.198487
H54   H     H_    0.644028 0.663932 0.103552 0.200595
H55   H     H_    0.667531 0.709560 0.174632 0.189946
H56   H     H_    0.064406 0.849620 0.177064 0.260935
H57   H     H_    0.035778 0.428561 0.688368 0.107723
H58   H     H_    0.121760 0.887070 0.164050 0.262645
H59   H     H_    0.022220 0.891711 0.095540 0.249462
H60   H     H_    0.070182 0.854683 0.021282 0.197173
H61   H     H_    0.013489 0.817138 0.034238 0.197914
H62   H     H_    0.127708 0.783533 0.161572 0.189187
H63   H     H_    0.184810 0.819803 0.148899 0.192376
H64   H     H_    0.852818 0.137435 0.769020 0.265869
H65   H     H_    0.832251 0.190674 0.715702 0.263383
H66   H     H_    0.922056 0.165512 0.762742 0.254913
H67   H     H_    0.927594 0.227240 0.851673 0.206248
H68   H     H_    0.012398 0.566838 0.356534 0.110544
H69   H     H_    0.949431 0.174647 0.906145 0.186993
H70   H     H_    0.824090 0.167755 0.871762 0.197494
H71   H     H_    0.793327 0.217311 0.808171 0.192444
H72   H     H_    0.435935 0.617737 0.764908 0.259988
H73   H     H_    0.469779 0.604351 0.701035 0.262225
H74   H     H_    0.451949 0.560394 0.751014 0.250446
H75   H     H_    0.586568 0.574127 0.829029 0.196640
H76   H     H_    0.553317 0.587960 0.892817 0.198893
H77   H     H_    0.545012 0.668499 0.852957 0.200173
H78   H     H_    0.581922 0.655601 0.793099 0.189077
H79   H     H_    0.552319 0.117306 0.868270 0.086613
H80   H     H_    0.154608 0.110080 0.183839 0.264528
H81   H     H_    0.110957 0.145399 0.219562 0.267509
H82   H     H_    0.057209 0.104094 0.138766 0.250428
H83   H     H_    0.030807 0.178682 0.072942 0.197009
H84   H     H_    0.078843 0.144492 0.041891 0.197594
H85   H     H_    0.200105 0.182239 0.159488 0.194456
H86   H     H_    0.146453 0.217341 0.179940 0.187191
H87   H     H_    0.442914 0.893839 0.134874 0.094763
H88   H     H_    0.443441 0.107663 0.134784 0.098605
H89   H     H_    0.307678 0.102539 0.865779 0.102592
H90   H     H_    0.518266 0.867119 0.866456 0.096261
H91   H     H_    0.016770 0.633354 0.866654 0.093610
H92   H     H_    0.987426 0.367294 0.134808 0.086675
H93   H     H_    0.941550 0.604760 0.134438 0.093129
H94   H     H_    0.012235 0.366113 0.866315 0.087517
H95   H     H_    0.513339 0.928628 0.786554 0.094194
H96   H     H_    0.546156 0.070339 0.256357 0.084524
H97   H     H_    0.541105 0.929017 0.253231 0.082277
H98   H     H_    0.496579 0.070636 0.770225 0.088361
H99   H     H_    0.015226 0.428008 0.790513 0.095470
H100  H     H_    0.308279 0.897985 0.866368 0.112967
H101  H     H_    0.044468 0.570663 0.254930 0.087315
H102  H     H_    0.037046 0.429100 0.251958 0.085670
H103  H     H_    0.014978 0.571043 0.788054 0.096069
H104  H     H_    0.724290 0.214555 0.889304 0.130617
H105  H     H_    0.274627 0.797194 0.122816 0.125415
H106  H     H_    0.277020 0.212439 0.114315 0.127179
H107  H     H_    0.639938 0.736914 0.880749 0.130491
H108  H     H_    0.137653 0.763819 0.880786 0.131217
H109  H     H_    0.894436 0.231234 0.134534 0.133675
H110  H     H_    0.766761 0.694306 0.124852 0.129692
H111  H     H_    0.688959 0.105375 0.135193 0.128814
H112  H     H_    0.114518 0.230045 0.872649 0.133022
H113  H     H_    0.627271 0.178456 0.890216 0.114892
H114  H     H_    0.369176 0.837368 0.124140 0.113120
H115  H     H_    0.372293 0.173644 0.112736 0.116999
H116  H     H_    0.613847 0.814376 0.887500 0.116399
H117  H     H_    0.110448 0.686366 0.886051 0.116176
H118  H     H_    0.925002 0.306996 0.131468 0.116469
H119  H     H_    0.862284 0.653770 0.128482 0.110496
H120  H     H_    0.083864 0.306966 0.874348 0.117626
H121  H     H_    0.788051 0.102240 0.109525 0.113927
H122  H     H_    0.129018 0.364432 0.129170 0.111083
H123  H     H_    0.205845 0.895430 0.881672 0.116888
H124  H     H_    0.207156 0.098929 0.893899 0.119567
H125  H     H_    0.606453 0.787107 0.101648 0.117397
H126  H     H_    0.108173 0.712223 0.104090 0.110767
H127  H     H_    0.876843 0.288421 0.883149 0.113947
H128  H     H_    0.705020 0.607650 0.873822 0.117337
H129  H     H_    0.113137 0.287027 0.113008 0.114208
H130  H     H_    0.551044 0.930967 0.501684 0.115681
H131  H     H_    0.562088 0.068498 0.580672 0.115633
H132  H     H_    0.637767 0.932504 0.654171 0.115128
H133  H     H_    0.807186 0.600921 0.865498 0.099938
H134  H     H_    0.652675 0.060754 0.547808 0.115265
H135  H     H_    0.150209 0.438648 0.545913 0.114811
H136  H     H_    0.133733 0.568188 0.650160 0.114146
H137  H     H_    0.069129 0.429935 0.589474 0.115029
H138  H     H_    0.045459 0.567766 0.499717 0.115117
H139  H     H_    0.736052 0.171241 0.256242 0.261224
H140  H     H_    0.764652 0.161517 0.363636 0.265694
H141  H     H_    0.832981 0.171770 0.341764 0.250870
H142  H     H_    0.829859 0.091809 0.368297 0.206461
H143  H     H_    0.799721 0.100911 0.261331 0.181776
H144  H     H_    0.869429 0.364859 0.870763 0.109539
H145  H     H_    0.662843 0.103223 0.232923 0.190424
H146  H     H_    0.709592 0.075274 0.331954 0.178659
H147  H     H_    0.303308 0.827221 0.719544 0.265523
H148  H     H_    0.295529 0.852862 0.629743 0.265488
H149  H     H_    0.383602 0.831618 0.716708 0.248766
H150  H     H_    0.379675 0.914027 0.722762 0.200358
H151  H     H_    0.387647 0.888233 0.812028 0.207846
H152  H     H_    0.245137 0.897526 0.730896 0.179209
H153  H     H_    0.246901 0.924970 0.650948 0.195739
H154  H     H_    0.239417 0.142130 0.592615 0.266118
H155  H     H_    0.137408 0.633835 0.131159 0.111711
H156  H     H_    0.339760 0.143079 0.658758 0.258014
H157  H     H_    0.290985 0.118970 0.554588 0.251689
H158  H     H_    0.342320 0.059756 0.664451 0.197964
H159  H     H_    0.242641 0.058570 0.597288 0.202841
H160  H     H_    0.236566 0.098390 0.707113 0.186039
H161  H     H_    0.336167 0.104476 0.771078 0.192264
H162  H     H_    0.700459 0.826530 0.269845 0.257022
H163  H     H_    0.757661 0.847472 0.376938 0.268016
H164  H     H_    0.661964 0.833610 0.330294 0.250573
H165  H     H_    0.678532 0.915770 0.333194 0.203171
H166  H     H_    0.518684 0.932097 0.359123 0.111938
H167  H     H_    0.620551 0.894943 0.226834 0.192360
H168  H     H_    0.736282 0.896057 0.221930 0.183277
H169  H     H_    0.786554 0.916934 0.325464 0.195178
H170  H     H_    0.231473 0.674529 0.262681 0.253576
H171  H     H_    0.302558 0.655559 0.368343 0.265145
H172  H     H_    0.327335 0.675000 0.299116 0.252376
H173  H     H_    0.332858 0.592561 0.307773 0.203339
H174  H     H_    0.262392 0.610865 0.202967 0.199248
H175  H     H_    0.167864 0.600588 0.244807 0.175430
H176  H     H_    0.242193 0.576508 0.339708 0.188454
N1    N     N_R   0.579040 0.919410 0.042340 -0.035762
N2    N     N_R   0.460440 0.916550 0.042730 -0.040330
N3    N     N_R   0.460440 0.083450 0.042730 -0.039488
N4    N     N_R   0.539560 0.916550 0.957270 -0.038792
N5    N     N_R   0.039560 0.583450 0.957270 -0.035939
N6    N     N_R   0.960440 0.416550 0.042730 -0.038535
N7    N     N_R   0.960440 0.583450 0.042730 -0.039302
N8    N     N_R   0.039560 0.416550 0.957270 -0.037154
N9    N     N_R   0.478900 0.978820 0.837270 -0.040649
N10   N     N_R   0.521100 0.021180 0.162730 -0.035237
N11   N     N_R   0.521100 0.978820 0.162730 -0.036035
N12   N     N_R   0.420960 0.080590 0.957660 -0.039670
N13   N     N_R   0.478900 0.021180 0.837270 -0.035140
N14   N     N_R   0.978900 0.478820 0.837270 -0.043423
N15   N     N_R   0.021100 0.521180 0.162730 -0.036146
N16   N     N_R   0.021100 0.478820 0.162730 -0.038057
N17   N     N_R   0.978900 0.521180 0.837270 -0.037605
N18   N     N_R   0.639700 0.024040 0.162340 -0.072715
N19   N     N_R   0.360300 0.975960 0.837660 -0.065902
N20   N     N_R   0.360300 0.024040 0.837660 -0.069627
N21   N     N_R   0.639700 0.975960 0.162340 -0.066068
N22   N     N_R   0.139700 0.524040 0.162340 -0.072001
N23   N     N_R   0.420960 0.919410 0.957660 -0.042483
N24   N     N_R   0.860300 0.475960 0.837660 -0.067408
N25   N     N_R   0.860300 0.524040 0.837660 -0.070195
N26   N     N_R   0.139700 0.475960 0.162340 -0.068215
N27   N     N_R   0.579040 0.080590 0.042340 -0.038515
N28   N     N_R   0.079040 0.419410 0.042340 -0.035783
N29   N     N_R   0.920960 0.580590 0.957660 -0.038162
N30   N     N_R   0.920960 0.419410 0.957660 -0.036648
N31   N     N_R   0.079040 0.580590 0.042340 -0.037578
N32   N     N_R   0.539560 0.083450 0.957270 -0.037647
Ni1   Ni    Ni4+2 0.550430 0.949580 0.102370 0.202407
Ni2   Ni    Ni4+2 0.449570 0.050420 0.897630 0.205892
Ni3   Ni    Ni4+2 0.449570 0.949580 0.897630 0.201627
Ni4   Ni    Ni4+2 0.550430 0.050420 0.102370 0.201009
Ni5   Ni    Ni4+2 0.050430 0.449580 0.102370 0.201170
Ni6   Ni    Ni4+2 0.949570 0.550420 0.897630 0.203312
Ni7   Ni    Ni4+2 0.949570 0.449580 0.897630 0.200100
Ni8   Ni    Ni4+2 0.050430 0.550420 0.102370 0.198885

loop_
_geom_bond_atom_site_label_1
_geom_bond_atom_site_label_2
_ccdc_geom_bond_type
N26   Ni5   S    
C159  H155  S    
C63   H22   S    
C64   H18   S    
C175  N10   A    
C120  H129  S    
C50   H165  S    
N17   Ni6   S    
C55   C56   S    
C11   C62   S    
C104  H100  S    
C39   H145  S    
C116  H125  S    
C154  H57   S    
C54   H171  S    
C70   H38   S    
C124  C133  A    
C79   C99   A    
C137  H133  S    
C71   H36   S    
C29   C33   S    
C162  H87   S    
C176  N11   A    
C35   H104  S    
C14   C163  A    
C91   H80   S    
N24   Ni7   S    
C113  C122  A    
C177  N13   A    
C116  C124  A    
C58   H3    S    
C119  C128  A    
C161  H79   S    
C21   C177  A    
C59   C60   S    
C69   H39   S    
C83   H69   S    
C155  C158  A    
C167  H93   S    
C102  C111  A    
C162  N2    A    
N30   Ni7   S    
C109  C118  A    
C45   C47   S    
C44   H149  S    
C179  N15   A    
C27   C31   S    
C28   C32   S    
C30   C34   T    
C145  H137  S    
C101  C110  A    
C74   H43   S    
N19   Ni3   S    
C75   C124  S    
C148  N30   A    
C103  C112  A    
C142  C151  A    
N22   N26   A    
C18   C137  A    
C43   C44   S    
C12   C107  S    
C82   H71   S    
C4    C26   A    
C141  H132  S    
C57   C97   A    
C84   H64   S    
N14   Ni7   S    
N1    N4    A    
N1    Ni1   S    
C64   H20   S    
C149  H2    S    
C8    C28   A    
C16   C115  A    
C9    N24   A    
C44   H147  S    
C19   C148  A    
C72   C73   S    
C178  N14   A    
N19   N20   A    
C165  N5    A    
C71   H34   S    
C77   H49   S    
C33   C38   T    
C43   H150  S    
C40   H142  S    
C139  H130  S    
C139  C169  A    
C69   C70   S    
C88   H85   S    
C68   C98   A    
C93   H89   S    
C88   C89   S    
C94   C102  A    
C92   H110  S    
C61   H11   S    
C31   C36   T    
C111  C120  A    
C53   H173  S    
C78   C125  S    
N24   N25   A    
C20   C108  S    
C45   H161  S    
C150  C157  A    
C123  C132  A    
C69   H40   S    
C121  C130  A    
N7    N29   A    
C22   C175  A    
C25   C180  A    
N5    N31   A    
C147  H166  S    
C85   C86   S    
C81   H58   S    
C20   C165  A    
C74   H41   S    
C7    C26   A    
C55   H9    S    
C105  C113  A    
C68   C133  A    
C143  C172  A    
C101  H119  S    
C102  H120  S    
C78   C80   S    
C45   H160  S    
C90   H109  S    
C86   H76   S    
C141  C171  A    
C80   H61   S    
C84   H66   S    
N7    Ni8   S    
N27   N32   A    
N5    Ni6   S    
C5    C27   A    
C87   H74   S    
C47   C48   S    
C72   H47   S    
C76   H52   S    
C89   H83   S    
C89   C91   S    
C8    C52   S    
C14   C93   A    
C91   H81   S    
C168  H94   S    
C66   C67   S    
C169  C171  S    
C1    C12   A    
C88   C129  S    
C17   C111  S    
C95   C103  A    
C141  C150  A    
C163  N3    A    
C19   C109  S    
C77   H51   S    
N29   Ni6   S    
C120  C129  A    
C144  H136  S    
C39   C40   S    
N11   Ni1   S    
C41   H140  S    
C32   C37   T    
N18   N21   A    
N28   Ni5   S    
C99   H117  S    
C137  N29   A    
C68   H107  S    
C83   C84   S    
C56   H7    S    
C14   C106  S    
C118  H127  S    
C46   C96   A    
C55   H8    S    
C117  H126  S    
C35   C130  A    
C177  H98   S    
C145  C154  A    
C26   C30   S    
C140  C171  A    
C180  N16   A    
C13   C37   S    
C118  C127  A    
C114  C123  A    
C180  H102  S    
C122  C131  A    
C115  N27   A    
C52   C53   S    
C47   H158  S    
C48   H154  S    
N6    N30   A    
C79   C134  A    
C146  H138  S    
C63   H21   S    
C108  C117  A    
C82   H70   S    
N12   Ni2   S    
C17   C168  A    
C110  C119  A    
C18   C167  A    
C10   N25   A    
C54   H172  S    
N21   Ni1   S    
C153  C160  A    
C112  C121  A    
C2    C170  T    
C90   C135  A    
C4    N18   A    
C149  C157  A    
C69   C122  S    
C6    N20   A    
C56   C58   S    
C43   H151  S    
C107  C116  A    
C63   C64   S    
C100  C109  A    
C11   N26   A    
C49   C50   S    
C25   C158  S    
C85   C128  S    
C41   H141  S    
C117  C125  A    
C140  C149  A    
C67   H28   S    
C60   H15   S    
C125  C134  A    
C96   C105  A    
C6    C45   S    
C73   C74   S    
C57   C132  A    
C130  C135  S    
C151  H24   S    
C131  C134  S    
C48   H157  S    
N4    Ni3   S    
C127  C135  A    
C128  C136  A    
C163  H88   S    
C17   C126  A    
C132  C138  S    
N15   N16   A    
C1    N1    A    
C75   H54   S    
C58   H4    S    
C174  N9    A    
N10   N11   A    
C65   H32   S    
N31   Ni8   S    
N10   Ni4   S    
C178  H99   S    
C146  C155  A    
C70   C71   S    
C65   C121  S    
C3    N17   A    
C164  N4    A    
C48   H156  S    
C58   H5    S    
C83   H67   S    
C92   C136  A    
C39   H146  S    
C44   H148  S    
C152  C158  A    
C54   H170  S    
C70   H37   S    
C93   N12   A    
C153  H46   S    
N27   Ni4   S    
C86   C87   S    
N6    Ni5   S    
C53   C54   S    
C82   C83   S    
C98   C107  A    
C81   H59   S    
N23   Ni3   S    
C60   C61   S    
C150  H13   S    
C62   C63   S    
C99   C108  A    
C12   C164  A    
C16   C103  S    
C174  H95   S    
C126  H122  S    
C168  N8    A    
C16   C161  A    
C112  H121  S    
C104  N23   A    
C151  C156  A    
N8    N28   A    
C147  C156  A    
C67   H26   S    
C92   C101  A    
C5    N19   A    
C142  C169  A    
C97   C106  A    
C143  C152  A    
C56   H6    S    
C72   C123  S    
C115  H111  S    
C61   H10   S    
C142  H134  S    
C42   C43   S    
C100  H118  S    
N2    N23   A    
N18   Ni4   S    
N16   Ni5   S    
C164  H90   S    
C179  H101  S    
C78   H63   S    
C1    H1    S    
C165  H91   S    
C97   H115  S    
C46   H105  S    
C166  H92   S    
C98   H116  S    
C18   C110  S    
C166  N6    A    
N8    Ni7   S    
C22   C176  A    
C25   C179  A    
C35   C95   A    
N25   Ni6   S    
C74   H42   S    
C15   C105  S    
C10   C59   S    
N22   Ni8   S    
C71   H33   S    
C10   C29   A    
C11   C28   A    
C96   H114  S    
N14   N17   A    
C140  H131  S    
C87   H73   S    
N32   Ni2   S    
C21   C174  A    
C72   H48   S    
C64   H19   S    
N3    N12   A    
C49   H168  S    
C51   H163  S    
C143  H135  S    
C52   H176  S    
C146  C172  A    
N9    Ni3   S    
C15   C162  A    
C3    C23   A    
C75   C76   S    
C60   H14   S    
C22   C156  S    
C155  H68   S    
C139  C147  A    
C77   H50   S    
C78   H62   S    
C106  C114  A    
C95   H113  S    
C59   H17   S    
C41   H139  S    
C59   H16   S    
C144  C153  A    
C175  H96   S    
C23   C178  A    
C126  N28   A    
C129  C138  A    
C20   C159  A    
C51   H164  S    
C61   H12   S    
C24   C38   S    
C75   H55   S    
C76   H53   S    
C9    C55   S    
C19   C166  A    
C15   C104  A    
C62   H25   S    
C42   H152  S    
C34   C170  S    
C9    C29   A    
C3    H103  S    
C167  N7    A    
C8    N22   A    
C161  N32   A    
C90   C100  A    
C47   H159  S    
C50   C51   S    
C87   H72   S    
C62   H23   S    
C152  H35   S    
C119  H128  S    
C94   H112  S    
C50   H167  S    
C76   C77   S    
C7    C49   S    
C42   H153  S    
C46   C131  A    
C49   H169  S    
C86   H75   S    
C13   C24   T    
C84   H65   S    
C144  C173  A    
N3    Ni4   S    
C154  C160  A    
C133  C136  S    
C6    C27   A    
C4    C39   S    
C113  H123  S    
C23   C160  S    
C114  H124  S    
C81   H56   S    
C89   H84   S    
C66   H29   S    
C91   H82   S    
C40   C41   S    
C145  C173  A    
N13   Ni2   S    
C85   H78   S    
C66   H30   S    
C67   H27   S    
C172  C173  S    
C5    C42   S    
C53   H174  S    
C2    C36   S    
C79   H108  S    
C52   H175  S    
C73   H44   S    
C21   C157  S    
C80   C81   S    
C40   H143  S    
C57   H106  S    
N9    N13   A    
C85   H77   S    
C80   H60   S    
N2    Ni1   S    
C176  H97   S    
C73   H45   S    
C88   H86   S    
C7    N21   A    
C94   C138  A    
C51   H162  S    
N20   Ni2   S    
C82   C127  S    
C65   H31   S    
N15   Ni8   S    
C65   C66   S    
C159  N31   A    
C148  H144  S    
