data_mof_unit_20044.cif
_audit_creation_date              2013-03-05T15:54:49-0500
_audit_creation_method            fapswitch 2.2
_symmetry_space_group_name_H-M    P1
_symmetry_Int_Tables_number       1
_space_group_crystal_system       triclinic
_cell_length_a                    18.925351
_cell_length_b                    10.755885
_cell_length_c                    9.904447
_cell_angle_alpha                 86.714837
_cell_angle_beta                  90.169792
_cell_angle_gamma                 91.449099
_cell_volume                      2012.17913889

loop_
_atom_site_label
_atom_site_type_symbol
_atom_site_description
_atom_site_fract_x
_atom_site_fract_y
_atom_site_fract_z
_atom_type_partial_charge
O1    O     O_R   0.500000 0.316780 0.614690 -0.642690
O2    O     O_R   0.499990 0.316750 0.385360 -0.586141
C1    C     C_R   0.504185 0.259480 0.504087 0.952052
O3    O     O_R   0.398140 0.500000 0.614700 -0.645346
O4    O     O_R   0.398130 0.499970 0.385370 -0.657075
C2    C     C_R   0.365021 0.502033 0.499516 0.846182
Zn1   Zn    Zn3+2 0.500000 0.500020 0.653130 0.959677
Zn2   Zn    Zn3+2 0.500000 0.499980 0.346870 1.027997
O5    O     O_R   0.500010 0.683250 0.614640 -0.630615
O6    O     O_R   0.500000 0.683220 0.385310 -0.578915
O7    O     O_R   0.601870 0.500030 0.614630 -0.607084
O8    O     O_R   0.601860 0.500000 0.385300 -0.581203
C3    C     C_R   0.496336 0.739331 0.495717 0.893667
C4    C     C_R   0.634696 0.506686 0.500036 0.977273
C5    C     C_R   0.252540 0.548601 0.612828 -0.152804
H1    H     H_    0.278911 0.547644 0.710080 0.153957
C6    C     C_R   0.181850 0.580824 0.604751 -0.120695
H2    H     H_    0.154753 0.601677 0.696583 0.165166
C7    C     C_R   0.146766 0.585144 0.479427 0.080636
C8    C     C_R   0.183185 0.555780 0.362822 -0.125574
H3    H     H_    0.157443 0.557313 0.264966 0.165645
C9    C     C_R   0.253556 0.523727 0.370873 -0.176971
H4    H     H_    0.280447 0.503159 0.278681 0.158129
C10   C     C_R   0.288948 0.521026 0.495576 -0.012489
N1    N     N_R   0.035736 0.596768 0.353478 -0.153693
N2    N     N_R   0.965886 0.603819 0.349079 -0.132178
C11   C     C_R   0.929229 0.626967 0.461724 0.395655
N3    N     N_R   0.964755 0.645465 0.578214 -0.094724
N4    N     N_R   0.034688 0.638074 0.582630 -0.142443
C12   C     C_R   0.071292 0.611232 0.470874 0.290857
C13   C     C_R   0.808716 0.682992 0.536827 0.349605
C14   C     C_R   0.736383 0.649861 0.551253 0.028840
C15   C     C_R   0.710457 0.537218 0.498505 -0.189989
C16   C     C_R   0.756027 0.460790 0.430871 0.267031
C17   C     C_R   0.825974 0.498784 0.410137 -0.224692
H5    H     H_    0.861202 0.437754 0.360732 0.213914
C18   C     C_R   0.852801 0.607358 0.464336 -0.129277
C19   C     C_R   0.463173 0.088021 0.749259 -0.233934
H6    H     H_    0.489222 0.169832 0.784890 0.214826
C20   C     C_R   0.424263 0.012173 0.845130 0.364089
C21   C     C_R   0.391303 0.901368 0.803603 0.132198
C22   C     C_R   0.406861 0.861982 0.675455 -0.142768
H7    H     H_    0.383900 0.774524 0.645128 0.154914
C23   C     C_R   0.456172 0.928545 0.590586 0.027812
C24   C     C_R   0.475284 0.050439 0.616739 0.019797
C25   C     C_R   0.509845 0.124993 0.511843 -0.249340
C26   C     C_R   0.541198 0.068583 0.401483 0.228353
C27   C     C_R   0.532795 0.941273 0.390998 0.230777
C28   C     C_R   0.491159 0.871968 0.486555 -0.263925
H8    H     H_    0.586346 0.625743 0.118032 0.194175
C29   C     C_R   0.398225 0.354640 0.147004 -0.164220
H9    H     H_    0.398585 0.338894 0.253965 0.213588
C30   C     C_R   0.344025 0.293556 0.080097 -0.195124
H10   H     H_    0.304075 0.241473 0.139252 0.209364
C31   C     C_R   0.343795 0.292904 0.939403 0.320920
C32   C     C_R   0.399222 0.354377 0.867680 -0.275448
H11   H     H_    0.403188 0.338120 0.763134 0.233114
C33   C     C_R   0.450048 0.428536 0.931651 0.120975
C34   C     C_R   0.449829 0.428724 0.075989 0.205267
N5    N     N_R   0.499340 0.498800 0.142780 -0.121869
C35   C     C_R   0.547545 0.569162 0.067536 -0.031221
H12   H     H_    0.585807 0.626488 0.867557 0.151615
C36   C     C_R   0.547381 0.569347 0.924415 -0.058230
N6    N     N_R   0.499320 0.498720 0.857170 -0.119083
N7    N     N_R   0.423104 0.045819 0.983949 0.210638
O9    O     O_R   0.473453 0.116621 0.029240 -0.333561
O10   O     O_R   0.372194 0.008852 0.065805 -0.383775
C37   C     C_3   0.345309 0.817862 0.896046 -0.750990
H13   H     H_    0.375606 0.786811 0.987535 0.258027
H14   H     H_    0.297699 0.868220 0.925073 0.287348
H15   H     H_    0.326745 0.732875 0.846501 0.196771
N8    N     N_R   0.568162 0.882778 0.284206 0.244460
O11   O     O_R   0.625074 0.820196 0.309638 -0.381077
O12   O     O_R   0.547622 0.902775 0.159589 -0.309361
N9    N     N_R   0.289919 0.224107 0.869936 0.215203
O13   O     O_R   0.289545 0.223752 0.738519 -0.406166
O14   O     O_R   0.240044 0.162703 0.937344 -0.342522
N10   N     N_R   0.837489 0.792574 0.595361 0.212260
O15   O     O_R   0.831355 0.806056 0.724509 -0.330922
O16   O     O_R   0.874087 0.874771 0.521570 -0.312320
C38   C     C_3   0.687152 0.735651 0.619163 -0.655195
H16   H     H_    0.708822 0.832216 0.621503 0.276619
H17   H     H_    0.636720 0.743362 0.563320 0.220138
H18   H     H_    0.676813 0.698931 0.724174 0.229793
N11   N     N_R   0.733226 0.339558 0.393143 0.233328
O17   O     O_R   0.696868 0.267667 0.478855 -0.360805
O18   O     O_R   0.759752 0.292464 0.286803 -0.281998
N12   N     N_R   0.590343 0.135211 0.311349 0.259244
O19   O     O_R   0.654659 0.095975 0.305337 -0.225456
O20   O     O_R   0.567119 0.204540 0.209804 -0.277985

loop_
_geom_bond_atom_site_label_1
_geom_bond_atom_site_label_2
_geom_bond_distance
_ccdc_geom_bond_type
C23   C28   1.402382 A    
C31   C32   1.399173 A    
C21   C22   1.395448 A    
C7    C8    1.402195 A    
C4    C15   1.462744 S    
C38   H16   1.108450 S    
N11   O17   1.301307 A    
Zn1   O7    1.966377 S    
C14   C38   1.513368 S    
N2    C11   1.353957 A    
N4    C12   1.356356 A    
N3    N4    1.328329 A    
C17   C18   1.396416 A    
O4    C2    1.295776 A    
O7    C4    1.293021 A    
N10   O16   1.301353 A    
C5    H1    1.083177 S    
C32   H11   1.063155 S    
Zn1   O5    1.985765 S    
C16   C17   1.387864 A    
C35   C36   1.417414 A    
O5    C3    1.294709 A    
C19   C24   1.416315 A    
C13   C14   1.411390 A    
C37   H13   1.110553 S    
N7    O10   1.300774 A    
C31   N9    1.441046 S    
N11   O18   1.301939 A    
C34   N5    1.378937 A    
C22   C23   1.411357 A    
C27   N8    1.436799 S    
O3    Zn1   1.963846 S    
C38   H17   1.104252 S    
C15   C16   1.403802 A    
C21   C37   1.507863 S    
C30   C31   1.393909 A    
C33   N6    1.374133 A    
C29   H9    1.063239 S    
N8    O12   1.300667 A    
N10   O15   1.301414 A    
C33   C34   1.429725 A    
C30   H10   1.082737 S    
C13   C18   1.406491 A    
C14   C15   1.422159 A    
N5    C35   1.365616 A    
C29   C30   1.390957 A    
C17   H5    1.084312 S    
N9    O13   1.301836 A    
H12   C36   1.078832 S    
C26   C27   1.384319 A    
Zn2   O8    1.963844 S    
C2    C10   1.459330 S    
C6    H2    1.082833 S    
C8    H3    1.082947 S    
N9    O14   1.301754 A    
C3    C28   1.430133 S    
O3    C2    1.299398 A    
C20   C21   1.412699 A    
O8    C4    1.298333 A    
C20   N7    1.442038 S    
C9    C10   1.402486 A    
C29   C34   1.408528 A    
C22   H7    1.083920 S    
C8    C9    1.385028 A    
C38   H18   1.107361 S    
C23   C24   1.389689 A    
C13   N10   1.437298 S    
N1    C12   1.356383 A    
C5    C6    1.391376 A    
C25   C26   1.418818 A    
C5    C10   1.402128 A    
O1    Zn1   2.028654 S    
O2    Zn2   1.985763 S    
N12   O20   1.299526 A    
N8    O11   1.300876 A    
O6    C3    1.281812 A    
O4    Zn2   1.966380 S    
C1    C25   1.450816 S    
C26   N12   1.439966 S    
O2    C1    1.299019 A    
N1    N2    1.326466 A    
Zn2   N5    2.022165 S    
C19   C20   1.412243 A    
C19   H6    1.074482 S    
C11   C18   1.456524 S    
C37   H15   1.110847 S    
C27   C28   1.402209 A    
C6    C7    1.404939 A    
C32   C33   1.406570 A    
Zn1   N6    2.020226 S    
C36   N6    1.366548 A    
C24   C25   1.425576 A    
H8    C35   1.081588 S    
N12   O19   1.300973 A    
Zn2   O6    2.028653 S    
N7    O9    1.299637 A    
C11   N3    1.355648 A    
C37   H14   1.109944 S    
C9    H4    1.083197 S    
O1    C1    1.290930 A    
C7    C12   1.463902 S    
C16   N11   1.432679 S    
