data_mof_unit_32057.cif
_audit_creation_date              2012-12-10T17:30:25-0500
_audit_creation_method            fapswitch 2.2
_symmetry_space_group_name_H-M    P1
_symmetry_Int_Tables_number       1
_space_group_crystal_system       triclinic
_cell_length_a                    11.984577
_cell_length_b                    12.85315
_cell_length_c                    15.018764
_cell_angle_alpha                 89.851909
_cell_angle_beta                  86.203032
_cell_angle_gamma                 93.873487
_cell_volume                      2303.07462615

loop_
_atom_site_label
_atom_site_type_symbol
_atom_type_description
_atom_site_fract_x
_atom_site_fract_y
_atom_site_fract_z
_atom_type_partial_charge
C1    C     C_R   0.522591 0.700030 0.500710 0.866384
C2    C     C_R   0.394330 0.143836 0.571847 -0.198880
C3    C     C_R   0.468513 0.870134 0.554692 -0.075855
C4    C     C_R   0.531486 0.129866 0.445306 -0.075862
C5    C     C_R   0.465894 0.977092 0.536745 0.123574
C6    C     C_R   0.534103 0.022907 0.463251 0.123582
C7    C     C_R   0.955122 0.420046 0.402711 -0.115316
C8    C     C_R   0.044878 0.579942 0.597297 -0.115273
C9    C     C_R   0.838720 0.428049 0.413672 0.013072
C10   C     C_R   0.161280 0.571943 0.586333 0.013092
C11   C     C_R   0.856576 0.528767 0.544325 -0.016497
C12   C     C_R   0.477409 0.299970 0.499290 0.866374
C13   C     C_R   0.143423 0.471233 0.455675 -0.016511
C14   C     C_R   0.974952 0.528086 0.535905 -0.010609
C15   C     C_R   0.025047 0.471910 0.464099 -0.010608
C16   C     C_R   0.500337 0.500685 0.673372 0.879595
C17   C     C_R   0.499662 0.499299 0.326628 0.879589
C18   C     C_R   0.599996 0.494604 0.179759 -0.225173
C19   C     C_R   0.399992 0.505229 0.820242 -0.225167
C20   C     C_R   0.498936 0.497305 0.230781 -0.065840
C21   C     C_R   0.501058 0.502604 0.769220 -0.065834
C22   C     C_R   0.397324 0.498683 0.190597 -0.243504
C23   C     C_R   0.296832 0.502036 0.962475 -0.167685
C24   C     C_R   0.602667 0.501198 0.809406 -0.243450
C25   C     C_R   0.394885 0.497159 0.097993 0.025299
C26   C     C_R   0.605094 0.502644 0.902011 0.025314
C27   C     C_R   0.498831 0.498200 0.046407 0.070515
C28   C     C_R   0.501147 0.501582 0.953597 0.070506
C29   C     C_R   0.600859 0.496169 0.087825 0.069947
C30   C     C_R   0.399121 0.503608 0.912178 0.069892
C31   C     C_R   0.292595 0.497316 0.055478 -0.047727
C32   C     C_R   0.707374 0.502424 0.944522 -0.047695
C33   C     C_2   0.997852 0.356223 0.327236 0.897456
C34   C     C_R   0.703144 0.497689 0.037523 -0.167766
C35   C     C_2   0.002146 0.643738 0.672789 0.897487
C36   C     C_2   0.180419 0.489431 0.105166 0.437574
C37   C     C_2   0.819537 0.510262 0.894829 0.437586
C38   C     C_2   0.599120 0.182707 0.369061 0.400303
C39   C     C_2   0.400884 0.817294 0.630939 0.400299
C40   C     C_R   0.462700 0.188819 0.501805 -0.115013
C41   C     C_R   0.537299 0.811181 0.498193 -0.115016
C42   C     C_R   0.602897 0.960670 0.409729 -0.146210
C43   C     C_R   0.397098 0.039329 0.590267 -0.146208
C44   C     C_R   0.605666 0.856163 0.428149 -0.198906
H1    H     H_    0.678620 0.493252 0.211518 0.178916
H2    H     H_    0.347176 0.009685 0.648421 0.199904
H3    H     H_    0.186065 0.432823 0.400905 0.166457
H4    H     H_    0.813934 0.567181 0.599093 0.166475
H5    H     H_    0.215983 0.609632 0.632837 0.185506
H6    H     H_    0.784017 0.390355 0.367171 0.185506
H7    H     H_    0.982717 0.311462 0.199636 0.362955
H8    H     H_    0.017274 0.688443 0.800404 0.362833
H9    H     H_    0.169175 0.459284 0.172726 0.061698
H10   H     H_    0.830836 0.540768 0.827382 0.061707
H11   H     H_    0.560266 0.236866 0.327107 0.056496
H12   H     H_    0.321368 0.506579 0.788484 0.178922
H13   H     H_    0.439742 0.763139 0.672895 0.056488
H14   H     H_    0.321231 0.502975 0.232553 0.149186
H15   H     H_    0.678775 0.496957 0.767458 0.149214
H16   H     H_    0.219607 0.502080 0.928620 0.213752
H17   H     H_    0.780376 0.497623 0.071369 0.213690
H18   H     H_    0.344039 0.191226 0.616189 0.169393
H19   H     H_    0.655956 0.808773 0.383807 0.169377
H20   H     H_    0.652817 0.990314 0.351574 0.199897
N1    N     N_R   0.207800 0.519350 0.516680 -0.124773
N2    N     N_R   0.792200 0.480650 0.483320 -0.124774
O1    O     O_R   0.421700 0.658830 0.504450 -0.603588
O2    O     O_R   0.947926 0.359149 0.245767 -0.783559
O3    O     O_2   0.927440 0.702188 0.663131 -0.625738
O4    O     O_R   0.052069 0.640777 0.754258 -0.783628
O5    O     O_2   0.097344 0.515026 0.069962 -0.504122
O6    O     O_2   0.902520 0.484212 0.929899 -0.503982
O7    O     O_2   0.699506 0.172451 0.356867 -0.556459
O8    O     O_2   0.300498 0.827546 0.643135 -0.556473
O9    O     O_R   0.578300 0.341170 0.495550 -0.603590
O10   O     O_R   0.609310 0.646410 0.493750 -0.608415
O11   O     O_R   0.390690 0.353590 0.506250 -0.608410
O12   O     O_R   0.406180 0.506230 0.637500 -0.637893
O13   O     O_R   0.593820 0.493770 0.362500 -0.637900
O14   O     O_R   0.593800 0.493820 0.626800 -0.628892
O15   O     O_R   0.406200 0.506180 0.373200 -0.628901
O16   O     O_2   0.072558 0.297777 0.336910 -0.625707
Zn1   Zn    Zn3+2 0.374730 0.508290 0.507150 0.973802
Zn2   Zn    Zn3+2 0.625270 0.491710 0.492850 0.973800

loop_
_geom_bond_atom_site_label_1
_geom_bond_atom_site_label_2
_ccdc_geom_bond_type
C19   H12   S    
C25   C31   A    
C26   C32   A    
C16   C21   S    
C27   C29   A    
O14   Zn2   S    
O10   Zn2   S    
C13   N1    A    
O1    Zn1   S    
C19   C21   A    
C24   C26   A    
C5    C6    A    
C11   C14   A    
O9    Zn2   S    
N1    Zn1   S    
O11   Zn1   S    
C39   H13   S    
C17   O13   A    
C17   C20   S    
C39   O8    D    
C9    N2    A    
C36   H9    S    
O12   Zn1   S    
C38   H11   S    
C4    C40   A    
C35   O4    S    
C22   C25   A    
C33   O16   D    
C18   C20   A    
C36   O5    D    
C7    C15   A    
C5    C43   A    
C3    C39   S    
C7    C33   S    
C11   H4    S    
C42   C44   A    
O15   Zn1   S    
C44   H19   S    
C23   H16   S    
C23   C30   A    
C4    C6    A    
C13   H3    S    
C29   C34   A    
C34   H17   S    
C16   O14   A    
C8    C35   S    
C23   C31   A    
C12   C40   S    
C2    C43   A    
C12   O11   A    
C18   C29   A    
C32   C37   S    
C37   H10   S    
C1    C41   S    
C20   C22   A    
C13   C15   A    
C41   C44   A    
C37   O6    D    
C18   H1    S    
C42   H20   S    
C16   O12   A    
C10   N1    A    
C7    C9    A    
C3    C41   A    
C8    C14   A    
C14   C15   A    
C1    O10   A    
C9    H6    S    
C4    C38   S    
C3    C5    A    
C22   H14   S    
C11   N2    A    
C25   C27   A    
C26   C28   A    
C28   C30   A    
C19   C30   A    
O13   Zn2   S    
C24   H15   S    
C1    O1    A    
C17   O15   A    
H7    O2    S    
C43   H2    S    
H8    O4    S    
C12   O9    A    
N2    Zn2   S    
C2    C40   A    
C35   O3    D    
C8    C10   A    
C6    C42   A    
C21   C24   A    
C27   C28   A    
C31   C36   S    
C10   H5    S    
C2    H18   S    
C33   O2    S    
C32   C34   A    
C38   O7    D    
