data_mof_unit_34893.cif
_audit_creation_date              2013-03-05T15:43:29-0500
_audit_creation_method            fapswitch 2.2
_symmetry_space_group_name_H-M    P1
_symmetry_Int_Tables_number       1
_space_group_crystal_system       triclinic
_cell_length_a                    14.628473
_cell_length_b                    15.974122
_cell_length_c                    6.911786
_cell_angle_alpha                 89.999891
_cell_angle_beta                  81.135264
_cell_angle_gamma                 89.999873
_cell_volume                      1595.8326649

loop_
_atom_site_label
_atom_site_type_symbol
_atom_site_description
_atom_site_fract_x
_atom_site_fract_y
_atom_site_fract_z
_atom_type_partial_charge
O1    O     O_R   0.337460 0.413110 0.524760 -0.599056
O2    O     O_R   0.662540 0.913110 0.475240 -0.599037
O3    O     O_R   0.348690 0.587910 0.191230 -0.502452
O4    O     O_R   0.651310 0.087910 0.808770 -0.502449
O5    O     O_R   0.166530 0.586890 0.082470 -0.545493
O6    O     O_R   0.833470 0.086890 0.917530 -0.545487
C1    C     C_R   0.372923 0.614744 0.354398 0.903829
C2    C     C_R   0.627077 0.114744 0.645602 0.903802
O7    O     O_R   0.348700 0.413830 0.191250 -0.555468
O8    O     O_R   0.651300 0.913830 0.808750 -0.555478
O9    O     O_R   0.166530 0.411570 0.082490 -0.575067
O10   O     O_R   0.833470 0.911570 0.917510 -0.575065
C3    C     C_R   0.371393 0.386228 0.353348 0.755704
C4    C     C_R   0.628601 0.886233 0.646653 0.755631
O11   O     O_R   0.337460 0.588430 0.524740 -0.529535
O12   O     O_R   0.662540 0.088430 0.475260 -0.529536
O13   O     O_3   0.192230 0.499460 0.407330 -0.272748
O14   O     O_3   0.807770 0.999460 0.592670 -0.272747
V1    V     V_3+5 0.263080 0.500100 0.108540 1.242800
V2    V     V_3+5 0.736920 0.000100 0.891460 1.242805
O15   O     O_R   0.155290 0.412090 0.756570 -0.552677
O16   O     O_R   0.844710 0.912090 0.243430 -0.552676
C5    C     C_R   0.131654 0.383766 0.933511 0.827486
C6    C     C_R   0.868344 0.883765 0.066489 0.827492
O17   O     O_R   0.155290 0.586170 0.756550 -0.551157
O18   O     O_R   0.844710 0.086170 0.243450 -0.551168
C7    C     C_R   0.134140 0.616643 0.932542 0.910789
C8    C     C_R   0.865859 0.116644 0.067458 0.910783
V3    V     V_3+5 0.240910 0.499900 0.616030 1.223517
V4    V     V_3+5 0.759090 0.999900 0.383970 1.223516
O19   O     O_3   0.311760 0.500540 0.867100 -0.244122
O20   O     O_3   0.688240 0.000540 0.132900 -0.244101
C9    C     C_3   0.075572 0.739047 0.161395 0.266455
C10   C     C_3   0.924429 0.239045 0.838594 0.266457
H1    H     H_    0.054753 0.694723 0.285007 -0.001084
H2    H     H_    0.945252 0.194719 0.714988 -0.001096
C11   C     C_3   0.006076 0.814427 0.191767 0.257432
C12   C     C_3   0.993926 0.314425 0.808224 0.257444
H3    H     H_    0.961515 0.803785 0.335728 0.008745
H4    H     H_    0.038490 0.303782 0.664268 0.008743
H5    H     H_    0.954111 0.608281 0.116224 0.124068
H6    H     H_    0.045890 0.108282 0.883798 0.124077
H7    H     H_    0.851587 0.717265 0.189171 0.099448
H8    H     H_    0.148414 0.217265 0.810849 0.099452
C13   C     C_3   0.964511 0.655000 0.995379 -0.247190
C14   C     C_3   0.035486 0.155003 0.004637 -0.247179
C15   C     C_3   0.075043 0.751441 0.792506 -0.149346
C16   C     C_3   0.924946 0.251447 0.207482 -0.149360
C17   C     C_3   0.065234 0.689409 0.968669 -0.174602
C18   C     C_3   0.934762 0.189411 0.031329 -0.174605
H9    H     H_    0.067997 0.716753 0.656021 0.119027
H10   H     H_    0.931984 0.216763 0.343976 0.119043
H11   H     H_    0.144383 0.781010 0.767311 0.190081
H12   H     H_    0.855606 0.281018 0.232652 0.190046
C19   C     C_3   0.940773 0.813998 0.031851 -0.155881
C20   C     C_3   0.059224 0.314000 0.968149 -0.155890
C21   C     C_3   0.892405 0.727008 0.041210 -0.255770
C22   C     C_3   0.107592 0.227010 0.958805 -0.255770
C23   C     C_3   0.999695 0.820573 0.824418 -0.154779
C24   C     C_3   0.000296 0.320578 0.175575 -0.154767
H13   H     H_    0.031521 0.883409 0.798883 0.168430
H14   H     H_    0.968471 0.383415 0.201100 0.168424
H15   H     H_    0.953767 0.813185 0.711248 0.112476
H16   H     H_    0.046220 0.313191 0.288753 0.112484
H17   H     H_    0.952481 0.621806 0.859958 0.161950
H18   H     H_    0.047511 0.121812 0.140065 0.161950
H19   H     H_    0.842718 0.724624 0.934521 0.124905
H20   H     H_    0.157276 0.224628 0.065500 0.124907
H21   H     H_    0.585166 0.789732 0.360503 0.056835
H22   H     H_    0.414825 0.289728 0.639516 0.056875
C25   C     C_2   0.443616 0.681211 0.350521 -0.293757
C26   C     C_2   0.556386 0.181213 0.649485 -0.293698
C27   C     C_2   0.478803 0.705458 0.512843 0.340328
C28   C     C_2   0.521184 0.205449 0.487174 0.340272
C29   C     C_2   0.555233 0.822794 0.660455 0.294989
C30   C     C_2   0.444749 0.322779 0.339555 0.295033
C31   C     C_2   0.544328 0.776110 0.502140 -0.182789
C32   C     C_2   0.455659 0.276101 0.497877 -0.182850
H23   H     H_    0.466225 0.712574 0.212033 0.125199
H24   H     H_    0.533791 0.212585 0.787964 0.125209
N1    N     N_R   0.459865 0.659746 0.693728 0.128017
O21   O     O_R   0.525317 0.615818 0.752208 -0.376950
O22   O     O_R   0.385265 0.675875 0.816394 -0.281100
N2    N     N_R   0.540097 0.159720 0.306314 0.127993
O23   O     O_R   0.474641 0.115768 0.247928 -0.376968
O24   O     O_R   0.614679 0.175838 0.183591 -0.281151
O25   O     O_3   0.500180 0.810439 0.840295 -0.605349
C33   C     C_3   0.436997 0.877886 0.878142 0.309843
H25   H     H_    0.373602 0.863421 0.814082 0.122138
H26   H     H_    0.464894 0.939045 0.816923 -0.027021
C34   C     C_3   0.410855 0.889557 0.098265 -0.198214
H27   H     H_    0.473720 0.902903 0.164979 0.104312
H28   H     H_    0.361979 0.942835 0.128667 0.124574
H29   H     H_    0.376949 0.832395 0.165932 0.170489
O26   O     O_3   0.499809 0.310432 0.159725 -0.605398
C35   C     C_3   0.563069 0.377829 0.122034 0.309879
H30   H     H_    0.626468 0.363238 0.185950 0.122329
H31   H     H_    0.535266 0.438976 0.183508 -0.027232
C36   C     C_3   0.589165 0.389631 0.901945 -0.198302
H32   H     H_    0.526295 0.403128 0.835371 0.104473
H33   H     H_    0.638127 0.442856 0.871674 0.124613
H34   H     H_    0.622965 0.332468 0.834039 0.170325
N3    N     N_R   0.170876 0.764865 0.176040 0.114696
O27   O     O_R   0.191423 0.786784 0.345459 -0.374884
O28   O     O_R   0.236115 0.764028 0.025398 -0.367432
N4    N     N_R   0.829126 0.264863 0.823931 0.114699
O29   O     O_R   0.808597 0.286814 0.654516 -0.374847
O30   O     O_R   0.763875 0.264000 0.974547 -0.367507
N5    N     N_R   0.052157 0.895858 0.203514 0.103842
O31   O     O_R   0.034183 0.940298 0.362625 -0.356359
O32   O     O_R   0.114005 0.922880 0.061598 -0.361984
N6    N     N_R   0.947845 0.395856 0.796465 0.103848
O33   O     O_R   0.965824 0.440295 0.637353 -0.356357
O34   O     O_R   0.885992 0.422879 0.938372 -0.362017

loop_
_geom_bond_atom_site_label_1
_geom_bond_atom_site_label_2
_geom_bond_distance
_ccdc_geom_bond_type
V4    O20   2.154071 S    
O25   C33   1.417391 S    
O11   V3    2.029337 S    
C19   C23   1.558420 S    
H22   C32   1.087369 S    
O13   V3    1.704268 S    
H21   C31   1.087369 S    
O26   C35   1.417391 S    
O4    C2    1.305570 A    
V1    O19   1.710476 S    
N6    O34   1.301346 A    
N1    O21   1.300686 A    
C5    C20   1.530940 S    
C15   C17   1.559220 S    
C6    C19   1.530933 S    
C16   H12   1.108099 S    
O9    V1    2.026215 S    
N2    O24   1.300346 A    
C14   H18   1.113098 S    
O3    C1    1.305575 A    
N5    O32   1.301349 A    
C30   O26   1.387088 S    
C1    C25   1.479501 S    
C28   N2    1.437441 S    
N4    O29   1.301022 A    
C9    C17   1.577379 S    
C35   C36   1.521960 S    
C26   H24   1.085824 S    
C24   H14   1.109104 S    
H6    C14   1.112910 S    
O7    C3    1.294028 A    
O13   V1    2.163226 S    
O5    C7    1.294443 A    
C8    C18   1.533598 S    
O7    V1    2.003829 S    
O6    C8    1.294439 A    
O8    V2    2.003836 S    
C35   H31   1.116588 S    
C33   C34   1.521998 S    
O3    V1    2.020684 S    
O14   V4    1.704267 S    
C11   N5    1.473072 S    
C15   H11   1.108097 S    
C16   C18   1.559214 S    
C2    O12   1.282095 A    
C9    N3    1.472239 S    
C14   C22   1.559828 S    
C21   H19   1.112971 S    
C27   N1    1.437464 S    
N6    O33   1.301304 A    
N1    O22   1.300369 A    
C16   C24   1.551828 S    
O17   V3    2.009042 S    
C2    C26   1.479495 S    
C23   H13   1.109105 S    
C10   N4    1.472247 S    
N2    O23   1.300662 A    
C26   C28   1.360760 D    
O8    C4    1.294023 A    
H8    C22   1.112838 S    
C34   H27   1.111055 S    
C25   C27   1.360772 D    
C15   H9    1.112447 S    
C1    O11   1.282090 A    
O15   V3    2.026049 S    
C9    C11   1.568992 S    
C25   H23   1.085830 S    
C20   C24   1.558420 S    
C11   C19   1.568354 S    
C34   H28   1.110570 S    
C36   H32   1.111068 S    
C3    C30   1.468444 S    
C13   C17   1.556722 S    
C13   C21   1.559832 S    
C35   H30   1.111722 S    
O10   V2    2.026209 S    
O1    V3    2.010037 S    
N3    O28   1.299541 A    
C29   C31   1.353796 D    
C22   H20   1.112968 S    
C36   H33   1.110618 S    
C33   H26   1.116609 S    
O18   V4    2.009042 S    
O15   C5    1.299854 A    
C13   H17   1.113099 S    
O16   C6    1.299854 A    
O1    C3    1.285769 A    
C12   N6    1.473070 S    
V2    O20   1.710476 S    
C29   O25   1.387111 S    
C14   C18   1.556722 S    
H5    C13   1.112911 S    
O16   V4    2.026048 S    
C10   C12   1.569002 S    
C23   H15   1.113163 S    
C30   C32   1.353795 D    
C10   C18   1.577382 S    
O5    V1    2.006938 S    
O17   C7    1.302441 A    
O6    V2    2.006943 S    
O10   C6    1.296055 A    
O18   C8    1.302445 A    
C24   H16   1.113160 S    
O2    V4    2.010040 S    
C4    C29   1.468459 S    
C19   C21   1.556174 S    
C11   H3    1.115342 S    
N5    O31   1.301302 A    
C34   H29   1.107721 S    
C12   H4    1.115342 S    
N4    O30   1.299526 A    
O9    C5    1.296058 A    
C9    H1    1.115280 S    
C10   H2    1.115277 S    
C20   C22   1.556169 S    
O14   V2    2.163224 S    
O2    C4    1.285773 A    
H7    C21   1.112839 S    
C15   C23   1.551822 S    
O4    V2    2.020678 S    
C16   H10   1.112447 S    
C36   H34   1.107718 S    
C12   C20   1.568356 S    
C33   H25   1.111752 S    
V3    O19   2.154069 S    
C28   C32   1.475166 S    
N3    O27   1.301008 A    
C27   C31   1.475170 S    
O12   V4    2.029336 S    
C7    C17   1.533600 S    
