data_mof_unit_56153.cif
_audit_creation_date              2012-10-26T20:18:15-0400
_audit_creation_method            fapswitch 2.2
_symmetry_space_group_name_H-M    P1
_symmetry_Int_Tables_number       1
_space_group_crystal_system       triclinic
_cell_length_a                    23.346035
_cell_length_b                    8.674341
_cell_length_c                    7.435717
_cell_angle_alpha                 103.027602
_cell_angle_beta                  93.799704
_cell_angle_gamma                 92.688113
_cell_volume                      1460.87111473

loop_
_atom_site_label
_atom_site_type_symbol
_atom_type_description
_atom_site_fract_x
_atom_site_fract_y
_atom_site_fract_z
_atom_type_partial_charge
Br1   Br    Br    0.197330 0.557572 0.866284 -0.293325
Br2   Br    Br    0.815360 0.312020 0.711304 -0.336314
Br3   Br    Br    0.334734 0.686049 0.869512 -0.372770
Br4   Br    Br    0.672263 0.269002 0.708406 -0.396683
Br5   Br    Br    0.206664 0.116928 0.231301 -0.373424
Br6   Br    Br    0.794605 0.789825 0.291329 -0.438682
C1    C     C_R   0.499084 0.199736 0.453087 0.542257
C2    C     C_R   0.698344 0.611477 0.391074 0.236095
C3    C     C_R   0.238148 0.328395 0.349318 0.219316
C4    C     C_R   0.758534 0.633446 0.401666 0.203472
C5    C     C_R   0.206816 0.439629 0.469248 0.116722
C6    C     C_R   0.792653 0.541932 0.493300 0.173092
C7    C     C_2   0.498628 0.031799 0.426712 -0.138980
C8    C     C_2   0.503098 0.968404 0.573163 -0.115572
C9    C     C_R   0.390712 0.496203 0.502631 0.581587
C10   C     C_R   0.609189 0.501382 0.497026 0.615754
C11   C     C_R   0.890197 0.653954 0.585007 0.461317
C12   C     C_R   0.501908 0.800388 0.546832 0.566214
C13   C     C_R   0.111324 0.393144 0.280972 0.441919
C14   C     C_R   0.872091 0.430055 0.330825 0.459537
C15   C     C_R   0.128502 0.623532 0.514494 0.472207
C16   C     C_R   0.931463 0.416054 0.313500 -0.004556
C17   C     C_R   0.068887 0.644958 0.521431 -0.005294
C18   C     C_R   0.970264 0.532777 0.428974 -0.136841
C19   C     C_R   0.030085 0.523332 0.416113 -0.139803
C20   C     C_R   0.949199 0.660415 0.555466 -0.006540
C21   C     C_R   0.051388 0.396005 0.291193 -0.023866
C22   C     C_R   0.952994 0.289358 0.185620 0.277681
C23   C     C_R   0.236930 0.515140 0.641245 0.216353
C24   C     C_R   0.047170 0.782206 0.631002 0.271850
C25   C     C_R   0.012643 0.277442 0.178047 0.277497
C26   C     C_R   0.987566 0.789653 0.647662 0.275732
C27   C     C_3   0.898029 0.054723 0.131600 0.030446
C28   C     C_3   0.096025 0.018633 0.641793 0.011314
C29   C     C_3   0.047783 0.036023 0.165383 -0.008344
C30   C     C_3   0.944614 0.020662 0.642106 -0.007120
C31   C     C_3   0.351668 0.128131 0.322684 -0.034540
C32   C     C_3   0.662524 0.623381 0.103178 -0.035858
C33   C     C_R   0.767037 0.436282 0.587005 0.208574
C34   C     C_R   0.297016 0.542014 0.653053 0.127177
C35   C     C_R   0.706844 0.421426 0.588128 0.099903
C36   C     C_R   0.327804 0.467505 0.504023 -0.051895
C37   C     C_R   0.672250 0.510197 0.491049 -0.038866
C38   C     C_R   0.298621 0.346478 0.363466 0.244775
Cu1   Cu    Cu3+1 0.506340 0.517380 0.684380 1.019500
Cu2   Cu    Cu3+1 0.493660 0.482620 0.315620 1.045230
H1    H     H_    0.494182 0.959996 0.285694 0.140498
H2    H     H_    0.058491 0.090052 0.629214 0.107680
H3    H     H_    0.055518 0.922122 0.070527 0.221721
H4    H     H_    0.013778 0.011263 0.254026 0.019854
H5    H     H_    0.087756 0.078087 0.254204 0.144478
H6    H     H_    0.962686 0.003349 0.504809 0.010882
H7    H     H_    0.954027 0.147046 0.713147 0.197718
H8    H     H_    0.897212 0.999443 0.620545 0.216024
H9    H     H_    0.378960 0.180344 0.452154 0.081812
H10   H     H_    0.378959 0.054531 0.225132 0.168698
H11   H     H_    0.317119 0.047906 0.353624 0.180961
H12   H     H_    0.507537 0.040227 0.714172 0.147511
H13   H     H_    0.640181 0.699788 0.023648 0.152671
H14   H     H_    0.638014 0.506363 0.074040 0.159944
H15   H     H_    0.705778 0.607190 0.050250 0.184922
H16   H     H_    0.456720 0.373501 0.948239 0.254904
H17   H     H_    0.541865 0.629372 0.052483 0.239452
H18   H     H_    0.854738 0.009071 0.065294 0.241505
H19   H     H_    0.894207 0.087428 0.283921 0.095043
H20   H     H_    0.926799 0.956246 0.096208 0.169865
H21   H     H_    0.110545 0.967024 0.502798 0.113586
H22   H     H_    0.131575 0.100903 0.720201 0.223807
N1    N     N_R   0.853240 0.541843 0.470902 -0.374788
N2    N     N_R   0.147814 0.481360 0.423249 -0.382945
N3    N     N_2   0.484110 0.456420 0.038520 -0.238536
N4    N     N_2   0.515890 0.543580 0.961480 -0.259688
O1    O     O_R   0.504120 0.286130 0.619770 -0.505074
O2    O     O_2   0.131619 0.319752 0.121247 -0.371986
O3    O     O_2   0.833086 0.332506 0.211006 -0.396456
O4    O     O_2   0.166818 0.745190 0.592442 -0.394748
O5    O     O_3   0.916327 0.183034 0.056831 -0.487589
O6    O     O_3   0.083990 0.901482 0.740721 -0.475205
O7    O     O_3   0.032205 0.146723 0.060416 -0.466664
O8    O     O_3   0.967907 0.925031 0.756526 -0.490475
O9    O     O_3   0.328902 0.244885 0.237837 -0.500703
O10   O     O_3   0.664975 0.697693 0.293668 -0.528606
O11   O     O_R   0.495880 0.713870 0.380230 -0.505174
O12   O     O_R   0.493410 0.256770 0.308360 -0.501108
O13   O     O_R   0.506590 0.743230 0.691640 -0.491814
O14   O     O_R   0.423230 0.514630 0.655730 -0.479554
O15   O     O_R   0.576770 0.485370 0.344270 -0.486426
O16   O     O_R   0.412530 0.485280 0.344320 -0.445147
O17   O     O_R   0.587470 0.514720 0.655680 -0.491148
O18   O     O_2   0.869798 0.756195 0.727430 -0.435953

loop_
_geom_bond_atom_site_label_1
_geom_bond_atom_site_label_2
_ccdc_geom_bond_type
C6    N1    S    
C20   C26   A    
C8    C12   S    
C2    C37   A    
C5    N2    S    
C27   H19   S    
C1    O1    A    
Cu1   Cu2   S    
C11   N1    A    
C15   O4    S    
C2    O10   S    
C11   C20   A    
C18   C20   A    
Br4   C35   S    
Cu1   O1    S    
C30   H7    S    
C31   H10   S    
Br2   C33   S    
C29   H3    S    
C10   O15   A    
C13   C21   A    
C30   H6    S    
C32   H15   S    
C34   C36   A    
C1    O12   A    
C10   O17   A    
C16   C22   A    
C7    C8    D    
C32   O10   S    
Cu1   N4    S    
C35   C37   A    
C31   O9    S    
C36   C38   A    
C27   H20   S    
Cu2   O16   S    
C13   O2    S    
C8    H12   S    
C12   O13   A    
C21   C25   A    
C17   C24   A    
C18   C19   A    
C33   C35   A    
C38   O9    S    
C30   O8    S    
C28   H22   S    
C7    H1    S    
Cu2   O11   S    
C14   O3    S    
C24   O6    S    
Cu1   O13   S    
Br5   C3    S    
C26   O8    S    
C29   H4    S    
Br1   C23   S    
C12   O11   A    
C22   O5    S    
C3    C5    A    
C10   C37   S    
Cu2   N3    S    
C4    C6    A    
C9    O14   A    
C32   H14   S    
C14   C16   A    
Br3   C34   S    
C15   C17   A    
C29   H5    S    
Cu2   O12   S    
C14   N1    A    
C28   H2    S    
Cu1   O17   S    
Cu2   O15   S    
C3    C38   A    
C22   C25   A    
C11   O18   S    
C9    C36   S    
C28   H21   S    
Br6   C4    S    
C25   O7    S    
C19   C21   A    
C15   N2    A    
C6    C33   A    
Cu1   O14   S    
N3    N4    D    
C28   O6    S    
C24   C26   A    
C27   O5    S    
C27   H18   S    
C23   C34   A    
C29   O7    S    
H16   N3    S    
C16   C18   A    
C17   C19   A    
C30   H8    S    
C32   H13   S    
C31   H9    S    
C1    C7    S    
H17   N4    S    
C5    C23   A    
C2    C4    A    
C13   N2    A    
C31   H11   S    
C9    O16   A    
