data_mof_unit_35861.cif
_audit_creation_date              2012-12-11T15:21:21-0500
_audit_creation_method            fapswitch 2.2
_symmetry_space_group_name_H-M    P1
_symmetry_Int_Tables_number       1
_space_group_crystal_system       triclinic
_cell_length_a                    18.409314
_cell_length_b                    18.336168
_cell_length_c                    51.224953
_cell_angle_alpha                 90.10731
_cell_angle_beta                  90.274914
_cell_angle_gamma                 120.122265
_cell_volume                      14955.8701658

loop_
_atom_site_label
_atom_site_type_symbol
_atom_type_description
_atom_site_fract_x
_atom_site_fract_y
_atom_site_fract_z
_atom_type_partial_charge
C1    C     C_R   0.408478 0.584868 0.287968 0.616176
C2    C     C_R   0.407431 0.584632 0.211998 0.599762
C3    C     C_R   0.088810 0.526336 0.365463 0.268811
C4    C     C_R   0.070543 0.501075 0.136272 0.246705
C5    C     C_R   0.640250 0.510777 0.675175 -0.143064
C6    C     C_R   0.498958 0.397196 0.826955 -0.092536
C7    C     C_R   0.500547 0.389122 0.671493 -0.092086
C8    C     C_R   0.638647 0.518691 0.823008 -0.130871
C9    C     C_R   0.497737 0.407295 0.645192 -0.088772
C10   C     C_R   0.632618 0.544608 0.848126 -0.087044
C11   C     C_R   0.566983 0.475716 0.633479 0.250018
C12   C     C_R   0.560919 0.495906 0.863114 0.241422
C13   C     C_R   0.591494 0.604553 0.485881 0.049267
C14   C     C_R   0.516326 0.612154 0.008139 0.054599
C15   C     C_R   0.572690 0.535373 0.469163 -0.078203
C16   C     C_R   0.533293 0.562234 0.025598 -0.075334
C17   C     C_R   0.558472 0.457514 0.479576 -0.012034
C18   C     C_R   0.556929 0.504773 0.015847 0.000204
C19   C     C_R   0.626162 0.685830 0.474735 0.427609
C20   C     C_R   0.507786 0.678895 0.018694 0.417075
C21   C     C_R   0.524087 0.397661 0.435185 0.405815
C22   C     C_R   0.544879 0.448941 0.059915 0.401614
C23   C     C_R   0.580715 0.389433 0.518590 -0.079770
C24   C     C_R   0.625213 0.475102 0.979074 -0.071643
C25   C     C_R   0.048500 0.499292 0.446811 -0.112584
C26   C     C_R   0.015012 0.446741 0.055855 -0.110060
C27   C     C_R   0.582948 0.381938 0.545556 -0.068639
C28   C     C_R   0.635528 0.470654 0.952404 -0.080218
C29   C     C_R   0.532543 0.387530 0.462162 0.274274
C30   C     C_R   0.557974 0.444499 0.033035 0.270634
C31   C     C_R   0.590955 0.175180 0.712471 0.569690
C32   C     C_R   0.591183 0.175124 0.787509 0.552089
C33   C     C_R   0.825276 0.416037 0.712494 0.592923
C34   C     C_R   0.824279 0.415775 0.787856 0.590739
C35   C     C_R   0.584437 0.408619 0.712220 0.564547
C36   C     C_R   0.584653 0.409337 0.787626 0.556719
C37   C     C_R   0.986552 0.441741 0.429333 -0.020400
C38   C     C_R   0.957093 0.452365 0.072489 -0.022279
C39   C     C_R   0.911222 0.376037 0.439073 -0.035726
C40   C     C_R   0.884886 0.448049 0.061816 -0.060230
C41   C     C_R   0.125834 0.564239 0.437089 0.003406
C42   C     C_R   0.088789 0.452570 0.066470 -0.010373
C43   C     C_R   0.133651 0.560950 0.312873 -0.040270
C44   C     C_R   0.130545 0.557252 0.187295 -0.081921
C45   C     C_R   0.871450 0.430003 0.687621 -0.017070
C46   C     C_R   0.868105 0.428477 0.813386 -0.027168
C47   C     C_R   0.933814 0.431192 0.510180 -0.010179
C48   C     C_R   0.905510 0.408840 0.991133 0.000581
C49   C     C_R   0.082297 0.532436 0.518981 0.009576
C50   C     C_R   0.050349 0.441492 0.984123 0.007425
C51   C     C_R   0.000015 0.478272 0.528130 -0.007809
C52   C     C_R   0.971353 0.423201 0.973960 -0.011295
C53   C     C_R   0.175177 0.590886 0.287477 0.600810
C54   C     C_R   0.175412 0.590838 0.212331 0.554844
C55   C     C_R   0.850860 0.388851 0.519522 -0.042098
C56   C     C_R   0.824107 0.376568 0.980682 -0.008114
C57   C     C_R   0.834053 0.384333 0.546007 0.401664
C58   C     C_R   0.809894 0.369487 0.953905 0.373559
C59   C     C_R   0.900133 0.422939 0.564276 0.035701
C60   C     C_R   0.877088 0.394393 0.936479 0.023188
C61   C     C_R   0.983679 0.470885 0.555358 -0.134269
C62   C     C_R   0.958170 0.420138 0.946503 -0.133524
C63   C     C_R   0.050662 0.511591 0.573524 0.028612
C64   C     C_R   0.026128 0.443854 0.929224 0.033043
C65   C     C_R   0.032466 0.501103 0.600478 0.477317
C66   C     C_R   0.011672 0.443360 0.902051 0.423642
C67   C     C_R   0.884641 0.416689 0.591215 0.432763
C68   C     C_R   0.865522 0.394827 0.909321 0.492616
C69   C     C_R   0.894151 0.370714 0.648176 -0.060812
C70   C     C_R   0.918978 0.372328 0.847405 -0.064436
C71   C     C_R   0.863780 0.360458 0.673465 0.317199
C72   C     C_R   0.893044 0.370969 0.821687 0.312006
C73   C     C_R   0.915375 0.511476 0.676352 0.225495
C74   C     C_R   0.876915 0.492425 0.830969 0.224418
C75   C     C_R   0.415384 0.823602 0.287739 0.641261
C76   C     C_R   0.415668 0.824374 0.212267 0.578223
C77   C     C_R   0.943470 0.520923 0.650322 0.313962
C78   C     C_R   0.903065 0.493453 0.856873 0.318998
C79   C     C_R   0.931499 0.449573 0.636184 0.125127
C80   C     C_R   0.920889 0.430818 0.865329 0.119206
C81   C     C_R   0.952408 0.430266 0.483387 0.041182
C82   C     C_R   0.923048 0.426050 0.018192 0.056175
C83   C     C_R   0.032547 0.491874 0.474036 -0.063134
C84   C     C_R   0.999374 0.436375 0.028505 -0.062562
C85   C     C_R   0.096201 0.546658 0.491734 -0.004423
C86   C     C_R   0.060549 0.437602 0.011555 -0.003879
C87   C     C_R   0.894438 0.369337 0.465597 0.365089
C88   C     C_R   0.868738 0.436848 0.035161 0.349028
C89   C     C_R   0.186990 0.622039 0.454755 0.328608
C90   C     C_R   0.145206 0.444754 0.049616 0.311343
C91   C     C_R   0.148394 0.568765 0.537337 -0.069076
C92   C     C_R   0.117722 0.467551 0.966650 -0.062480
C93   C     C_R   0.133534 0.561282 0.564192 0.270667
C94   C     C_R   0.106996 0.470902 0.939717 0.269351
C95   C     C_R   0.170437 0.615084 0.481543 0.353639
C96   C     C_R   0.129308 0.434470 0.022694 0.371550
C97   C     C_R   0.001445 0.450588 0.402397 0.493392
C98   C     C_R   0.974504 0.466371 0.099354 0.478183
C99   C     C_R   0.370113 0.895161 0.409988 0.471275
C100  C     C_R   0.411840 0.861058 0.089524 0.461374
C101  C     C_R   0.515935 0.935884 0.408706 0.446262
C102  C     C_R   0.510207 0.008316 0.096296 0.455383
C103  C     C_R   0.486747 0.952883 0.350154 -0.009787
C104  C     C_R   0.517622 0.927339 0.148462 -0.021722
C105  C     C_R   0.481591 0.931863 0.323584 0.333024
C106  C     C_R   0.508628 0.903913 0.174629 0.340143
C107  C     C_R   0.366804 0.791505 0.333160 0.323508
C108  C     C_R   0.360823 0.861953 0.172348 0.299603
C109  C     C_R   0.373178 0.812038 0.359501 -0.067053
C110  C     C_R   0.370847 0.886523 0.146182 -0.052267
C111  C     C_R   0.432902 0.892604 0.368338 0.105094
C112  C     C_R   0.448403 0.916190 0.133874 0.112573
C113  C     C_R   0.449019 0.924052 0.450717 -0.163287
C114  C     C_R   0.477292 0.951558 0.052002 -0.147176
C115  C     C_R   0.372576 0.899374 0.437477 0.066119
C116  C     C_R   0.420388 0.871355 0.062267 0.051206
C117  C     C_R   0.300146 0.878249 0.452046 0.460180
C118  C     C_R   0.374069 0.803373 0.045031 0.382782
C119  C     C_R   0.138630 0.570585 0.409835 0.479046
C120  C     C_R   0.104035 0.466622 0.093637 0.471068
C121  C     C_R   0.522058 0.944791 0.436206 -0.035418
C122  C     C_R   0.522910 0.020930 0.069093 -0.014276
C123  C     C_R   0.420981 0.851043 0.314974 0.075525
C124  C     C_R   0.429026 0.867133 0.186669 0.021908
C125  C     C_R   0.556292 0.125298 0.688380 0.030633
C126  C     C_R   0.558920 0.126669 0.811895 0.024942
C127  C     C_R   0.385830 0.924541 0.520452 -0.015895
C128  C     C_R   0.439030 0.910025 0.980057 -0.004914
C129  C     C_R   0.530765 0.951293 0.519462 0.055340
C130  C     C_R   0.564437 0.049056 0.987056 0.061843
C131  C     C_R   0.461615 0.944585 0.533581 -0.033230
C132  C     C_R   0.504669 0.986650 0.969977 -0.034507
C133  C     C_R   0.319196 0.919910 0.535368 -0.088838
C134  C     C_R   0.377988 0.851727 0.962482 -0.058516
C135  C     C_R   0.327150 0.935634 0.562124 0.393205
C136  C     C_R   0.381705 0.868090 0.935826 0.417289
C137  C     C_R   0.402490 0.956827 0.575251 0.039346
C138  C     C_R   0.447895 0.943056 0.925534 0.053449
C139  C     C_R   0.468922 0.958901 0.561040 -0.109624
C140  C     C_R   0.510790 0.001331 0.942647 -0.111011
C141  C     C_R   0.085052 0.592792 0.353209 0.266941
C142  C     C_R   0.093643 0.583728 0.144019 0.252031
C143  C     C_R   0.543383 0.976416 0.574170 -0.022744
C144  C     C_R   0.579899 0.074658 0.932542 -0.026792
C145  C     C_R   0.554127 0.000158 0.600642 0.455679
C146  C     C_R   0.583326 0.091164 0.905718 0.442513
C147  C     C_R   0.414195 0.978175 0.602066 0.449004
C148  C     C_R   0.452938 0.962137 0.898660 0.462011
C149  C     C_R   0.497516 0.110438 0.644854 -0.002819
C150  C     C_R   0.487090 0.103750 0.853383 -0.020093
C151  C     C_R   0.520892 0.152061 0.668923 0.369390
C152  C     C_R   0.504299 0.138329 0.828329 0.357926
C153  C     C_R   0.564355 0.054183 0.683755 -0.174554
C154  C     C_R   0.590866 0.075240 0.820423 -0.177493
C155  C     C_R   0.538879 0.011317 0.659885 -0.062869
C156  C     C_R   0.573296 0.040795 0.845390 -0.069589
C157  C     C_R   0.507246 0.040406 0.639960 0.163977
C158  C     C_R   0.523347 0.056885 0.862186 0.178912
C159  C     C_R   0.379748 0.911378 0.492909 -0.000620
C160  C     C_R   0.435843 0.895044 0.007378 0.006379
C161  C     C_R   0.452496 0.928719 0.478520 -0.055070
C162  C     C_R   0.487852 0.962467 0.024528 -0.049842
C163  C     C_R   0.105506 0.608336 0.326645 -0.110925
C164  C     C_R   0.121610 0.610685 0.169623 -0.122814
C165  C     C_R   0.529189 0.952788 0.491717 0.007943
C166  C     C_R   0.548883 0.041283 0.014311 0.020230
C167  C     C_R   0.303744 0.883539 0.479103 -0.032123
C168  C     C_R   0.381391 0.815318 0.018190 -0.046060
C169  C     C_R   0.599331 0.974902 0.449542 0.294074
C170  C     C_R   0.578324 0.101161 0.058497 0.294433
C171  C     C_R   0.598086 0.954176 0.533825 0.470525
C172  C     C_R   0.638539 0.115708 0.976149 0.431420
C173  C     C_R   0.605502 0.969594 0.560563 -0.020284
C174  C     C_R   0.645085 0.128902 0.949358 -0.025118
C175  C     C_R   0.602959 0.983512 0.476696 0.440138
C176  C     C_R   0.588032 0.111084 0.031447 0.413962
C177  C     C_R   0.589385 0.632692 0.404151 0.461957
C178  C     C_R   0.498424 0.635356 0.089874 0.480190
C179  C     C_R   0.536723 0.488153 0.397853 0.495926
C180  C     C_R   0.523743 0.520603 0.097124 0.441047
C181  C     C_R   0.439050 0.489540 0.350597 0.273101
C182  C     C_R   0.395972 0.525108 0.140611 0.262255
C183  C     C_R   0.415162 0.495838 0.324724 0.206112
C184  C     C_R   0.372743 0.522984 0.166779 0.196774
C185  C     C_R   0.133230 0.492343 0.325144 -0.111356
C186  C     C_R   0.105200 0.474176 0.179603 -0.082680
C187  C     C_R   0.477611 0.646192 0.330656 0.343589
C188  C     C_R   0.518686 0.622008 0.178297 0.316658
C189  C     C_R   0.499066 0.639445 0.356346 0.296165
C190  C     C_R   0.542544 0.620870 0.152351 0.286919
C191  C     C_R   0.495527 0.563900 0.365107 0.072950
C192  C     C_R   0.480690 0.575181 0.133387 0.149737
C193  C     C_R   0.569118 0.545124 0.441847 -0.129935
C194  C     C_R   0.526112 0.569535 0.052894 -0.129029
C195  C     C_R   0.595537 0.625179 0.431242 -0.038826
C196  C     C_R   0.509745 0.631611 0.062855 -0.049513
C197  C     C_R   0.628619 0.695608 0.447763 -0.075456
C198  C     C_R   0.503672 0.687535 0.045584 -0.071883
C199  C     C_R   0.543981 0.476364 0.424852 -0.010290
C200  C     C_R   0.533458 0.513665 0.070123 0.009524
C201  C     C_R   0.438217 0.575447 0.314163 -0.059761
C202  C     C_R   0.433993 0.573690 0.185717 -0.064813
C203  C     C_R   0.573220 0.438678 0.686494 -0.015862
C204  C     C_R   0.572755 0.443529 0.812405 -0.029364
C205  C     C_R   0.578165 0.590287 0.513075 -0.027579
C206  C     C_R   0.511325 0.594749 0.980861 -0.013436
C207  C     C_R   0.111059 0.475196 0.351294 0.383016
C208  C     C_R   0.075204 0.446178 0.154338 0.422202
C209  C     C_R   0.569997 0.453276 0.507069 0.055601
C210  C     C_R   0.576163 0.508038 0.988923 0.061531
C211  C     C_R   0.573056 0.516813 0.523764 -0.049636
C212  C     C_R   0.547313 0.547554 0.971307 -0.047903
C213  C     C_R   0.566282 0.644817 0.529828 0.460964
C214  C     C_R   0.469116 0.619444 0.962865 0.455559
C215  C     C_R   0.560893 0.632975 0.556776 0.438608
C216  C     C_R   0.471996 0.607135 0.936047 0.433607
C217  C     C_R   0.565797 0.565492 0.567953 -0.032434
C218  C     C_R   0.515550 0.568165 0.926216 -0.026630
C219  C     C_R   0.571535 0.507033 0.551335 -0.110623
C220  C     C_R   0.553556 0.538551 0.944002 -0.107694
C221  C     C_R   0.575761 0.438698 0.562182 0.044633
C222  C     C_R   0.597185 0.498988 0.934625 0.040239
C223  C     C_R   0.574581 0.429619 0.589457 0.447560
C224  C     C_R   0.601496 0.488473 0.907659 0.426507
C225  C     C_R   0.563086 0.553506 0.595255 0.486276
C226  C     C_R   0.519647 0.554879 0.899178 0.493475
C227  C     C_R   0.637412 0.530294 0.648726 0.315017
C228  C     C_R   0.493541 0.421891 0.852523 0.319731
Cr1   Cr    Cr6+3 0.456550 0.732290 0.250000 1.217461
Cr2   Cr    Cr6+3 0.275740 0.543450 0.250000 1.046613
Cr3   Cr    Cr6+3 0.267710 0.724260 0.250000 1.122043
Cr4   Cr    Cr6+3 0.543450 0.275740 0.750000 1.116589
Cr5   Cr    Cr6+3 0.724260 0.267710 0.750000 1.157701
Cr6   Cr    Cr6+3 0.732290 0.456550 0.750000 1.036897
H1    H     H_    0.153755 0.454320 0.314878 0.145816
H2    H     H_    0.110671 0.431479 0.192961 0.161043
H3    H     H_    0.213196 0.600630 0.531315 0.202332
H4    H     H_    0.181121 0.490956 0.973542 0.210968
H5    H     H_    0.332652 0.764297 0.373261 0.183192
H6    H     H_    0.317394 0.879411 0.135117 0.159349
H7    H     H_    0.474439 0.134585 0.629615 0.181466
H8    H     H_    0.449175 0.117112 0.866482 0.136497
H9    H     H_    0.260461 0.907230 0.526793 0.151137
H10   H     H_    0.324219 0.794014 0.968960 0.130316
H11   H     H_    0.244918 0.863930 0.488713 0.158269
H12   H     H_    0.344855 0.760073 0.006235 0.165620
H13   H     H_    0.533211 0.015556 0.356643 0.199298
H14   H     H_    0.578024 0.950990 0.139168 0.185703
H15   H     H_    0.591295 0.032425 0.698522 0.150867
H16   H     H_    0.632586 0.064644 0.808208 0.163607
H17   H     H_    0.864671 0.328697 0.426110 0.206118
H18   H     H_    0.841566 0.456249 0.074025 0.189159
H19   H     H_    0.659975 0.975267 0.570661 0.204441
H20   H     H_    0.702125 0.181532 0.941774 0.213952
H21   H     H_    0.546079 0.956931 0.656626 0.174807
H22   H     H_    0.602014 0.005182 0.852182 0.157195
H23   H     H_    0.654637 0.758456 0.439874 0.155696
H24   H     H_    0.495757 0.738627 0.052860 0.193866
H25   H     H_    0.696704 0.549024 0.686464 0.114431
H26   H     H_    0.446881 0.339895 0.819009 0.181680
H27   H     H_    0.591852 0.346774 0.507217 0.164347
H28   H     H_    0.658854 0.455311 0.991802 0.178319
H29   H     H_    0.447695 0.333333 0.679613 0.190014
H30   H     H_    0.696310 0.555915 0.812312 0.174146
H31   H     H_    0.590269 0.331086 0.553354 0.212955
H32   H     H_    0.672819 0.443789 0.945740 0.229000
H33   H     H_    0.442996 0.365863 0.633548 0.153374
H34   H     H_    0.685322 0.600685 0.856430 0.153363
H35   H     H_    0.885275 0.316084 0.637297 0.193723
H36   H     H_    0.933491 0.324793 0.853813 0.190704
H37   H     H_    0.797226 0.361759 0.506550 0.206171
H38   H     H_    0.769603 0.353419 0.992994 0.235261
H39   H     H_    0.102849 0.659523 0.317091 0.154322
H40   H     H_    0.140516 0.674882 0.175115 0.216958
N1    N     N_R   0.076168 0.515030 0.393109 -0.340820
N2    N     N_R   0.048150 0.475364 0.109420 -0.356347
N3    N     N_R   0.950406 0.455215 0.608793 -0.412457
N4    N     N_R   0.932884 0.421643 0.892699 -0.407124
N5    N     N_R   0.440514 0.910687 0.396052 -0.404207
N6    N     N_R   0.455878 0.929207 0.106033 -0.400522
N7    N     N_R   0.490769 0.003417 0.614074 -0.393398
N8    N     N_R   0.519412 0.036000 0.889343 -0.404828
N9    N     N_R   0.539703 0.561360 0.389137 -0.384379
N10   N     N_R   0.503720 0.578895 0.106420 -0.356889
N11   N     N_R   0.567818 0.486429 0.605561 -0.378632
N12   N     N_R   0.561558 0.514785 0.890425 -0.388778
O1    O     O_R   0.475290 0.813700 0.278840 -0.412126
O2    O     O_R   0.475290 0.813700 0.221160 -0.421435
O3    O     O_2   0.205147 0.625347 0.400831 -0.496764
O4    O     O_2   0.167868 0.473108 0.103266 -0.403255
O5    O     O_2   0.089157 0.532743 0.616633 -0.397303
O6    O     O_2   0.069158 0.463733 0.886669 -0.443127
O7    O     O_2   0.305254 0.877636 0.398314 -0.443697
O8    O     O_2   0.366015 0.791235 0.098699 -0.448791
O9    O     O_2   0.356735 0.975265 0.614741 -0.416143
O10   O     O_2   0.398429 0.913565 0.883540 -0.408971
O11   O     O_2   0.577207 0.948831 0.395985 -0.428728
O12   O     O_2   0.547276 0.067495 0.111435 -0.433416
O13   O     O_2   0.620934 0.020518 0.611527 -0.478885
O14   O     O_2   0.642750 0.155122 0.896867 -0.452326
O15   O     O_2   0.631769 0.701356 0.393934 -0.422631
O16   O     O_2   0.482391 0.687684 0.098676 -0.449537
O17   O     O_2   0.556290 0.602377 0.609910 -0.418432
O18   O     O_2   0.485901 0.578511 0.883410 -0.387553
O19   O     O_2   0.532744 0.435977 0.382223 -0.337185
O20   O     O_2   0.531036 0.473567 0.112426 -0.455677
O21   O     O_2   0.579924 0.371330 0.598957 -0.459809
O22   O     O_2   0.639652 0.454601 0.899426 -0.455252
O23   O     O_R   0.448450 0.657720 0.276690 -0.431982
O24   O     O_R   0.448450 0.657720 0.223310 -0.437053
O25   O     O_R   0.524710 0.338410 0.721160 -0.472282
O26   O     O_R   0.524710 0.338410 0.778840 -0.471645
O27   O     O_R   0.551550 0.209270 0.723310 -0.455067
O28   O     O_R   0.551550 0.209270 0.776690 -0.437957
O29   O     O_R   0.661590 0.186300 0.721160 -0.470433
O30   O     O_R   0.661590 0.186300 0.778840 -0.505614
O31   O     O_R   0.790730 0.342280 0.723310 -0.421090
O32   O     O_R   0.790730 0.342280 0.776690 -0.428575
O33   O     O_R   0.813700 0.475290 0.721160 -0.495348
O34   O     O_R   0.813700 0.475290 0.778840 -0.486995
O35   O     O_R   0.657720 0.448450 0.723310 -0.514896
O36   O     O_R   0.657720 0.448450 0.776690 -0.498370
O37   O     O_3   0.666667 0.333333 0.750000 -0.278319
O38   O     O_R   0.338410 0.524710 0.278840 -0.499986
O39   O     O_R   0.338410 0.524710 0.221160 -0.495610
O40   O     O_R   0.209270 0.551550 0.276690 -0.504523
O41   O     O_R   0.209270 0.551550 0.223310 -0.494663
O42   O     O_R   0.186300 0.661590 0.278840 -0.483927
O43   O     O_R   0.186300 0.661590 0.221160 -0.468932
O44   O     O_R   0.342280 0.790730 0.276690 -0.485295
O45   O     O_R   0.342280 0.790730 0.223310 -0.448348
O46   O     O_3   0.333333 0.666667 0.250000 -0.287404
O47   O     O_2   0.947731 0.401644 0.387106 -0.453437
O48   O     O_2   0.924597 0.471434 0.113844 -0.468172
O49   O     O_2   0.812496 0.377711 0.599198 -0.403111
O50   O     O_2   0.795720 0.372295 0.900328 -0.353475
O51   O     O_3   0.058339 0.639196 0.367546 -0.543509
C229  C     C_3   0.117912 0.726123 0.366288 -0.025722
H41   H     H_    0.109280 0.753954 0.348128 0.120312
H42   H     H_    0.183716 0.739088 0.367893 0.175668
H43   H     H_    0.107417 0.758254 0.382991 0.212136
O52   O     O_3   0.088335 0.638176 0.126539 -0.538612
C230  C     C_3   0.167943 0.688356 0.115222 -0.047995
H44   H     H_    0.187314 0.649289 0.103818 0.177981
H45   H     H_    0.216362 0.726030 0.130241 0.154435
H46   H     H_    0.164384 0.733220 0.101510 0.170027
O53   O     O_3   0.259698 0.691224 0.445771 -0.482463
C231  C     C_3   0.327796 0.677682 0.449987 -0.071824
H47   H     H_    0.318234 0.620244 0.439499 0.103123
H48   H     H_    0.338982 0.673393 0.471135 0.176518
H49   H     H_    0.385387 0.732383 0.442150 0.122785
O54   O     O_3   0.212580 0.439671 0.059510 -0.494088
C232  C     C_3   0.286695 0.517436 0.055451 -0.004731
H50   H     H_    0.285351 0.569169 0.066408 0.204561
H51   H     H_    0.298385 0.533472 0.034378 0.167016
H52   H     H_    0.340275 0.512193 0.062985 0.143693
O55   O     O_3   0.934621 0.581873 0.691449 -0.509966
C233  C     C_3   0.888485 0.619953 0.682798 -0.049015
H53   H     H_    0.829825 0.576386 0.671902 0.105457
H54   H     H_    0.928935 0.675589 0.670602 0.163086
H55   H     H_    0.869864 0.643082 0.700102 0.132781
O56   O     O_3   0.850337 0.548158 0.824009 -0.517967
C234  C     C_3   0.920572 0.623855 0.815623 -0.073686
H56   H     H_    0.898388 0.666233 0.808275 0.143300
H57   H     H_    0.953759 0.612822 0.799310 0.125332
H58   H     H_    0.964945 0.656910 0.832013 0.131630
O57   O     O_3   0.201258 0.599005 0.581246 -0.506940
C235  C     C_3   0.232131 0.686741 0.581667 -0.031925
H59   H     H_    0.182005 0.701224 0.586877 0.156878
H60   H     H_    0.260985 0.716279 0.562700 0.131349
H61   H     H_    0.281938 0.715827 0.596846 0.179859
O58   O     O_3   0.176070 0.498124 0.923690 -0.497421
C236  C     C_3   0.222054 0.587087 0.924196 0.018897
H62   H     H_    0.251887 0.611279 0.943626 0.154756
H63   H     H_    0.182082 0.614496 0.918744 0.128051
H64   H     H_    0.273020 0.609047 0.909607 0.250538
O59   O     O_3   0.985557 0.600736 0.639458 -0.511869
C237  C     C_3   0.933672 0.609612 0.620770 -0.084454
H65   H     H_    0.865166 0.570836 0.624958 0.134821
H66   H     H_    0.946628 0.594723 0.600947 0.140222
H67   H     H_    0.949619 0.676526 0.620594 0.153676
O60   O     O_3   0.900699 0.550164 0.874292 -0.501360
C238  C     C_3   0.982394 0.607238 0.883634 -0.083818
H68   H     H_    0.986571 0.668855 0.887337 0.152805
H69   H     H_    0.033241 0.618775 0.869606 0.113297
H70   H     H_    0.993627 0.585183 0.902558 0.136038
F1    F     F_    0.224045 0.680997 0.496895 -0.657830
F2    F     F_    0.177842 0.413848 0.008103 -0.611662
F3    F     F_    0.310720 0.711575 0.325612 -0.643429
F4    F     F_    0.283393 0.829091 0.183034 -0.617858
F5    F     F_    0.224426 0.850900 0.440287 -0.562068
F6    F     F_    0.319909 0.724755 0.053942 -0.638116
F7    F     F_    0.115522 0.411598 0.363269 -0.617957
F8    F     F_    0.053129 0.366379 0.147162 -0.583723
F9    F     F_    0.513913 0.221621 0.672524 -0.620429
F10   F     F_    0.472485 0.187903 0.821047 -0.637307
F11   F     F_    0.260815 0.931747 0.574907 -0.569355
F12   F     F_    0.319740 0.809820 0.920235 -0.598490
F13   F     F_    0.535234 0.989950 0.306395 -0.575965
F14   F     F_    0.577452 0.913859 0.187657 -0.550828
O61   O     O_3   0.673712 0.004810 0.435986 -0.467770
C239  C     C_3   0.698188 0.943240 0.436897 0.007874
H71   H     H_    0.649407 0.882834 0.427948 0.126735
H72   H     H_    0.712217 0.932496 0.457219 0.198257
H73   H     H_    0.756451 0.965961 0.425386 0.181305
O62   O     O_3   0.616898 0.172150 0.074326 -0.492345
C240  C     C_3   0.702932 0.198080 0.076756 -0.030341
H74   H     H_    0.736236 0.221191 0.057881 0.171900
H75   H     H_    0.712060 0.146524 0.084529 0.131692
H76   H     H_    0.732256 0.251340 0.090849 0.170453
F15   F     F_    0.653226 0.934886 0.522757 -0.501571
F16   F     F_    0.708282 0.163649 0.990838 -0.593008
F17   F     F_    0.680235 0.031033 0.487647 -0.519312
F18   F     F_    0.627899 0.191015 0.022165 -0.610551
F19   F     F_    0.488613 0.721755 0.322841 -0.563213
F20   F     F_    0.577861 0.672840 0.195991 -0.576234
O63   O     O_3   0.514308 0.705132 0.372990 -0.449299
C241  C     C_3   0.442031 0.680988 0.388177 -0.078379
H77   H     H_    0.431747 0.630552 0.402220 0.082675
H78   H     H_    0.385024 0.660015 0.375769 0.147937
H79   H     H_    0.451535 0.736519 0.399630 0.149686
O64   O     O_3   0.624829 0.672290 0.144643 -0.494865
C242  C     C_3   0.673492 0.637242 0.153353 -0.035128
H80   H     H_    0.646221 0.570392 0.147046 0.150346
H81   H     H_    0.681749 0.642363 0.174901 0.187388
H82   H     H_    0.736819 0.673352 0.144591 0.163086
O65   O     O_3   0.706752 0.595184 0.636511 -0.562210
C243  C     C_3   0.730353 0.672732 0.648965 -0.093264
H83   H     H_    0.765813 0.679649 0.667273 0.079171
H84   H     H_    0.675380 0.680949 0.652890 0.166162
H85   H     H_    0.772912 0.724481 0.635800 0.173304
O66   O     O_3   0.422358 0.374757 0.867313 -0.531410
C244  C     C_3   0.419359 0.299428 0.874978 -0.079769
H86   H     H_    0.478502 0.311942 0.884920 0.160734
H87   H     H_    0.405619 0.256258 0.858065 0.161633
H88   H     H_    0.367593 0.266591 0.889152 0.164798
F21   F     F_    0.549656 0.687644 0.571795 -0.523571
F22   F     F_    0.430216 0.632215 0.919813 -0.547538
F23   F     F_    0.550612 0.704589 0.520248 -0.517827
F24   F     F_    0.416566 0.646558 0.970985 -0.560197
F25   F     F_    0.823363 0.281330 0.683447 -0.580074
F26   F     F_    0.888871 0.310709 0.805289 -0.588738
F27   F     F_    0.665508 0.756937 0.489526 -0.540939
F28   F     F_    0.512055 0.741473 0.003520 -0.579760
O67   O     O_3   0.373087 0.424323 0.309221 -0.502607
C245  C     C_3   0.286853 0.379949 0.315551 -0.022430
H89   H     H_    0.262760 0.421229 0.322737 0.104629
H90   H     H_    0.274245 0.330311 0.330105 0.177778
H91   H     H_    0.250511 0.347729 0.297675 0.149826
O68   O     O_3   0.288287 0.480676 0.172977 -0.505696
C246  C     C_3   0.263075 0.396034 0.178816 -0.033308
H92   H     H_    0.308556 0.389990 0.191792 0.111306
H93   H     H_    0.252472 0.358863 0.160695 0.142735
H94   H     H_    0.202382 0.367756 0.189267 0.157009
O69   O     O_3   0.400065 0.410352 0.361787 -0.473562
C247  C     C_3   0.340368 0.405342 0.380050 -0.078960
H95   H     H_    0.294763 0.421030 0.371044 0.116453
H96   H     H_    0.370950 0.446925 0.397230 0.108670
H97   H     H_    0.304306 0.339635 0.387261 0.190504
O70   O     O_3   0.333626 0.486927 0.121785 -0.486906
C248  C     C_3   0.327179 0.410482 0.113300 -0.029221
H98   H     H_    0.259656 0.362631 0.111170 0.192481
H99   H     H_    0.355863 0.384151 0.126834 0.110905
H100  H     H_    0.355613 0.419070 0.093724 0.149926
F29   F     F_    0.489948 0.328735 0.419334 -0.573371
F30   F     F_    0.537932 0.386526 0.075822 -0.581282
O71   O     O_3   0.501063 0.306691 0.471956 -0.553503
C249  C     C_3   0.545610 0.268730 0.461750 -0.050010
H101  H     H_    0.613155 0.314754 0.458013 0.120497
H102  H     H_    0.514560 0.232197 0.443792 0.220422
H103  H     H_    0.543646 0.222972 0.476277 0.140902
O72   O     O_3   0.554869 0.372824 0.022652 -0.565038
C250  C     C_3   0.613463 0.355308 0.034870 0.022820
H104  H     H_    0.580424 0.301808 0.048562 0.242957
H105  H     H_    0.665400 0.410362 0.045295 0.171628
H106  H     H_    0.642456 0.335454 0.019607 0.216517
F31   F     F_    0.752405 0.341760 0.553531 -0.586313
F32   F     F_    0.729904 0.339037 0.945247 -0.600066
F33   F     F_    0.824192 0.298774 0.473570 -0.610133
F34   F     F_    0.805185 0.446876 0.026009 -0.699052

loop_
_geom_bond_atom_site_label_1
_geom_bond_atom_site_label_2
_ccdc_geom_bond_type
C228  O66   S    
C194  C196  A    
O65   C243  S    
C63   C65   A    
O55   C233  S    
C36   O26   A    
C20   F28   S    
C33   C45   S    
C185  C207  A    
C2    C202  S    
C39   C87   A    
C136  F12   S    
O51   C229  S    
C213  F23   S    
C170  C176  A    
C250  H106  S    
C214  F24   S    
C171  C173  A    
C93   O57   S    
C171  F15   S    
C18   C210  A    
C84   C86   A    
C4    C142  A    
C57   C59   A    
C74   O56   S    
C205  C211  A    
C58   C60   A    
C78   O60   S    
C128  C132  A    
C226  O18   D    
O58   C236  S    
C105  C123  A    
C233  H55   S    
C60   C62   A    
C240  H76   S    
C61   C63   A    
C7    C203  A    
C245  H91   S    
C81   C83   A    
C223  N11   Am   
C177  N9    Am   
C178  N10   Am   
C122  C170  A    
C50   C52   A    
C159  C161  A    
C90   O54   S    
C107  C123  A    
C8    H30   S    
C46   C72   A    
C206  C214  A    
C44   C186  A    
C76   O45   A    
C182  C192  A    
C108  C124  A    
C184  O68   S    
C235  H60   S    
C235  H59   S    
C232  H51   S    
C137  C147  A    
C4    C208  A    
C242  H82   S    
Cr3   O42   S    
C109  H5    S    
C59   C61   A    
C30   O72   S    
C183  C201  A    
Cr5   O31   S    
C135  F11   S    
C184  C202  A    
C175  F17   S    
C236  H64   S    
C25   C41   A    
O52   C230  S    
C26   C38   A    
C212  C220  A    
C193  C199  A    
C53   O42   A    
C21   C29   A    
C103  H13   S    
C64   C66   A    
C68   O50   D    
C244  H86   S    
C101  O11   D    
C224  N12   Am   
C32   O28   A    
C244  H88   S    
O54   C232  S    
C91   H3    S    
C92   C94   A    
C58   F32   S    
C227  O65   S    
C224  O22   D    
C97   N1    Am   
C20   C198  A    
C138  C140  A    
C126  C154  A    
C136  C138  A    
O66   C244  S    
C185  H1    S    
C82   C84   A    
C14   C206  A    
C55   H37   S    
C143  C173  A    
C238  H68   S    
C56   H38   S    
C198  H24   S    
C127  C133  A    
C223  O21   D    
C135  C137  A    
Cr2   O46   S    
Cr3   O46   S    
C245  H90   S    
C177  C195  A    
C54   O41   A    
Cr1   O46   S    
C145  O13   D    
C146  O14   D    
Cr4   O28   S    
C186  C208  A    
C178  O16   D    
C3    C207  A    
C119  O3    D    
C156  C158  A    
C64   C94   A    
C99   C115  A    
C40   C88   A    
C189  O63   S    
C188  C202  A    
C231  H47   S    
Cr4   O37   S    
C116  C118  A    
C29   O71   S    
C47   C81   A    
O67   C245  S    
C127  C131  A    
C70   H36   S    
C113  C161  A    
C206  C212  A    
C158  N8    S    
Cr4   O25   S    
C68   N4    Am   
C28   C222  A    
C106  C124  A    
C133  C135  A    
C73   C77   A    
C237  H65   S    
C218  C226  A    
C235  H61   S    
C161  C165  A    
Cr1   O24   S    
C113  C115  A    
C12   C228  A    
C41   C89   A    
C108  F4    S    
C225  O17   D    
C45   C71   A    
C54   O43   A    
C3    C141  A    
Cr6   O34   S    
C38   C98   A    
C145  N7    Am   
O61   C239  S    
Cr6   O36   S    
C248  H98   S    
C9    H33   S    
C119  N1    Am   
C92   H4    S    
C10   H34   S    
C6    H26   S    
C216  C218  A    
C149  C151  A    
C110  H6    S    
O56   C234  S    
C32   O30   A    
C126  C152  A    
C188  C190  A    
C32   C126  S    
C189  C191  A    
C125  C151  A    
C59   C67   A    
C139  C143  A    
C194  C200  A    
C159  C167  A    
C247  H95   S    
C62   C64   A    
C7    H29   S    
C34   C46   S    
C216  F22   S    
C246  H94   S    
C160  C168  A    
Cr3   O44   S    
C107  F3    S    
C147  O9    D    
C21   C199  A    
C207  F7    S    
C43   C53   S    
C120  N2    Am   
C186  H2    S    
C180  O20   D    
C27   C221  A    
C22   C200  A    
C76   C124  S    
C141  O51   S    
O72   C250  S    
C11   N11   S    
C100  O8    D    
C173  H19   S    
C104  C112  A    
C154  H16   S    
C104  H14   S    
C178  C196  A    
C231  H49   S    
C188  F20   S    
Cr2   O38   S    
C42   C90   A    
C160  C162  A    
C233  H54   S    
C112  N6    S    
C165  C175  A    
C180  C200  A    
C128  C134  A    
C241  H79   S    
C218  C220  A    
C48   C52   A    
C103  C105  A    
C222  C224  A    
C134  H10   S    
C10   C12   A    
C8    C10   A    
C210  C212  A    
Cr2   O40   S    
O64   C242  S    
C170  O62   S    
C234  H58   S    
C36   O36   A    
C69   C79   A    
C180  N10   Am   
C31   C125  S    
C144  C174  A    
C87   F33   S    
C1    O38   A    
C169  O61   S    
C243  H83   S    
C142  O52   S    
C25   C83   A    
C239  H71   S    
C248  H100  S    
C26   C84   A    
C22   C30   A    
C24   C28   A    
C21   F29   S    
C5    C203  A    
C114  C116  A    
C3    N1    S    
C250  H105  S    
C229  H43   S    
C211  C219  A    
C229  H42   S    
C96   F2    S    
C230  H45   S    
C238  H70   S    
C52   C62   A    
C152  F10   S    
C85   C95   A    
C42   C120  A    
C247  H97   S    
C82   C88   A    
C183  O67   S    
C151  F9    S    
C172  C174  A    
C56   C58   A    
C14   C16   A    
C240  H75   S    
C110  C112  A    
C16   C194  A    
C246  H92   S    
C44   C54   S    
C113  C121  A    
C249  H101  S    
C11   C227  A    
C75   O1    A    
C102  C122  A    
C76   O2    A    
C217  C225  A    
C195  C197  A    
O60   C238  S    
C155  C157  A    
C17   C29   A    
C168  H12   S    
C100  C116  A    
C120  O4    D    
C1    C201  S    
C104  C106  A    
C232  H50   S    
C242  H81   S    
C137  C139  A    
C179  N9    Am   
Cr5   O30   S    
C164  H40   S    
C49   C91   A    
C17   C209  A    
C236  H63   S    
C142  C164  A    
C40   H18   S    
C114  C162  A    
C117  F5    S    
C5    H25   S    
C118  F6    S    
C103  C111  A    
C149  H7    S    
C97   O47   D    
C162  C166  A    
C174  H20   S    
Cr1   O2    S    
C130  C172  A    
C115  C117  A    
C6    C228  A    
C105  F13   S    
C234  H56   S    
C106  F14   S    
C67   N3    Am   
C154  C156  A    
C146  N8    Am   
C243  H85   S    
C19   F27   S    
C181  C183  A    
C47   C55   A    
C205  C213  A    
O69   C247  S    
C80   N4    S    
C107  C109  A    
C220  C222  A    
C190  O64   S    
Cr3   O45   S    
C19   C197  A    
C13   C19   A    
C70   C80   A    
C14   C20   A    
C196  C198  A    
O53   C231  S    
C24   C210  A    
C47   C51   A    
C49   C51   A    
C101  C121  A    
C89   C95   A    
C130  C132  A    
C102  O12   D    
C91   C93   A    
C130  C166  A    
C249  H103  S    
C8    C204  A    
C72   F26   S    
C231  H48   S    
C169  C175  A    
C77   C79   A    
C57   F31   S    
C41   C119  A    
C90   C96   A    
C153  C155  A    
C81   C87   A    
C86   C96   A    
C208  F8    S    
C33   O31   A    
Cr4   O26   S    
C75   O44   A    
C65   N3    Am   
C13   C205  A    
C217  C219  A    
C237  H66   S    
C232  H52   S    
Cr1   O23   S    
C163  H39   S    
C31   O29   A    
C15   C17   A    
C1    O23   A    
C98   O48   D    
C190  C192  A    
C150  C158  A    
Cr5   O32   S    
C101  N5    Am   
C241  H78   S    
C140  C144  A    
C102  N6    Am   
C99   O7    D    
Cr6   O37   S    
C132  C140  A    
C2    O39   A    
C226  N12   Am   
C187  C201  A    
C129  C165  A    
C125  C153  A    
C237  H67   S    
C73   O55   S    
C37   C39   A    
C38   C40   A    
C181  C191  A    
C27   H31   S    
C179  C199  A    
C117  C167  A    
C118  C168  A    
C48   C82   A    
C78   C80   A    
C26   C42   A    
C69   H35   S    
C15   C193  A    
C150  H8    S    
C39   H17   S    
O70   C248  S    
C60   C68   A    
C247  H96   S    
C74   C78   A    
C24   H28   S    
C43   C185  A    
O62   C240  S    
C44   C164  A    
C63   C93   A    
C179  O19   D    
C149  C157  A    
C111  N5    S    
C246  H93   S    
C43   C163  A    
C121  C169  A    
C230  H44   S    
Cr3   O43   S    
C215  F21   S    
C245  H89   S    
C35   O25   A    
O57   C235  S    
C51   C61   A    
C33   O33   A    
C35   C203  S    
C34   O34   A    
O63   C241  S    
C6    C204  A    
Cr4   O27   S    
C148  N8    Am   
C75   C123  S    
C215  C217  A    
C147  N7    Am   
C5    C227  A    
C144  C146  A    
C172  F16   S    
C143  C145  A    
C28   H32   S    
C45   C73   A    
C69   C71   A    
C109  C111  A    
C25   C37   A    
C155  H21   S    
C108  C110  A    
C193  C195  A    
C240  H74   S    
C18   C30   A    
C23   C27   A    
C213  C215  A    
C192  N10   S    
C48   C56   A    
C23   H27   S    
C37   C97   A    
C12   N12   S    
C31   O27   A    
O68   C246  S    
C66   O6    D    
Cr2   O41   S    
C100  N6    Am   
C234  H57   S    
C176  F18   S    
Cr6   O33   S    
C22   F30   S    
C243  H84   S    
Cr6   O35   S    
C239  H72   S    
C248  H99   S    
C148  O10   D    
C77   O59   S    
C4    N2    S    
C49   C85   A    
C131  C139  A    
C197  H23   S    
C214  C216  A    
C138  C148  A    
C242  H80   S    
C134  C136  A    
C23   C209  A    
C250  H104  S    
C167  H11   S    
C153  H15   S    
C225  N11   Am   
C238  H69   S    
C219  C221  A    
C239  H73   S    
O71   C249  S    
C79   N3    S    
C177  O15   D    
C67   O49   D    
C9    C11   A    
C46   C74   A    
O59   C237  S    
C98   N2    Am   
C182  O70   S    
C50   C92   A    
C249  H102  S    
C141  C163  A    
C13   C15   A    
C150  C152  A    
Cr2   O39   S    
C35   O35   A    
C127  C159  A    
C34   O32   A    
C128  C160  A    
C157  N7    S    
C241  H77   S    
Cr5   O37   S    
C182  C184  A    
C83   C85   A    
C129  C171  A    
C88   F34   S    
C89   O53   S    
C244  H87   S    
C166  C176  A    
Cr5   O29   S    
C55   C57   A    
C191  N9    S    
C221  C223  A    
C236  H62   S    
C133  H9    S    
C95   F1    S    
C65   O5    D    
C71   F25   S    
C53   O40   A    
C209  C211  A    
C66   N4    Am   
C233  H53   S    
C187  C189  A    
C50   C86   A    
C99   N5    Am   
C114  C122  A    
C7    C9    A    
Cr1   O1    S    
C16   C18   A    
C229  H41   S    
C2    O24   A    
C230  H46   S    
C94   O58   S    
C70   C72   A    
C36   C204  S    
C181  O69   S    
C187  F19   S    
C156  H22   S    
C129  C131  A    
