data_mof_unit_60759.cif
_audit_creation_date              2013-03-05T16:24:14-0500
_audit_creation_method            fapswitch 2.2
_symmetry_space_group_name_H-M    P1
_symmetry_Int_Tables_number       1
_space_group_crystal_system       triclinic
_cell_length_a                    15.107561
_cell_length_b                    13.899615
_cell_length_c                    27.766198
_cell_angle_alpha                 90.562847
_cell_angle_beta                  90.603552
_cell_angle_gamma                 90.002902
_cell_volume                      5829.99909232

loop_
_atom_site_label
_atom_site_type_symbol
_atom_site_description
_atom_site_fract_x
_atom_site_fract_y
_atom_site_fract_z
_atom_type_partial_charge
O1    O     O_R   0.371460 0.581430 0.500000 -0.569200
O2    O     O_R   0.628540 0.418570 0.500000 -0.530014
O3    O     O_R   0.628540 0.581430 0.500000 -0.569033
O4    O     O_R   0.371460 0.418570 0.500000 -0.529529
C1    C     C_R   0.329946 0.499990 0.499945 0.869140
C2    C     C_R   0.670054 0.499996 0.500054 0.869564
O5    O     O_R   0.500020 0.581430 0.430260 -0.484587
O6    O     O_R   0.499980 0.418570 0.569740 -0.517745
O7    O     O_R   0.499980 0.581430 0.569740 -0.486326
O8    O     O_R   0.500020 0.418570 0.430260 -0.520732
C3    C     C_R   0.499734 0.499439 0.407275 0.903775
C4    C     C_R   0.499658 0.500525 0.592727 0.903442
Cu1   Cu    Cu3+1 0.500000 0.596430 0.500000 1.133206
Cu2   Cu    Cu3+1 0.500000 0.403570 0.500000 1.138636
C5    C     C_R   0.419543 0.485193 0.176787 0.673874
C6    C     C_R   0.578398 0.517194 0.823203 0.686724
O9    O     O_2   0.344269 0.493883 0.202053 -0.432601
O10   O     O_2   0.653772 0.514162 0.797744 -0.429458
N1    N     N_R   0.498609 0.485718 0.200993 -0.441731
N2    N     N_R   0.499276 0.513173 0.799062 -0.441485
C7    C     C_R   0.577400 0.476862 0.177709 0.669482
C8    C     C_R   0.420366 0.518540 0.822454 0.656805
C9    C     C_R   0.516747 0.577887 0.276986 0.255809
C10   C     C_R   0.515907 0.421091 0.723085 0.258966
C11   C     C_R   0.517208 0.580971 0.327412 0.547111
C12   C     C_R   0.516123 0.418311 0.672656 0.526336
C13   C     C_R   0.480176 0.410736 0.328846 0.582705
C14   C     C_R   0.480722 0.588944 0.671099 0.604763
C15   C     C_R   0.480278 0.408104 0.278736 -0.190496
C16   C     C_R   0.481200 0.591316 0.721210 -0.190730
C17   C     C_R   0.498619 0.490980 0.252642 0.063726
C18   C     C_R   0.498953 0.508124 0.747390 0.062520
C19   C     C_R   0.498512 0.478245 0.101195 -0.130998
C20   C     C_R   0.499395 0.520606 0.898867 -0.131387
C21   C     C_R   0.417156 0.478708 0.126121 -0.185671
C22   C     C_R   0.580780 0.522063 0.873959 -0.186565
C23   C     C_R   0.337405 0.468957 0.099261 0.241167
C24   C     C_R   0.660391 0.532169 0.900969 0.241834
C25   C     C_R   0.579498 0.469505 0.126929 -0.126931
C26   C     C_R   0.418319 0.527443 0.873122 -0.125743
C27   C     C_R   0.498974 0.497271 0.353950 -0.375363
C28   C     C_R   0.498827 0.502435 0.646053 -0.376699
H1    H     H_    0.465932 0.341189 0.259916 0.218380
H2    H     H_    0.467509 0.658281 0.739970 0.218572
C29   C     C_R   0.418255 0.516857 0.974784 0.006153
C30   C     C_R   0.579480 0.481708 0.025228 0.007190
C31   C     C_R   0.579995 0.503281 0.975316 -0.072656
C32   C     C_R   0.417781 0.495899 0.024765 -0.073344
C33   C     C_R   0.499079 0.512483 0.949704 -0.020510
C34   C     C_R   0.498744 0.486383 0.050351 -0.020270
C35   C     C_R   0.342659 0.551258 0.949602 0.287883
C36   C     C_R   0.654925 0.446515 0.050249 0.287038
C37   C     C_R   0.339934 0.548304 0.898965 0.254350
C38   C     C_R   0.657684 0.448323 0.100907 0.254897
O11   O     O_2   0.344834 0.512602 0.796380 -0.437987
O12   O     O_2   0.652756 0.477231 0.204060 -0.435119
C39   C     C_R   0.339247 0.473084 0.049103 0.603601
C40   C     C_R   0.658473 0.526890 0.951114 0.603432
C41   C     C_R   0.094631 0.576654 0.479320 0.682253
C42   C     C_R   0.904502 0.422286 0.479460 0.685317
C43   C     C_R   0.905382 0.577496 0.520649 0.682301
C44   C     C_R   0.095491 0.423110 0.520554 0.685192
C45   C     C_R   0.186688 0.577026 0.479806 -0.214388
C46   C     C_R   0.812472 0.421979 0.480008 -0.194045
C47   C     C_R   0.813323 0.577851 0.520164 -0.213970
C48   C     C_R   0.187521 0.422776 0.520008 -0.194229
H3    H     H_    0.221401 0.636633 0.463686 0.231899
H4    H     H_    0.777093 0.361713 0.463943 0.221148
H5    H     H_    0.778619 0.638113 0.536266 0.231620
H6    H     H_    0.222894 0.363160 0.536092 0.221559
C49   C     C_R   0.233446 0.499935 0.499916 -0.226344
C50   C     C_R   0.766556 0.499948 0.500078 -0.226181
C51   C     C_R   0.048511 0.499887 0.499966 -0.120363
C52   C     C_R   0.951492 0.499891 0.500025 -0.120021
C53   C     C_R   0.573511 0.107937 0.517042 0.516412
C54   C     C_R   0.464579 0.891515 0.461114 0.517890
C55   C     C_R   0.426410 0.107220 0.483229 0.514626
C56   C     C_R   0.535424 0.892827 0.539103 0.516755
C57   C     C_R   0.570697 0.209104 0.518510 0.611928
C58   C     C_R   0.461877 0.790442 0.462712 0.613676
C59   C     C_R   0.429266 0.208315 0.481591 0.611974
C60   C     C_R   0.537998 0.791646 0.537392 0.612097
N3    N     N_R   0.500000 0.258690 0.500000 -0.370218
N4    N     N_R   0.500000 0.741310 0.500000 -0.375731
C61   C     C_R   0.499967 0.054432 0.500160 -0.202851
C62   C     C_R   0.500011 0.945321 0.500134 -0.214016
F1    F     F_    0.460679 0.328449 0.352459 -0.561400
F2    F     F_    0.461252 0.671402 0.647442 -0.553858
F3    F     F_    0.649256 0.063305 0.531087 -0.494160
F4    F     F_    0.434418 0.935719 0.420785 -0.487428
F5    F     F_    0.350613 0.061997 0.469296 -0.495085
F6    F     F_    0.565596 0.938427 0.579480 -0.487992
F7    F     F_    0.639908 0.256731 0.538906 -0.529990
F8    F     F_    0.420245 0.742235 0.426422 -0.524952
F9    F     F_    0.360043 0.255067 0.461166 -0.529992
F10   F     F_    0.579131 0.744451 0.573711 -0.526968
Br1   Br    Br    0.223972 0.440778 0.127176 -0.133514
Br2   Br    Br    0.774031 0.560810 0.873407 -0.128472
F11   F     F_    0.534081 0.333640 0.649960 -0.546359
F12   F     F_    0.536708 0.665381 0.350165 -0.537903
Br3   Br    Br    0.537640 0.305115 0.758217 -0.209923
Br4   Br    Br    0.540209 0.693141 0.241858 -0.207980
Br5   Br    Br    0.230025 0.584543 0.867441 -0.172301
Br6   Br    Br    0.767898 0.411726 0.132019 -0.168054
Br7   Br    Br    0.255724 0.630557 0.982358 -0.217369
Br8   Br    Br    0.741750 0.367866 0.017011 -0.216945
F13   F     F_    0.265643 0.445493 0.024003 -0.565587
F14   F     F_    0.731976 0.554104 0.976409 -0.565423
F15   F     F_    0.050594 0.650227 0.457960 -0.557302
F16   F     F_    0.947630 0.347823 0.458097 -0.553102
F17   F     F_    0.949429 0.651928 0.541986 -0.557684
F18   F     F_    0.052352 0.349513 0.541938 -0.552717

loop_
_geom_bond_atom_site_label_1
_geom_bond_atom_site_label_2
_geom_bond_distance
_ccdc_geom_bond_type
C16   C18   1.396384 A    
C56   C60   1.407260 A    
C13   C15   1.391509 A    
C51   C52   1.465740 S    
C58   N4    1.368004 A    
O3    C2    1.294081 A    
N1    C17   1.435233 S    
C23   Br1   1.929979 S    
C32   C39   1.409243 A    
C31   C33   1.414190 A    
C61   C62   1.516584 S    
O5    C3    1.300683 A    
Cu1   N4    2.013775 S    
C19   C25   1.416181 A    
O1    C1    1.294069 A    
C46   H4    1.083480 S    
C38   Br6   1.938013 S    
C21   C23   1.416090 A    
C10   C12   1.400425 A    
C57   F7    1.353636 S    
C59   F9    1.353661 S    
C25   C38   1.420490 A    
C29   C35   1.418334 A    
C30   C36   1.418154 A    
C10   Br3   1.918895 S    
C42   C52   1.404587 A    
O7    Cu1   1.949645 S    
C4    C28   1.480828 S    
C41   F15   1.357861 S    
C24   C40   1.395593 A    
C53   C61   1.410468 A    
C14   F2    1.357340 S    
C44   C51   1.404603 A    
C55   C59   1.407037 A    
C41   C51   1.404645 A    
C20   C22   1.417268 A    
O3    Cu1   1.953097 S    
C6    N2    1.365164 A    
C12   F11   1.358266 S    
C56   C62   1.411646 A    
C32   C34   1.414873 A    
C55   C61   1.410725 A    
Cu1   Cu2   2.680681 S    
C15   H1    1.083130 S    
C16   H2    1.083146 S    
O2    C2    1.293903 A    
Cu2   N3    2.013775 S    
C5    C21   1.408883 A    
C59   N3    1.369257 A    
C36   C38   1.406725 A    
C24   Br2   1.930085 S    
C45   H3    1.083509 S    
C60   F10   1.353973 S    
C44   C48   1.390604 A    
O8    Cu2   1.949648 S    
C11   C27   1.411891 A    
C56   F6    1.357078 S    
C19   C34   1.417423 A    
C2    C50   1.457899 S    
C35   C37   1.406354 A    
C9    C17   1.403963 A    
C5    N1    1.364397 A    
C10   C18   1.404321 A    
C13   C27   1.411577 A    
C11   F12   1.357930 S    
C48   C49   1.400930 A    
C7    C25   1.413357 A    
C29   C33   1.413041 A    
O6    C4    1.300320 A    
C8    C26   1.411747 A    
C13   F1    1.357786 S    
C6    O10   1.347046 S    
C39   F13   1.359280 S    
C45   C49   1.400886 A    
C60   N4    1.367535 A    
C20   C26   1.415346 A    
O1    Cu1   1.953076 S    
C58   F8    1.353963 S    
C43   F17   1.357849 S    
C54   C62   1.411211 A    
C12   C28   1.412117 A    
N2    C18   1.435710 S    
C29   C32   1.420906 A    
C5    O9    1.347269 S    
C30   C31   1.420900 A    
C55   F5    1.357146 S    
C20   C33   1.417235 A    
O6    Cu2   1.945572 S    
N1    C7    1.365539 A    
C54   C58   1.406616 A    
N2    C8    1.365284 A    
O4    C1    1.293911 A    
C7    O12   1.346775 S    
C8    O11   1.347029 S    
C43   C52   1.404655 A    
C47   C50   1.400887 A    
C30   C34   1.412644 A    
C41   C45   1.390701 A    
C42   C46   1.390595 A    
C22   C24   1.416912 A    
C14   C16   1.391412 A    
C15   C17   1.396179 A    
C6    C22   1.410327 A    
C31   C40   1.409267 A    
C57   N3    1.369446 A    
C48   H6    1.083493 S    
C37   Br5   1.937824 S    
C47   H5    1.083517 S    
C14   C28   1.411359 A    
C19   C21   1.416887 A    
C3    C27   1.480561 S    
C40   F14   1.359335 S    
C9    C11   1.400323 A    
O4    Cu2   1.953097 S    
O2    Cu2   1.953076 S    
O7    C4    1.298518 A    
C35   Br7   1.942349 S    
C42   F16   1.357862 S    
O8    C3    1.298015 A    
C53   F3    1.357141 S    
C36   Br8   1.942473 S    
C9    Br4   1.918674 S    
C43   C47   1.390711 A    
O5    Cu1   1.945575 S    
C44   F18   1.357854 S    
C1    C49   1.457876 S    
C26   C37   1.419560 A    
C53   C57   1.407032 A    
C23   C39   1.395020 A    
C46   C50   1.400938 A    
C54   F4    1.357121 S    
