data_mof_unit_8443.cif
_audit_creation_date              2012-12-11T15:44:57-0500
_audit_creation_method            fapswitch 2.2
_symmetry_space_group_name_H-M    P1
_symmetry_Int_Tables_number       1
_space_group_crystal_system       triclinic
_cell_length_a                    6.926793
_cell_length_b                    16.859694
_cell_length_c                    17.066303
_cell_angle_alpha                 100.497363
_cell_angle_beta                  88.10369
_cell_angle_gamma                 91.721666
_cell_volume                      1958.04898046

loop_
_atom_site_label
_atom_site_type_symbol
_atom_type_description
_atom_site_fract_x
_atom_site_fract_y
_atom_site_fract_z
_atom_type_partial_charge
O1    O     O_R   0.494370 0.415690 0.413450 -0.547319
O2    O     O_R   0.819420 0.429360 0.578420 -0.534113
O3    O     O_R   0.994280 0.584310 0.586550 -0.529851
C1    C     C_R   0.645795 0.412809 0.604408 0.720211
O4    O     O_R   0.823790 0.406230 0.413570 -0.549064
O5    O     O_R   0.998670 0.561000 0.420530 -0.543957
C2    C     C_R   0.655082 0.383075 0.384907 0.666986
O6    O     O_R   0.489970 0.439000 0.579470 -0.540914
O7    O     O_3   0.662300 0.550810 0.502470 -0.362482
V1    V     V_3+5 0.935380 0.490570 0.499540 1.451505
O8    O     O_R   0.328650 0.570640 0.421580 -0.540348
C3    C     C_R   0.164327 0.586630 0.395016 0.717458
O9    O     O_R   0.324290 0.593770 0.586430 -0.523747
C4    C     C_R   0.155008 0.616973 0.615135 0.790739
V2    V     V_3+5 0.435930 0.509430 0.500460 1.472375
O10   O     O_3   0.159140 0.449190 0.497530 -0.379051
C5    C     C_R   0.278401 0.752193 0.690729 0.005857
C6    C     C_R   0.268823 0.814620 0.757746 -0.159825
H1    H     H_    0.372054 0.864807 0.762664 0.134920
C7    C     C_R   0.121190 0.815860 0.815980 -0.084081
C8    C     C_R   0.985189 0.752189 0.808497 -0.139139
H2    H     H_    0.873916 0.751954 0.854683 0.155624
C9    C     C_R   0.999061 0.685903 0.745491 0.004235
C10   C     C_R   0.144134 0.685748 0.684248 -0.175582
C11   C     C_R   0.173916 0.638606 0.333103 -0.057172
C12   C     C_R   0.095319 0.855393 0.162445 -0.119773
C13   C     C_R   0.905402 0.800129 0.264397 -0.171930
C14   C     C_R   0.928313 0.854254 0.211719 -0.168288
C15   C     C_R   0.243266 0.800058 0.167536 0.180384
C16   C     C_R   0.221328 0.745901 0.222497 0.104571
C17   C     C_R   0.049996 0.745669 0.270501 0.113021
C18   C     C_R   0.026210 0.691504 0.324602 -0.199311
C19   C     C_R   0.342944 0.639292 0.285278 -0.185203
C20   C     C_R   0.366140 0.691472 0.230772 -0.143619
H3    H     H_    0.895942 0.692369 0.361734 0.120766
H4    H     H_    0.459659 0.599295 0.290297 0.128336
H5    H     H_    0.773701 0.801035 0.300631 0.132446
H6    H     H_    0.500375 0.689106 0.196421 0.174925
H7    H     H_    0.812649 0.895478 0.209164 0.159252
C21   C     C_R   0.617060 0.358681 0.664138 -0.091517
C22   C     C_R   0.647495 0.141254 0.835739 -0.067013
C23   C     C_R   0.865629 0.198205 0.743430 -0.195326
C24   C     C_R   0.828223 0.144144 0.795483 -0.154431
C25   C     C_R   0.503255 0.193509 0.821613 -0.235449
C26   C     C_R   0.540879 0.248754 0.769641 0.157574
C27   C     C_R   0.723777 0.251341 0.730381 0.162512
C28   C     C_R   0.761358 0.306518 0.678354 -0.237483
C29   C     C_R   0.436445 0.355939 0.704507 -0.141308
C30   C     C_R   0.399078 0.301940 0.756628 -0.192377
H8    H     H_    0.900818 0.307511 0.647735 0.127801
H9    H     H_    0.322086 0.395502 0.695484 0.152191
H10   H     H_    0.006214 0.198660 0.713689 0.120039
H11   H     H_    0.258550 0.301550 0.786424 0.125447
H12   H     H_    0.942659 0.104644 0.804550 0.129733
H13   H     H_    0.363837 0.192558 0.852272 0.124048
C31   C     C_R   0.811617 0.275913 0.282076 -0.154173
H14   H     H_    0.952194 0.294851 0.305641 0.114925
C32   C     C_R   0.800276 0.212128 0.216975 -0.149487
H15   H     H_    0.932763 0.183799 0.192571 0.116180
C33   C     C_R   0.620855 0.185263 0.184002 -0.045039
C34   C     C_R   0.453095 0.223990 0.218051 -0.154135
H16   H     H_    0.312521 0.205053 0.194483 0.114774
C35   C     C_R   0.464436 0.287777 0.283153 -0.148911
H17   H     H_    0.331954 0.316111 0.307555 0.116729
C36   C     C_R   0.643860 0.314644 0.316122 -0.041922
O11   O     O_R   0.774880 0.061150 0.920630 -0.546245
O12   O     O_R   0.440980 0.093710 0.086500 -0.547835
O13   O     O_R   0.266190 0.938890 0.079390 -0.512751
C37   C     C_R   0.609665 0.116856 0.115192 0.677706
O14   O     O_R   0.445420 0.070740 0.921670 -0.546847
O15   O     O_R   0.270660 0.915760 0.913380 -0.531458
C38   C     C_R   0.618939 0.087120 0.895491 0.691639
O16   O     O_R   0.770400 0.084270 0.086640 -0.546310
O17   O     O_3   0.602590 0.949210 0.997500 -0.334217
V3    V     V_3+5 0.329470 0.009420 0.000470 1.459863
O18   O     O_R   0.940650 0.906250 0.913470 -0.538821
C39   C     C_R   0.110035 0.883569 0.884736 0.715466
O19   O     O_R   0.936210 0.929220 0.078300 -0.535125
C40   C     C_R   0.101337 0.911176 0.103315 0.755687
V4    V     V_3+5 0.828930 0.990510 0.999490 1.482372
O20   O     O_3   0.105680 0.050790 0.002500 -0.385207
C41   C     C_2   0.424805 0.760972 0.627141 0.765483
O21   O     O_2   0.586978 0.787402 0.645015 -0.557072
O22   O     O_R   0.375598 0.742038 0.546940 -0.669314
H18   H     H_    0.487545 0.750816 0.509418 0.288799
Br1   Br    Br    0.466935 0.793450 0.095804 -0.557509
C42   C     C_2   0.869476 0.615179 0.749737 0.769476
O23   O     O_2   0.698798 0.624893 0.768722 -0.549382
O24   O     O_R   0.944885 0.537732 0.736105 -0.668822
H19   H     H_    0.845172 0.495092 0.745696 0.288198

loop_
_geom_bond_atom_site_label_1
_geom_bond_atom_site_label_2
_ccdc_geom_bond_type
C21   C28   A    
C42   O23   D    
C35   C36   A    
C1    O6    A    
C26   C27   A    
O13   V3    S    
C7    C39   S    
C5    C41   S    
O5    C3    A    
C16   C17   A    
O19   V4    S    
C32   C33   A    
C31   C36   A    
C19   H4    S    
C31   H14   S    
C6    H1    S    
C23   C27   A    
C4    C10   S    
C34   C35   A    
O8    V2    S    
C29   H9    S    
O11   C38   A    
C1    C21   S    
C9    C10   A    
C37   O16   A    
O1    V2    S    
C9    C42   S    
O7    V1    S    
O13   C40   A    
O17   V4    S    
O9    C4    A    
C22   C24   A    
C19   C20   A    
C28   H8    S    
C5    C10   A    
O17   V3    S    
C16   C20   A    
C13   C17   A    
C18   H3    S    
O18   C39   A    
O4    C2    A    
O19   C40   A    
V3    O20   S    
C14   H7    S    
C32   H15   S    
C33   C34   A    
O12   C37   A    
C20   H6    S    
O2    C1    A    
C15   C16   A    
C2    C36   S    
C24   H12   S    
C17   C18   A    
C26   C30   A    
C5    C6    A    
O22   H18   S    
C15   Br1   S    
O3    C4    A    
C22   C38   S    
C29   C30   A    
O6    V2    S    
C41   O22   S    
O9    V2    S    
C22   C25   A    
O12   V3    S    
C23   C24   A    
O2    V1    S    
O15   C39   A    
C25   C26   A    
C21   C29   A    
C27   C28   A    
O1    C2    A    
O18   V4    S    
V4    O20   S    
O5    V1    S    
O8    C3    A    
O11   V4    S    
C12   C14   A    
C12   C40   S    
C3    C11   S    
C8    C9    A    
O7    V2    S    
O4    V1    S    
O3    V1    S    
V1    O10   S    
O15   V3    S    
C25   H13   S    
C33   C37   S    
C13   H5    S    
C30   H11   S    
O16   V4    S    
C31   C32   A    
C6    C7    A    
C34   H16   S    
C35   H17   S    
C7    C8    A    
C12   C15   A    
C41   O21   D    
C23   H10   S    
O14   V3    S    
C42   O24   S    
O14   C38   A    
O24   H19   S    
C8    H2    S    
V2    O10   S    
C11   C19   A    
C13   C14   A    
C11   C18   A    
