data_mof_unit_29627.cif
_audit_creation_date              2012-10-26T20:17:39-0400
_audit_creation_method            fapswitch 2.2
_symmetry_space_group_name_H-M    P1
_symmetry_Int_Tables_number       1
_space_group_crystal_system       triclinic
_cell_length_a                    27.707949
_cell_length_b                    8.80943
_cell_length_c                    7.529934
_cell_angle_alpha                 102.23035
_cell_angle_beta                  94.297979
_cell_angle_gamma                 94.746692
_cell_volume                      1782.02768547

loop_
_atom_site_label
_atom_site_type_symbol
_atom_type_description
_atom_site_fract_x
_atom_site_fract_y
_atom_site_fract_z
_atom_type_partial_charge
C1    C     C_R   0.497960 0.200787 0.454985 0.611204
C2    C     C_R   0.865742 0.408693 0.378312 -0.008688
C3    C     C_R   0.354820 0.485244 0.501512 0.004573
C4    C     C_R   0.645180 0.514756 0.498488 0.004573
C5    C     C_R   0.966965 0.387188 0.376016 0.024028
C6    C     C_R   0.033035 0.612812 0.623985 0.024027
C7    C     C_R   0.982016 0.611431 0.637724 0.006163
C8    C     C_R   0.017984 0.388569 0.362277 0.006164
C9    C     C_R   0.949357 0.506560 0.504531 -0.067498
C10   C     C_R   0.050643 0.493440 0.495470 -0.067498
C11   C     C_R   0.932953 0.260262 0.282479 0.315504
C12   C     C_R   0.502040 0.799213 0.545015 0.611204
C13   C     C_R   0.067047 0.739737 0.717522 0.315504
C14   C     C_R   0.882778 0.273659 0.277357 0.292303
C15   C     C_R   0.117221 0.726340 0.722645 0.292304
C16   C     C_R   0.407808 0.496695 0.501065 0.615674
C17   C     C_R   0.592192 0.503305 0.498935 0.615675
C18   C     C_R   0.037981 0.295520 0.214155 0.296036
C19   C     C_R   0.962019 0.704480 0.785846 0.296035
C20   C     C_2   0.491114 0.034297 0.433907 0.222603
C21   C     C_2   0.508885 0.965703 0.566093 0.222603
C22   C     C_R   0.170653 0.365613 0.363772 0.443603
C23   C     C_R   0.101535 0.484247 0.493951 -0.143481
C24   C     C_R   0.829347 0.634386 0.636228 0.443603
C25   C     C_R   0.183706 0.566502 0.633865 0.416184
C26   C     C_R   0.816294 0.433498 0.366135 0.416183
C27   C     C_R   0.279107 0.599206 0.470730 -0.079396
C28   C     C_R   0.720893 0.400794 0.529269 -0.079396
C29   C     C_R   0.329508 0.610856 0.473863 0.182772
C30   C     C_R   0.670492 0.389144 0.526137 0.182772
C31   C     C_R   0.329062 0.345874 0.521089 0.171702
C32   C     C_R   0.670937 0.654126 0.478911 0.171702
C33   C     C_R   0.277765 0.333541 0.515931 0.338525
C34   C     C_R   0.898465 0.515753 0.506050 -0.143481
C35   C     C_R   0.722235 0.666459 0.484070 0.338525
C36   C     C_R   0.253102 0.463043 0.495096 0.174115
C37   C     C_R   0.746897 0.536957 0.504904 0.174116
C38   C     C_3   0.436333 0.237196 0.975802 0.047883
C39   C     C_3   0.563667 0.762804 0.024198 0.047883
C40   C     C_3   0.252032 0.073242 0.400233 -0.025105
C41   C     C_3   0.747968 0.926759 0.599769 -0.025105
C42   C     C_3   0.100568 0.018461 0.197793 -0.001125
C43   C     C_3   0.899432 0.981538 0.802209 -0.001125
C44   C     C_3   0.829784 0.066003 0.302809 -0.032135
C45   C     C_R   0.119808 0.369210 0.363567 -0.018850
C46   C     C_3   0.170215 0.933999 0.697194 -0.032134
C47   C     C_3   0.949215 0.026188 0.346083 -0.053151
C48   C     C_3   0.050783 0.973809 0.653914 -0.053153
C49   C     C_R   0.880192 0.630790 0.636434 -0.018850
C50   C     C_R   0.087071 0.269912 0.228049 0.293121
C51   C     C_R   0.912929 0.730087 0.771952 0.293121
C52   C     C_R   0.134258 0.591306 0.621689 -0.008688
Cl1   Cl    Cl    0.361140 0.187114 0.550215 -0.543248
Cl2   Cl    Cl    0.638860 0.812886 0.449785 -0.543247
Cl3   Cl    Cl    0.639905 0.213748 0.552645 -0.477811
Cl4   Cl    Cl    0.360094 0.786251 0.447353 -0.477811
Cl5   Cl    Cl    0.007600 0.247775 0.991986 -0.548566
Cl6   Cl    Cl    0.992400 0.752226 0.008015 -0.548568
Cl7   Cl    Cl    0.453118 0.933811 0.236322 -0.526864
Cl8   Cl    Cl    0.546882 0.066189 0.763678 -0.526864
Cu1   Cu    Cu3+1 0.505380 0.517380 0.684380 1.191061
Cu2   Cu    Cu3+1 0.494620 0.482620 0.315620 1.191062
H1    H     H_    0.740196 0.302580 0.548387 0.143052
H2    H     H_    0.265597 0.102494 0.274385 0.178141
H3    H     H_    0.214406 0.016083 0.362834 0.124385
H4    H     H_    0.734403 0.897505 0.725617 0.178141
H5    H     H_    0.725740 0.013560 0.555786 0.199944
H6    H     H_    0.785594 0.983917 0.637169 0.124385
H7    H     H_    0.062807 0.985212 0.225583 0.152810
H8    H     H_    0.124939 0.045520 0.326999 0.058147
H9    H     H_    0.113033 0.915559 0.109038 0.227269
H10   H     H_    0.875061 0.954479 0.673002 0.058147
H11   H     H_    0.937192 0.014788 0.774419 0.152811
H12   H     H_    0.259804 0.697419 0.451612 0.143053
H13   H     H_    0.886966 0.084440 0.890964 0.227269
H14   H     H_    0.792440 0.098265 0.323130 0.174132
H15   H     H_    0.850951 0.084412 0.438727 0.033234
H16   H     H_    0.826705 0.939265 0.240303 0.203674
H17   H     H_    0.149049 0.915585 0.561273 0.033233
H18   H     H_    0.207560 0.901742 0.676879 0.174137
H19   H     H_    0.173292 0.060736 0.759699 0.203672
H20   H     H_    0.918410 0.933064 0.313791 0.175100
H21   H     H_    0.948444 0.094245 0.488588 0.036286
H22   H     H_    0.983017 0.967916 0.340975 0.158913
H23   H     H_    0.418782 0.250447 0.104633 0.169824
H24   H     H_    0.051554 0.905751 0.511410 0.036288
H25   H     H_    0.081589 0.066934 0.686202 0.175094
H26   H     H_    0.016982 0.032082 0.659025 0.158914
H27   H     H_    0.469050 0.172604 0.978927 0.181886
H28   H     H_    0.409816 0.163623 0.868827 0.192953
H29   H     H_    0.530950 0.827395 0.021073 0.181886
H30   H     H_    0.581218 0.749553 0.895367 0.169825
H31   H     H_    0.590184 0.836377 0.131173 0.192953
H32   H     H_    0.274259 0.986440 0.444216 0.199943
N1    N     N_R   0.201271 0.460006 0.501263 -0.382593
N2    N     N_R   0.798729 0.539994 0.498738 -0.382593
N3    N     N_2   0.486510 0.456430 0.038510 0.102663
N4    N     N_2   0.513490 0.543570 0.961490 0.102663
O1    O     O_R   0.503500 0.286120 0.619780 -0.452548
O2    O     O_2   0.810564 0.726096 0.775623 -0.443220
O3    O     O_2   0.785827 0.352046 0.223268 -0.432740
O4    O     O_2   0.214172 0.647955 0.776731 -0.432741
O5    O     O_3   0.446982 0.381963 0.930302 -0.456017
O6    O     O_3   0.553018 0.618036 0.069698 -0.456017
O7    O     O_3   0.251557 0.202596 0.548014 -0.543988
O8    O     O_3   0.748443 0.797405 0.451987 -0.543989
O9    O     O_3   0.102347 0.144910 0.109416 -0.458628
O10   O     O_3   0.897653 0.855089 0.890586 -0.458629
O11   O     O_3   0.851005 0.148405 0.181073 -0.515830
O12   O     O_R   0.496500 0.713880 0.380220 -0.452548
O13   O     O_3   0.148994 0.851594 0.818929 -0.515830
O14   O     O_3   0.948120 0.116038 0.211371 -0.475360
O15   O     O_3   0.051880 0.883962 0.788629 -0.475359
O16   O     O_R   0.494410 0.256780 0.308360 -0.535894
O17   O     O_R   0.505590 0.743220 0.691640 -0.535894
O18   O     O_R   0.434810 0.514700 0.655690 -0.440374
O19   O     O_R   0.565190 0.485300 0.344310 -0.440374
O20   O     O_R   0.425720 0.485350 0.344280 -0.496356
O21   O     O_R   0.574280 0.514650 0.655720 -0.496356
O22   O     O_2   0.189436 0.273904 0.224378 -0.443220

loop_
_geom_bond_atom_site_label_1
_geom_bond_atom_site_label_2
_ccdc_geom_bond_type
C43   H11   S    
C14   O11   S    
C43   H10   S    
C23   C45   A    
C27   C29   A    
C22   N1    A    
Cu1   N4    S    
C1    O1    A    
C12   O12   A    
N3    N4    D    
C39   O6    S    
C41   H5    S    
C22   O22   S    
C38   H27   S    
C45   C50   A    
C44   H15   S    
C35   C37   A    
Cu2   O16   S    
C24   N2    A    
C26   O3    S    
C46   H17   S    
C11   C14   A    
C25   O4    S    
Cu1   O21   S    
C41   H4    S    
C47   O14   S    
Cu2   N3    S    
C42   H8    S    
C33   C36   A    
C44   H14   S    
C47   H20   S    
C32   Cl2   S    
C3    C29   A    
C39   H31   S    
Cu2   O19   S    
C51   O10   S    
C49   C51   A    
Cu1   O17   S    
C48   H26   S    
C47   H21   S    
C27   H12   S    
C42   O9    S    
C17   O19   A    
C12   O17   A    
C44   O11   S    
C2    C34   A    
C46   O13   S    
C26   N2    A    
Cu1   O1    S    
C16   O18   A    
C39   H29   S    
C41   H6    S    
C19   Cl6   S    
C43   H13   S    
C41   O8    S    
C38   H23   S    
C32   C35   A    
C15   O13   S    
C33   O7    S    
C21   Cl8   S    
C47   H22   S    
C12   C21   S    
C42   H7    S    
C8    C18   A    
C37   N2    S    
C5    C9    A    
C38   O5    S    
C16   O20   A    
C46   H19   S    
C18   Cl5   S    
Cu2   O12   S    
Cu1   O18   S    
C31   C33   A    
C48   H25   S    
C2    C26   A    
C4    C32   A    
C15   C52   A    
C31   Cl1   S    
C20   Cl7   S    
C3    C31   A    
N3    O5    S    
C4    C17   S    
C25   N1    A    
C7    C19   A    
C40   H3    S    
C13   C15   A    
C9    C34   A    
C10   C23   A    
C48   H24   S    
C1    O16   A    
C39   H30   S    
C18   C50   A    
C24   C49   A    
C7    C9    A    
C1    C20   S    
C11   O14   S    
C24   O2    S    
C40   H32   S    
C6    C10   A    
C5    C8    A    
C5    C11   A    
C6    C7    A    
C29   Cl4   S    
C27   C36   A    
C30   Cl3   S    
C38   H28   S    
C40   H2    S    
C44   H16   S    
C25   C52   A    
C35   O8    S    
C6    C13   A    
C46   H18   S    
C36   N1    S    
C23   C52   A    
C50   O9    S    
C28   C37   A    
N4    O6    S    
C28   C30   A    
C42   H9    S    
C43   O10   S    
Cu1   Cu2   S    
C2    C14   A    
C4    C30   A    
Cu2   O20   S    
C17   O21   A    
C28   H1    S    
C19   C51   A    
C22   C45   A    
C20   C21   D    
C34   C49   A    
C8    C10   A    
C40   O7    S    
C13   O15   S    
C3    C16   S    
C48   O15   S    
