data_mof_unit_21917.cif
_audit_creation_date              2013-03-05T15:47:47-0500
_audit_creation_method            fapswitch 2.2
_symmetry_space_group_name_H-M    P1
_symmetry_Int_Tables_number       1
_space_group_crystal_system       triclinic
_cell_length_a                    21.4409
_cell_length_b                    7.23007
_cell_length_c                    18.769517
_cell_angle_alpha                 89.998889
_cell_angle_beta                  95.859749
_cell_angle_gamma                 89.999719
_cell_volume                      2894.43218393

loop_
_atom_site_label
_atom_site_type_symbol
_atom_site_description
_atom_site_fract_x
_atom_site_fract_y
_atom_site_fract_z
_atom_type_partial_charge
O1    O     O_R   0.449650 0.506500 0.414480 -0.603069
O2    O     O_R   0.550350 0.006500 0.585520 -0.603036
O3    O     O_R   0.432010 0.173150 0.560250 -0.607744
O4    O     O_R   0.567990 0.673150 0.439750 -0.607789
C1    C     C_R   0.418260 0.344229 0.583460 0.913657
C2    C     C_R   0.581740 0.844227 0.416542 0.913680
O5    O     O_R   0.442320 0.176650 0.413480 -0.562431
O6    O     O_R   0.557680 0.676650 0.586520 -0.562424
O7    O     O_R   0.560730 0.008380 0.437700 -0.545753
O8    O     O_R   0.439270 0.508380 0.562300 -0.545773
C3    C     C_R   0.429344 0.344463 0.386699 1.019804
C4    C     C_R   0.570667 0.844460 0.613294 1.019781
O9    O     O_3   0.538840 0.339860 0.508120 -0.286863
O10   O     O_3   0.461160 0.839860 0.491880 -0.286860
V1    V     V_3+5 0.492800 0.064220 0.498490 1.189586
V2    V     V_3+5 0.507200 0.564220 0.501510 1.189551
C5    C     C_R   0.874168 0.966140 0.686842 -0.250867
C6    C     C_R   0.125925 0.467529 0.313115 -0.250233
H1    H     H_    0.894713 0.977241 0.636844 0.143027
H2    H     H_    0.105411 0.479165 0.363112 0.143012
C7    C     C_R   0.890686 0.943959 0.816260 -0.085873
C8    C     C_R   0.109337 0.444048 0.183737 -0.086223
C9    C     C_R   0.585884 0.800072 0.747678 0.295691
C10   C     C_R   0.414121 0.299830 0.252326 0.295708
C11   C     C_R   0.625267 0.800669 0.812031 -0.153845
C12   C     C_R   0.374728 0.300263 0.187979 -0.153805
C13   C     C_R   0.688803 0.840178 0.814271 -0.225215
C14   C     C_R   0.311201 0.339893 0.185730 -0.225237
C15   C     C_R   0.716947 0.881712 0.751633 0.113503
C16   C     C_R   0.283077 0.381770 0.248349 0.113519
C17   C     C_R   0.677362 0.886518 0.685370 0.044365
C18   C     C_R   0.322676 0.386777 0.314601 0.044349
C19   C     C_R   0.783345 0.914291 0.752706 0.074593
C20   C     C_R   0.216691 0.414559 0.247269 0.074579
C21   C     C_R   0.808862 0.946233 0.686989 0.081657
C22   C     C_R   0.191213 0.447176 0.312963 0.081442
C23   C     C_R   0.768872 0.957136 0.622170 0.206777
C24   C     C_R   0.231218 0.458239 0.377764 0.206834
C25   C     C_R   0.704472 0.926696 0.622281 -0.263860
C26   C     C_R   0.295596 0.427426 0.377666 -0.263841
C27   C     C_R   0.825543 0.914749 0.816755 -0.270929
C28   C     C_R   0.174465 0.414564 0.183241 -0.270891
C29   C     C_R   0.915505 0.970919 0.749556 0.244371
C30   C     C_R   0.084569 0.471884 0.250417 0.244151
C31   C     C_R   0.611509 0.847566 0.682969 -0.334016
C32   C     C_R   0.388510 0.347573 0.317018 -0.334099
H3    H     H_    0.809202 0.895523 0.868641 0.107300
H4    H     H_    0.190770 0.394747 0.131369 0.107327
H5    H     H_    0.714766 0.833420 0.866397 0.139864
H6    H     H_    0.285233 0.333050 0.133609 0.139849
H7    H     H_    0.606830 0.766655 0.862009 0.201755
H8    H     H_    0.393154 0.266045 0.138015 0.201726
H9    H     H_    0.675572 0.932717 0.571524 0.112518
H10   H     H_    0.324503 0.433553 0.428416 0.112614
C33   C     C_R   0.618177 0.772383 0.292960 0.138989
C34   C     C_R   0.381830 0.272458 0.707057 0.139020
C35   C     C_R   0.627417 0.858236 0.361787 -0.121856
C36   C     C_R   0.372583 0.358254 0.638219 -0.121927
C37   C     C_R   0.678846 0.974583 0.377889 -0.250559
C38   C     C_R   0.321153 0.474601 0.622114 -0.250634
C39   C     C_R   0.725956 0.990229 0.332244 0.202930
C40   C     C_R   0.274045 0.490271 0.667761 0.203060
C41   C     C_R   0.719130 0.903129 0.264765 0.008496
C42   C     C_R   0.280870 0.403177 0.735241 0.008461
C43   C     C_R   0.662718 0.806231 0.241543 -0.072428
C44   C     C_R   0.337288 0.306317 0.758473 -0.072443
C45   C     C_R   0.779890 0.093993 0.353267 -0.244572
C46   C     C_R   0.220112 0.594046 0.646739 -0.244614
C47   C     C_R   0.829616 0.098855 0.311004 -0.121500
C48   C     C_R   0.170368 0.598811 0.688979 -0.121645
C49   C     C_R   0.825818 0.005857 0.244933 0.021517
C50   C     C_R   0.174160 0.505772 0.755042 0.021738
C51   C     C_R   0.768651 0.917452 0.220017 0.013390
C52   C     C_R   0.231341 0.417472 0.779980 0.013385
C53   C     C_R   0.761119 0.843289 0.150600 0.116444
C54   C     C_R   0.238879 0.343381 0.849408 0.116371
C55   C     C_R   0.704156 0.762182 0.125211 -0.266728
C56   C     C_R   0.295851 0.262341 0.874811 -0.266736
C57   C     C_R   0.654489 0.748648 0.168120 0.328932
C58   C     C_R   0.345519 0.248787 0.831903 0.328948
C59   C     C_R   0.877144 0.003729 0.202493 0.256442
C60   C     C_R   0.122814 0.503508 0.797454 0.256499
C61   C     C_R   0.866858 0.941406 0.130509 -0.291704
C62   C     C_R   0.133118 0.441374 0.869465 -0.291836
C63   C     C_R   0.809320 0.860149 0.105800 -0.246368
C64   C     C_R   0.190674 0.360260 0.894201 -0.246235
H11   H     H_    0.682755 0.049461 0.427890 0.122069
H12   H     H_    0.317242 0.549446 0.572108 0.122119
H13   H     H_    0.784385 0.168995 0.403426 0.139070
H14   H     H_    0.215626 0.669098 0.596590 0.139194
H15   H     H_    0.870326 0.180473 0.329705 0.169092
H16   H     H_    0.129650 0.680392 0.670272 0.169009
H17   H     H_    0.802345 0.808383 0.051303 0.129226
H18   H     H_    0.197660 0.308600 0.948714 0.129172
H19   H     H_    0.696884 0.716372 0.069955 0.172252
H20   H     H_    0.303126 0.216583 0.930074 0.172242
O11   O     O_R   0.060820 0.290050 0.937800 -0.609970
O12   O     O_R   0.939180 0.790050 0.062200 -0.610037
O13   O     O_R   0.057690 0.616620 0.086540 -0.598175
O14   O     O_R   0.942310 0.116620 0.913460 -0.597934
C65   C     C_R   0.069921 0.449247 0.113819 0.920062
C66   C     C_R   0.930077 0.949245 0.886186 0.919632
O15   O     O_R   0.068010 0.619890 0.939770 -0.568631
O16   O     O_R   0.931990 0.119890 0.060230 -0.568096
O17   O     O_R   0.949640 0.787940 0.914460 -0.550563
O18   O     O_R   0.050360 0.287940 0.085540 -0.550346
C67   C     C_R   0.083982 0.451225 0.919183 1.031496
C68   C     C_R   0.916002 0.951226 0.080798 1.031333
O19   O     O_3   0.961210 0.453080 0.991940 -0.285898
O20   O     O_3   0.038790 0.953080 0.008060 -0.285984
V3    V     V_3+5 0.007200 0.728820 0.001500 1.194650
V4    V     V_3+5 0.992800 0.228820 0.998500 1.195140
C69   C     C_3   0.984405 0.996181 0.736762 -0.402707
C70   C     C_3   0.029850 0.069495 0.797624 -0.721897
H21   H     H_    0.011217 0.200440 0.817403 0.279095
H22   H     H_    0.039206 0.965826 0.840870 0.258621
H23   H     H_    0.075511 0.100187 0.777050 0.231742
H24   H     H_    0.002513 0.864933 0.716448 0.247876
H25   H     H_    0.986548 0.098062 0.692584 0.216952
C71   C     C_3   0.015653 0.497004 0.263156 -0.403727
C72   C     C_3   0.970481 0.572568 0.202493 -0.720255
H26   H     H_    0.989546 0.703308 0.183047 0.279430
H27   H     H_    0.960816 0.469825 0.158970 0.257828
H28   H     H_    0.924903 0.604029 0.223130 0.231907
H29   H     H_    0.997355 0.365321 0.282803 0.248481
H30   H     H_    0.013454 0.597434 0.307802 0.216573
N1    N     N_R   0.939938 0.040963 0.235172 0.203500
O21   O     O_R   0.956968 0.981773 0.299733 -0.441577
O22   O     O_R   0.983297 0.101669 0.197571 -0.438196
N2    N     N_R   0.060007 0.540362 0.764718 0.203838
O23   O     O_R   0.043082 0.481187 0.700133 -0.441498
O24   O     O_R   0.016549 0.600581 0.802283 -0.437778
N3    N     N_R   0.594526 0.702182 0.132000 0.235378
O25   O     O_R   0.552917 0.831959 0.119202 -0.318167
O26   O     O_R   0.588110 0.549229 0.095437 -0.332023
N4    N     N_R   0.405484 0.202354 0.868027 0.235380
O27   O     O_R   0.447090 0.332145 0.880808 -0.318176
O28   O     O_R   0.411906 0.049427 0.904608 -0.332024
C73   C     C_3   0.792820 0.003157 0.551103 -0.388163
C74   C     C_3   0.813250 0.828374 0.514133 -0.857387
H31   H     H_    0.848725 0.750994 0.549665 0.262923
H32   H     H_    0.772110 0.737475 0.499725 0.254179
H33   H     H_    0.834330 0.865759 0.464532 0.263861
H34   H     H_    0.755568 0.073179 0.516209 0.176613
H35   H     H_    0.831163 0.106671 0.556902 0.189282
C75   C     C_3   0.207292 0.504619 0.448807 -0.388382
C76   C     C_3   0.186659 0.330072 0.485782 -0.857426
H36   H     H_    0.151222 0.252737 0.450185 0.262934
H37   H     H_    0.227724 0.239006 0.500363 0.254210
H38   H     H_    0.165460 0.367729 0.535274 0.263896
H39   H     H_    0.244597 0.574370 0.483712 0.176624
H40   H     H_    0.169059 0.608483 0.442963 0.189291
N5    N     N_R   0.520446 0.753393 0.750623 0.206506
O29   O     O_R   0.484223 0.705714 0.693853 -0.439762
O30   O     O_R   0.497261 0.747058 0.812051 -0.348103
N6    N     N_R   0.479558 0.253133 0.249386 0.206512
O31   O     O_R   0.515791 0.205595 0.306167 -0.439766
O32   O     O_R   0.502741 0.246742 0.187959 -0.348056
C77   C     C_3   0.563317 0.639720 0.278174 -0.367003
C78   C     C_3   0.500514 0.741504 0.265312 -0.649468
H41   H     H_    0.483381 0.782543 0.316807 0.223672
H42   H     H_    0.504756 0.867792 0.232825 0.306507
H43   H     H_    0.464880 0.650218 0.236480 0.235342
H44   H     H_    0.569520 0.544526 0.233684 0.251987
H45   H     H_    0.561819 0.542516 0.323432 0.225331
C79   C     C_3   0.436702 0.139847 0.721857 -0.367050
C80   C     C_3   0.499495 0.241686 0.734708 -0.649446
H46   H     H_    0.516628 0.282690 0.683209 0.223661
H47   H     H_    0.495238 0.368001 0.767175 0.306532
H48   H     H_    0.535137 0.150451 0.763558 0.235339
H49   H     H_    0.430506 0.044676 0.766356 0.252030
H50   H     H_    0.438211 0.042629 0.676606 0.225330

loop_
_geom_bond_atom_site_label_1
_geom_bond_atom_site_label_2
_geom_bond_distance
_ccdc_geom_bond_type
C24   C26   1.398379 A    
C41   C43   1.426918 A    
C79   H50   1.105490 S    
C9    C31   1.425202 A    
C13   C15   1.407613 A    
C76   H36   1.110270 S    
O1    C3    1.337024 A    
C74   H33   1.109044 S    
O2    C4    1.337036 A    
C2    O7    1.343786 A    
N1    O22   1.299593 A    
C70   H21   1.106358 S    
C38   H12   1.079223 S    
C80   H47   1.106846 S    
O18   V4    1.990762 S    
O5    C3    1.331762 A    
C25   H9    1.083013 S    
C8    C65   1.487075 S    
C52   C54   1.402926 A    
C1    C36   1.493762 S    
C43   C57   1.433194 A    
O15   V3    1.992775 S    
N6    O31   1.299403 A    
C76   H37   1.111045 S    
C54   C56   1.394227 A    
C69   C70   1.519242 S    
C12   H8    1.082788 S    
C56   C58   1.402634 A    
C35   C37   1.395290 A    
C30   C71   1.531544 S    
C36   C38   1.395291 A    
C15   C19   1.441103 A    
C45   H13   1.082225 S    
C62   C67   1.478696 S    
O12   C68   1.327481 A    
C61   C68   1.478730 S    
C66   O17   1.331247 A    
C38   C40   1.394194 A    
C47   C49   1.405730 A    
O20   V3    1.756672 S    
C24   C75   1.514392 S    
C72   H28   1.110875 S    
C40   C42   1.408626 A    
C64   H18   1.085136 S    
C33   C43   1.446180 A    
C7    C29   1.422921 A    
C14   H6    1.076233 S    
C53   C63   1.402649 A    
C8    C30   1.422884 A    
C56   H20   1.084725 S    
C14   C16   1.407610 A    
C20   C28   1.428916 A    
C46   H14   1.082211 S    
C60   N2    1.446715 S    
C6    H2    1.079563 S    
C69   H24   1.107623 S    
O5    V1    2.006357 S    
O17   V3    1.990746 S    
C79   H49   1.100629 S    
O6    V2    2.006387 S    
C69   H25   1.113580 S    
C59   N1    1.446635 S    
N3    O26   1.301376 A    
C51   C53   1.402956 A    
C2    C35   1.493696 S    
C63   H17   1.085132 S    
C59   C61   1.419984 A    
C80   H48   1.108070 S    
C55   C57   1.402614 A    
C57   N3    1.430888 S    
C37   C39   1.394182 A    
C48   C50   1.405714 A    
C16   C20   1.441098 A    
C78   H43   1.108071 S    
C76   H38   1.109006 S    
C74   H31   1.110271 S    
N4    O28   1.301372 A    
O19   V4    1.756661 S    
C80   H46   1.108915 S    
C49   C51   1.418654 A    
O11   V4    1.990032 S    
C71   H29   1.107202 S    
N4    O27   1.300103 A    
C41   C51   1.423251 A    
C55   H19   1.084725 S    
C77   H45   1.105484 S    
C26   H10   1.083000 S    
C45   C47   1.392794 A    
C42   C44   1.426911 A    
O4    V2    1.992821 S    
N2    O24   1.299638 A    
C11   H7    1.082789 S    
C33   C35   1.428704 A    
C6    C30   1.399680 A    
N3    O25   1.300103 A    
C73   H34   1.102890 S    
C39   C45   1.400934 A    
C77   C78   1.531865 S    
O6    C4    1.331757 A    
O13   V3    2.006197 S    
O14   C66   1.329615 A    
C27   H3    1.077112 S    
O1    V2    1.988353 S    
C28   H4    1.077106 S    
O2    V1    1.988337 S    
C53   C55   1.394216 A    
C72   H26   1.106469 S    
C71   H30   1.113449 S    
C7    C27   1.413563 A    
C7    C66   1.486969 S    
C50   C52   1.418654 A    
C61   C63   1.401896 A    
O14   V4    2.006227 S    
C60   C62   1.420019 A    
C9    N5    1.449600 S    
C17   C31   1.435932 A    
C79   C80   1.531867 S    
C75   H40   1.108862 S    
O4    C2    1.353809 A    
N5    O30   1.302134 A    
C5    H1    1.079616 S    
N1    O21   1.301735 A    
C54   C64   1.402648 A    
O16   C68   1.334398 A    
O3    V1    1.992833 S    
C71   C72   1.519140 S    
C21   C23   1.417235 A    
O16   V4    1.992764 S    
C75   C76   1.527288 S    
C65   O18   1.331304 A    
C73   H35   1.108857 S    
O12   V3    1.990039 S    
O13   C65   1.329610 A    
O10   V1    1.757775 S    
C18   C32   1.435897 A    
C39   C41   1.408651 A    
C48   H16   1.082034 S    
C10   C12   1.401339 A    
C4    C31   1.497926 S    
O3    C1    1.353846 A    
C70   H22   1.107989 S    
C73   C74   1.527234 S    
C74   H32   1.111051 S    
C11   C13   1.388323 A    
C44   C58   1.433201 A    
C12   C14   1.388322 A    
C58   N4    1.430889 S    
C40   C46   1.400942 A    
C19   C27   1.428888 A    
C78   H41   1.108916 S    
N6    O32   1.302133 A    
N2    O23   1.301711 A    
O7    V1    1.981300 S    
C10   C32   1.425207 A    
C1    O8    1.343777 A    
C15   C17   1.432784 A    
O8    V2    1.981295 S    
C29   C69   1.531604 S    
C22   C24   1.417203 A    
C16   C18   1.432791 A    
C8    C28   1.413552 A    
C34   C44   1.446205 A    
C33   C77   1.521175 S    
C19   C21   1.418418 A    
C34   C36   1.428698 A    
C20   C22   1.418428 A    
C18   C26   1.401782 A    
C37   H11   1.079280 S    
C72   H27   1.107943 S    
C70   H23   1.110864 S    
C75   H39   1.102880 S    
O11   C67   1.327442 A    
C13   H5    1.076238 S    
C9    C11   1.401342 A    
C23   C25   1.398434 A    
C23   C73   1.514414 S    
O9    V2    1.757764 S    
C34   C79   1.521142 S    
C5    C29   1.399748 A    
C17   C25   1.401794 A    
C46   C48   1.392811 A    
C42   C52   1.423249 A    
C77   H44   1.100640 S    
C62   C64   1.401927 A    
C3    C32   1.497913 S    
O15   C67   1.334429 A    
C5    C21   1.407879 A    
N5    O29   1.299409 A    
C47   H15   1.082023 S    
C6    C22   1.407834 A    
C50   C60   1.422989 A    
C10   N6    1.449593 S    
C78   H42   1.106838 S    
C49   C59   1.422957 A    
