data_mof_unit_25452.cif
_audit_creation_date              2012-12-10T18:46:20-0500
_audit_creation_method            fapswitch 2.2
_symmetry_space_group_name_H-M    P1
_symmetry_Int_Tables_number       1
_space_group_crystal_system       triclinic
_cell_length_a                    9.95064
_cell_length_b                    10.630193
_cell_length_c                    13.281303
_cell_angle_alpha                 91.931418
_cell_angle_beta                  71.163535
_cell_angle_gamma                 89.216606
_cell_volume                      1328.41749668

loop_
_atom_site_label
_atom_site_type_symbol
_atom_type_description
_atom_site_fract_x
_atom_site_fract_y
_atom_site_fract_z
_atom_type_partial_charge
C1    C     C_R   0.500335 0.739058 0.497443 0.864580
C2    C     C_R   0.383748 0.454434 0.815908 -0.217644
C3    C     C_R   0.520580 0.935214 0.581337 -0.117345
C4    C     C_R   0.423865 0.484071 0.701773 0.826608
C5    C     C_R   0.523236 0.064699 0.584759 -0.110034
C6    C     C_R   0.502394 0.127620 0.499318 -0.177433
C7    C     C_R   0.479619 0.064314 0.411931 0.497476
C8    C     C_R   0.483991 0.932614 0.406975 -0.150156
C9    C     C_R   0.499898 0.871315 0.494755 -0.169083
C10   C     C_R   0.964559 0.431264 0.423824 0.011705
C11   C     C_R   0.106685 0.432561 0.424674 -0.210396
C12   C     C_R   0.441985 0.492875 0.979069 0.078417
C13   C     C_R   0.038840 0.571266 0.574513 0.499862
C14   C     C_R   0.895678 0.574315 0.573271 -0.055424
C15   C     C_R   0.500420 0.260597 0.500698 0.937128
C16   C     C_R   0.577841 0.502304 0.297396 0.924472
C17   C     C_R   0.789819 0.571096 0.015312 0.020670
C18   C     C_R   0.621982 0.513464 0.183392 -0.101711
C19   C     C_R   0.242632 0.427957 0.876483 0.000930
C20   C     C_R   0.198575 0.453742 0.986550 -0.128547
C21   C     C_R   0.293040 0.502085 0.035451 -0.067443
C22   C     C_2   0.541135 0.132220 0.679484 0.465921
C23   C     C_R   0.487041 0.463593 0.868853 0.085018
C24   C     C_2   0.482563 0.859258 0.309508 0.425757
C25   C     C_2   0.942760 0.358506 0.333730 0.474546
C26   C     C_2   0.791220 0.665155 0.647850 0.470225
C27   C     C_2   0.924189 0.631447 0.954943 0.468575
C28   C     C_2   0.143129 0.368370 0.827559 0.409036
C29   C     C_2   0.228850 0.572327 0.138990 0.441827
C30   C     C_R   0.548797 0.508838 0.027463 0.113088
C31   C     C_R   0.691478 0.529373 0.965395 0.080487
C32   C     C_R   0.734204 0.490407 0.858569 -0.162718
C33   C     C_R   0.634687 0.444210 0.815272 -0.153753
C34   C     C_R   0.521597 0.487264 0.133862 -0.131798
C35   C     C_R   0.753439 0.561640 0.125884 -0.159447
H1    H     H_    0.826681 0.590803 0.166880 0.179127
H2    H     H_    0.442868 0.764521 0.314900 0.108616
H3    H     H_    0.028689 0.349619 0.258476 0.001237
H4    H     H_    0.173451 0.651539 0.630887 0.388568
H5    H     H_    0.685820 0.678009 0.645738 0.132317
H6    H     H_    0.955400 0.637430 0.869297 0.141932
H7    H     H_    0.178974 0.336138 0.744702 0.095576
H8    H     H_    0.122118 0.551908 0.188974 0.034288
H9    H     H_    0.189217 0.378597 0.364564 0.164401
H10   H     H_    0.845103 0.483734 0.810700 0.176438
H11   H     H_    0.422542 0.445407 0.178181 0.152605
H12   H     H_    0.087756 0.444853 0.033329 0.176356
H13   H     H_    0.676399 0.393297 0.739501 0.180494
H14   H     H_    0.533247 0.883007 0.646685 0.188756
H15   H     H_    0.528777 0.233471 0.689135 0.016115
H16   H     H_    0.389941 0.087259 0.303617 0.361576
N1    N     N_R   0.142790 0.500030 0.500030 -0.146713
N2    N     N_R   0.857180 0.499940 0.500010 -0.161656
O1    O     O_R   0.385370 0.683250 0.500010 -0.642267
O2    O     O_3   0.454500 0.134272 0.333534 -0.726908
O3    O     O_2   0.531398 0.901938 0.221214 -0.487794
O4    O     O_2   0.835668 0.300238 0.342661 -0.494851
O5    O     O_3   0.070526 0.642573 0.651873 -0.742908
O6    O     O_2   0.821827 0.730677 0.714131 -0.511798
O7    O     O_2   0.999748 0.679985 0.000962 -0.558585
O8    O     O_2   0.020725 0.348365 0.880852 -0.582723
O9    O     O_2   0.290086 0.659275 0.166179 -0.532893
O10   O     O_R   0.614700 0.683220 0.500010 -0.640303
O11   O     O_R   0.328400 0.499990 0.653620 -0.641985
O12   O     O_R   0.557730 0.499960 0.653620 -0.664459
O13   O     O_R   0.385300 0.316780 0.499990 -0.601826
O14   O     O_R   0.614630 0.316750 0.499990 -0.566981
O15   O     O_R   0.442270 0.500040 0.346380 -0.616670
O16   O     O_R   0.671600 0.500010 0.346380 -0.585342
O17   O     O_2   0.569370 0.075009 0.748642 -0.515712
Zn1   Zn    Zn3+2 0.346870 0.500020 0.500000 0.966859
Zn2   Zn    Zn3+2 0.653130 0.499980 0.500000 0.973713

loop_
_geom_bond_atom_site_label_1
_geom_bond_atom_site_label_2
_ccdc_geom_bond_type
O16   Zn2   S    
C2    C4    S    
C1    O1    A    
C6    C7    A    
C34   H11   S    
C25   H3    S    
C24   O3    D    
O12   Zn2   S    
C32   H10   S    
C27   H6    S    
C11   N1    A    
O13   Zn1   S    
C7    O2    S    
C22   H15   S    
C16   O15   A    
C15   O14   A    
C28   O8    D    
C20   C21   A    
C19   C20   A    
C24   H2    S    
C3    H14   S    
C32   C33   A    
C11   H9    S    
N1    Zn1   S    
C13   C14   A    
C29   H8    S    
C19   C28   S    
C18   C34   A    
C12   C23   A    
C26   H5    S    
O1    Zn1   S    
C5    C6    A    
C25   O4    D    
O15   Zn1   S    
C3    C9    A    
C1    O10   A    
C10   C25   S    
C28   H7    S    
C8    C24   S    
C15   O13   A    
H16   O2    S    
C27   O7    D    
C30   C31   A    
C17   C31   A    
C5    C22   S    
C20   H12   S    
C10   C11   A    
C30   C34   A    
C13   N1    A    
C7    C8    A    
C14   N2    A    
C1    C9    S    
O10   Zn2   S    
C23   C33   A    
C16   C18   S    
O14   Zn2   S    
C18   C35   A    
O11   Zn1   S    
C2    C23   A    
C33   H13   S    
C10   N2    A    
C4    O11   A    
C4    O12   A    
C26   O6    D    
C13   O5    S    
C17   C35   A    
C12   C30   A    
C6    C15   S    
C29   O9    D    
N2    Zn2   S    
C21   C29   S    
C12   C21   A    
C22   O17   D    
C14   C26   S    
C16   O16   A    
C31   C32   A    
C2    C19   A    
H4    O5    S    
C8    C9    A    
C3    C5    A    
C35   H1    S    
C17   C27   S    
