data_mof_unit_31055.cif
_audit_creation_date              2012-12-10T17:41:01-0500
_audit_creation_method            fapswitch 2.2
_symmetry_space_group_name_H-M    P1
_symmetry_Int_Tables_number       1
_space_group_crystal_system       triclinic
_cell_length_a                    14.602092
_cell_length_b                    15.586806
_cell_length_c                    9.937037
_cell_angle_alpha                 89.042613
_cell_angle_beta                  92.296629
_cell_angle_gamma                 90.066612
_cell_volume                      2259.53694541

loop_
_atom_site_label
_atom_site_type_symbol
_atom_type_description
_atom_site_fract_x
_atom_site_fract_y
_atom_site_fract_z
_atom_type_partial_charge
C1    C     C_R   0.380519 0.880371 0.499081 0.839453
C2    C     C_R   0.669718 0.260546 0.432340 0.083539
C3    C     C_R   0.172154 0.241657 0.404131 0.157697
C4    C     C_R   0.169713 0.760554 0.432428 0.083203
C5    C     C_R   0.667563 0.796478 0.514138 -0.202740
C6    C     C_R   0.689761 0.183272 0.503074 -0.115363
C7    C     C_R   0.167642 0.296533 0.514136 -0.202791
C8    C     C_R   0.189770 0.683252 0.503060 -0.115543
C9    C     C_R   0.333414 0.994544 0.131478 -0.120889
C10   C     C_R   0.833416 0.494527 0.131485 -0.121786
C11   C     C_R   0.250793 0.989689 0.057297 -0.129006
C12   C     C_R   0.383707 0.123332 0.498042 0.843587
C13   C     C_R   0.750793 0.489661 0.057311 -0.128054
C14   C     C_R   0.250256 0.990063 0.917777 -0.183886
C15   C     C_R   0.750248 0.490034 0.917792 -0.181948
C16   C     C_R   0.332386 0.994341 0.851535 -0.141521
C17   C     C_R   0.832379 0.494321 0.851542 -0.143067
C18   C     C_R   0.417580 0.996481 0.923400 0.163317
C19   C     C_R   0.917578 0.496467 0.923402 0.163553
C20   C     C_R   0.417796 0.996519 0.067894 0.154034
C21   C     C_R   0.917796 0.496505 0.067896 0.154120
C22   C     C_R   0.578547 0.007204 0.075851 0.000653
C23   C     C_R   0.880493 0.380396 0.499077 0.839480
C24   C     C_R   0.078543 0.507235 0.075848 0.000480
C25   C     C_R   0.621431 0.118310 0.501089 0.868880
C26   C     C_R   0.612588 0.873821 0.503278 0.882948
C27   C     C_R   0.121424 0.618311 0.501087 0.868797
C28   C     C_R   0.112619 0.373841 0.503281 0.882740
C29   C     C_R   0.578555 0.006732 0.932853 -0.056465
C30   C     C_R   0.078551 0.506765 0.932849 -0.056719
C31   C     C_R   0.376209 0.243142 0.719044 -0.130904
C32   C     C_R   0.428721 0.720992 0.631923 -0.270869
C33   C     C_R   0.876052 0.743095 0.719183 -0.131349
C34   C     C_R   0.883702 0.623334 0.498050 0.843530
C35   C     C_R   0.928709 0.221065 0.631919 -0.270240
C36   C     C_R   0.350730 0.260366 0.849138 -0.115626
C37   C     C_R   0.448338 0.646442 0.705196 -0.213916
C38   C     C_R   0.850530 0.760370 0.849248 -0.115467
C39   C     C_R   0.948361 0.146511 0.705138 -0.214249
C40   C     C_R   0.759828 0.781345 0.871523 0.511649
C41   C     C_R   0.882369 0.082646 0.714378 0.548896
C42   C     C_R   0.260045 0.281370 0.871478 0.511654
C43   C     C_R   0.382329 0.582595 0.714440 0.549216
C44   C     C_R   0.698485 0.796084 0.762057 -0.256247
C45   C     C_R   0.247936 0.189326 0.396045 -0.073550
C46   C     C_R   0.797082 0.092370 0.645741 -0.280939
C47   C     C_R   0.198679 0.296189 0.762062 -0.255577
C48   C     C_R   0.297088 0.592300 0.645645 -0.281527
C49   C     C_R   0.725258 0.781496 0.629444 0.027863
C50   C     C_R   0.775204 0.169183 0.572934 0.008066
C51   C     C_R   0.225391 0.281588 0.629413 0.027717
C52   C     C_R   0.275232 0.669125 0.572841 0.007998
C53   C     C_R   0.309113 0.241322 0.612295 0.085222
C54   C     C_R   0.341433 0.734169 0.568160 0.110209
C55   C     C_R   0.808998 0.741253 0.612376 0.086041
C56   C     C_R   0.235157 0.823533 0.430028 -0.184873
C57   C     C_R   0.841404 0.234228 0.568208 0.110230
C58   C     C_R   0.317991 0.191633 0.496075 -0.179838
C59   C     C_R   0.319003 0.810651 0.497735 -0.110126
C60   C     C_R   0.817940 0.691603 0.496118 -0.179738
C61   C     C_R   0.818974 0.310686 0.497736 -0.110023
C62   C     C_R   0.747898 0.689294 0.396062 -0.073849
C63   C     C_R   0.735145 0.323543 0.429967 -0.184746
C64   C     C_R   0.672102 0.741614 0.404131 0.157868
H1    H     H_    0.249520 0.142946 0.316316 0.203663
H2    H     H_    0.142820 0.511463 0.882834 0.182459
H3    H     H_    0.446804 0.225600 0.704597 0.174633
H4    H     H_    0.482902 0.767730 0.625908 0.164930
H5    H     H_    0.946659 0.725576 0.704801 0.174464
H6    H     H_    0.982902 0.267784 0.625817 0.164902
H7    H     H_    0.400267 0.252750 0.932503 0.163653
H8    H     H_    0.515401 0.638665 0.754476 0.182608
H9    H     H_    0.900050 0.752816 0.932651 0.163854
H10   H     H_    0.015466 0.138707 0.754269 0.182107
H11   H     H_    0.628000 0.809878 0.782749 0.195094
H12   H     H_    0.219747 0.883885 0.377916 0.148762
H13   H     H_    0.749045 0.039685 0.650318 0.186659
H14   H     H_    0.128221 0.310038 0.782833 0.195074
H15   H     H_    0.249035 0.539628 0.650208 0.186872
H16   H     H_    0.642950 0.012071 0.132926 0.179489
H17   H     H_    0.142946 0.512128 0.132920 0.179345
H18   H     H_    0.329005 0.998299 0.238147 0.187003
H19   H     H_    0.829009 0.498292 0.238153 0.187070
H20   H     H_    0.186693 0.987699 0.108409 0.167676
H21   H     H_    0.686694 0.487666 0.108430 0.167439
H22   H     H_    0.644814 0.661615 0.014825 0.365309
H23   H     H_    0.749505 0.642918 0.316332 0.203588
H24   H     H_    0.010968 0.952400 0.962127 0.380554
H25   H     H_    0.144954 0.161744 0.014593 0.365236
H26   H     H_    0.505355 0.453688 0.970879 0.382923
H27   H     H_    0.538173 0.712371 0.370730 0.161830
H28   H     H_    0.579266 0.783294 0.258268 0.283719
H29   H     H_    0.571911 0.236580 0.286212 0.219544
H30   H     H_    0.530838 0.267600 0.435948 0.194038
H31   H     H_    0.038206 0.212480 0.370749 0.162061
H32   H     H_    0.079358 0.283325 0.258199 0.283693
H33   H     H_    0.071760 0.736669 0.286464 0.219560
H34   H     H_    0.719746 0.383878 0.377795 0.148522
H35   H     H_    0.030848 0.767679 0.436305 0.194136
H36   H     H_    0.185727 0.988212 0.860295 0.181366
H37   H     H_    0.685708 0.488175 0.860330 0.184073
H38   H     H_    0.326294 0.996964 0.744325 0.204744
H39   H     H_    0.826286 0.496954 0.744332 0.204872
H40   H     H_    0.642832 0.011397 0.882844 0.182071
N1    N     N_R   0.498810 0.000000 0.142780 -0.139654
N2    N     N_R   0.998810 0.500000 0.142780 -0.139577
N3    N     N_R   0.498740 0.000000 0.857170 -0.139863
N4    N     N_R   0.998740 0.500000 0.857170 -0.139820
N5    N     N_3   0.594721 0.727649 0.313599 -0.378264
N6    N     N_3   0.582091 0.278034 0.366955 -0.430941
N7    N     N_3   0.094765 0.227697 0.313608 -0.377978
N8    N     N_3   0.082044 0.778100 0.367216 -0.430120
O1    O     O_R   0.408390 0.908380 0.614690 -0.632925
O2    O     O_R   0.591620 0.908390 0.614640 -0.626600
O3    O     O_R   0.091620 0.591610 0.614640 -0.625060
O4    O     O_R   0.091620 0.408390 0.614640 -0.626576
O5    O     O_R   0.591610 0.091610 0.385310 -0.619895
O6    O     O_R   0.591610 0.908390 0.385310 -0.591421
O7    O     O_R   0.091610 0.591610 0.385310 -0.619958
O8    O     O_R   0.091610 0.408390 0.385310 -0.591494
O9    O     O_2   0.792455 0.814417 0.132288 -0.253695
O10   O     O_2   0.634799 0.832486 0.040710 -0.357485
O11   O     O_3   0.696679 0.677834 0.076589 -0.582840
O12   O     O_R   0.408390 0.091620 0.614690 -0.645853
O13   O     O_2   0.824028 0.960285 0.879572 -0.312406
O14   O     O_2   0.938910 0.922025 0.716267 -0.339078
O15   O     O_3   0.992477 0.009605 0.925673 -0.582689
O16   O     O_2   0.292865 0.314255 0.132245 -0.255368
O17   O     O_2   0.135208 0.332670 0.040850 -0.357086
O18   O     O_3   0.196791 0.177878 0.076464 -0.582418
O19   O     O_2   0.323566 0.460440 0.879510 -0.316482
O20   O     O_2   0.439185 0.421969 0.717454 -0.335533
O21   O     O_3   0.491880 0.509942 0.926646 -0.584728
O22   O     O_R   0.908390 0.408380 0.614690 -0.632836
O23   O     O_R   0.908390 0.591620 0.614690 -0.645853
O24   O     O_R   0.408370 0.908380 0.385360 -0.640851
O25   O     O_R   0.408370 0.091620 0.385360 -0.628811
O26   O     O_R   0.908370 0.408380 0.385360 -0.640785
O27   O     O_R   0.908370 0.591620 0.385360 -0.628774
O28   O     O_R   0.591620 0.091610 0.614640 -0.625056
S1    S     S_3+6 0.720457 0.780012 0.035203 -0.001078
S2    S     S_3+6 0.908110 0.989799 0.810017 -0.011387
S3    S     S_3+6 0.220744 0.280036 0.035187 -0.001301
S4    S     S_3+6 0.407911 0.489893 0.810550 -0.012164
Zn1   Zn    Zn3+2 0.500010 0.000000 0.653130 0.935214
Zn2   Zn    Zn3+2 0.000010 0.500000 0.653130 0.935221
Zn3   Zn    Zn3+2 0.499980 0.000000 0.346870 0.957767
Zn4   Zn    Zn3+2 0.999980 0.500000 0.346870 0.957694

loop_
_geom_bond_atom_site_label_1
_geom_bond_atom_site_label_2
_ccdc_geom_bond_type
C44   C49   A    
C33   C55   A    
C38   C40   A    
O20   S4    D    
C56   H12   S    
C22   C29   A    
C34   O27   A    
C23   O26   A    
C36   C42   A    
C4    C8    A    
C39   C41   A    
C31   H3    S    
O3    Zn2   S    
C48   H15   S    
O6    Zn3   S    
C19   C21   A    
H24   O15   S    
C3    C7    A    
C1    C59   S    
N3    Zn1   S    
C11   C14   A    
H28   N5    S    
C6    C25   S    
N1    Zn3   S    
C10   H19   S    
N2    Zn4   S    
O14   S2    D    
C60   C62   A    
C39   H10   S    
O1    Zn1   S    
C61   C63   A    
C18   N3    A    
C62   C64   A    
C28   O4    A    
C35   H6    S    
O26   Zn4   S    
C41   C46   A    
C1    O24   A    
C43   C48   A    
C8    C52   A    
C40   C44   A    
C21   N2    A    
C36   H7    S    
C33   H5    S    
C9    H18   S    
C32   H4    S    
C12   C58   S    
C19   N4    A    
C4    N8    S    
C55   C60   A    
C4    C56   A    
C34   C60   S    
C5    C49   A    
C43   S4    S    
C2    C6    A    
C1    O1    A    
C32   C54   A    
C52   C54   A    
N4    Zn2   S    
C54   C59   A    
C10   C21   A    
O22   Zn2   S    
H32   N7    S    
O27   Zn4   S    
O9    S1    D    
C25   O28   A    
C28   O8    A    
C3    N7    S    
H33   N8    S    
C47   C51   A    
O7    Zn4   S    
C49   C55   A    
C3    C45   A    
C15   H37   S    
C7    C28   S    
C5    C64   A    
C51   C53   A    
O15   S2    S    
C37   C43   A    
C44   H11   S    
C35   C39   A    
C24   H17   S    
C26   O2    A    
C40   S1    S    
C9    C20   A    
C12   O12   A    
C23   C61   S    
O13   S2    D    
O23   Zn2   S    
O11   S1    S    
C32   C37   A    
C31   C53   A    
C57   C61   A    
O18   S3    S    
C9    C11   A    
C30   H2    S    
C16   H38   S    
O8    Zn4   S    
C13   C15   A    
C45   H1    S    
C14   C16   A    
C24   N2    A    
C45   C58   A    
H22   O11   S    
C2    C63   A    
C20   N1    A    
O12   Zn1   S    
H26   O21   S    
C46   C50   A    
C2    N6    S    
O21   S4    S    
C6    C50   A    
C23   O22   A    
C30   N4    A    
C31   C36   A    
C50   C57   A    
O25   Zn3   S    
C26   O6    A    
O2    Zn1   S    
C10   C13   A    
C25   O5    A    
O28   Zn1   S    
C46   H13   S    
C53   C58   A    
C14   H36   S    
O17   S3    D    
C27   O7    A    
C11   H20   S    
C63   H34   S    
C22   N1    A    
C62   H23   S    
H29   N6    S    
C33   C38   A    
O10   S1    D    
C56   C59   A    
O5    Zn3   S    
C35   C57   A    
H27   N5    S    
C17   H39   S    
C22   H16   S    
C41   S2    S    
H31   N7    S    
O4    Zn2   S    
C64   N5    S    
C34   O23   A    
H35   N8    S    
C17   C19   A    
H30   N6    S    
C18   C20   A    
C42   C47   A    
O16   S3    D    
C24   C30   A    
O24   Zn3   S    
H25   O18   S    
C7    C51   A    
C5    C26   S    
C48   C52   A    
C29   H40   S    
C16   C18   A    
C37   H8    S    
C13   H21   S    
C42   S3    S    
C8    C27   S    
C12   O25   A    
C29   N3    A    
C47   H14   S    
C15   C17   A    
O19   S4    D    
C38   H9    S    
C27   O3    A    
