data_mof_unit_50884.cif
_audit_creation_date              2012-12-10T18:59:17-0500
_audit_creation_method            fapswitch 2.2
_symmetry_space_group_name_H-M    P1
_symmetry_Int_Tables_number       1
_space_group_crystal_system       triclinic
_cell_length_a                    9.926955
_cell_length_b                    10.706748
_cell_length_c                    16.900501
_cell_angle_alpha                 86.286796
_cell_angle_beta                  95.206139
_cell_angle_gamma                 91.146457
_cell_volume                      1784.93056811

loop_
_atom_site_label
_atom_site_type_symbol
_atom_type_description
_atom_site_fract_x
_atom_site_fract_y
_atom_site_fract_z
_atom_type_partial_charge
C1    C     C_R   0.499041 0.260028 0.503927 0.953379
C2    C     C_R   0.079884 0.416556 0.547605 -0.170172
C3    C     C_R   0.518261 0.499001 0.653068 0.935727
C4    C     C_R   0.481832 0.504069 0.346846 0.947726
C5    C     C_R   0.529185 0.500126 0.739155 -0.130978
C6    C     C_R   0.471324 0.521109 0.260662 -0.111499
C7    C     C_R   0.410911 0.495227 0.778378 -0.149782
C8    C     C_R   0.589306 0.543802 0.222294 -0.128986
C9    C     C_R   0.418500 0.502176 0.859669 -0.165106
C10   C     C_R   0.581748 0.561961 0.140669 -0.159601
C11   C     C_R   0.545087 0.514916 0.903421 0.200767
C12   C     C_R   0.500884 0.739890 0.495943 0.969237
C13   C     C_R   0.455719 0.555423 0.095598 0.197688
C14   C     C_R   0.664596 0.514761 0.864742 0.426045
C15   C     C_R   0.336161 0.540281 0.134045 0.424932
C16   C     C_R   0.655910 0.508229 0.782395 -0.235812
C17   C     C_R   0.344762 0.521773 0.216673 -0.220157
C18   C     C_R   0.421978 0.050825 0.555333 0.391047
C19   C     C_R   0.576923 0.948914 0.443762 0.407203
C20   C     C_R   0.425542 0.923366 0.549981 -0.220252
C21   C     C_R   0.573667 0.076436 0.449253 -0.248205
C22   C     C_R   0.502648 0.872504 0.495599 -0.198834
C23   C     C_R   0.496887 0.127327 0.503846 -0.201234
C24   C     C_R   0.062740 0.586828 0.452391 0.451761
C25   C     C_R   0.937282 0.413185 0.547591 0.456274
C26   C     C_R   0.920160 0.583913 0.452695 -0.165408
H1    H     H_    0.747417 0.510754 0.752001 0.238448
H2    H     H_    0.967444 0.550534 0.105684 0.419594
H3    H     H_    0.470612 0.218987 0.688473 0.360268
H4    H     H_    0.866417 0.967579 0.428245 0.390221
H5    H     H_    0.036431 0.846371 0.301581 0.413677
H6    H     H_    0.964279 0.149311 0.695298 0.415900
H7    H     H_    0.858227 0.649706 0.415478 0.271535
H8    H     H_    0.141927 0.351570 0.585304 0.270150
H9    H     H_    0.253297 0.506615 0.246526 0.234217
H10   H     H_    0.368546 0.862585 0.589062 0.209888
H11   H     H_    0.630735 0.137137 0.410155 0.202691
H12   H     H_    0.688105 0.547298 0.255141 0.210663
H13   H     H_    0.311849 0.486852 0.746372 0.214721
H14   H     H_    0.675055 0.577906 0.112671 0.211698
H15   H     H_    0.324935 0.497576 0.888165 0.213194
H16   H     H_    0.034125 0.526268 0.891473 0.419698
N1    N     N_2   0.554731 0.523468 0.986502 -0.116006
N2    N     N_2   0.447489 0.555125 0.012016 -0.113677
N3    N     N_R   0.857210 0.499970 0.500020 -0.188099
N4    N     N_R   0.142790 0.500030 0.499980 -0.188409
O1    O     O_R   0.614620 0.316750 0.500010 -0.564735
O2    O     O_2   0.839324 0.418334 0.980759 -0.244454
O3    O     O_3   0.948689 0.518289 0.856992 -0.520985
O4    O     O_2   0.165337 0.648726 0.020068 -0.250466
O5    O     O_2   0.161063 0.419515 0.036098 -0.254935
O6    O     O_3   0.052408 0.543250 0.141066 -0.515582
O7    O     O_2   0.181001 0.126063 0.583811 -0.221672
O8    O     O_2   0.309327 0.009992 0.693546 -0.259055
O9    O     O_3   0.380319 0.240262 0.661700 -0.545560
O10   O     O_2   0.629530 0.769506 0.345240 -0.283272
O11   O     O_2   0.680682 0.985996 0.302601 -0.259386
O12   O     O_R   0.385380 0.683250 0.499990 -0.567943
O13   O     O_3   0.836707 0.880771 0.418026 -0.500788
O14   O     O_2   0.147969 0.824583 0.450725 -0.272012
O15   O     O_2   0.251039 0.698609 0.357765 -0.273103
O16   O     O_3   0.005635 0.763250 0.322767 -0.494080
O17   O     O_2   0.750458 0.302036 0.643062 -0.297452
O18   O     O_2   0.848685 0.176455 0.547822 -0.296810
O19   O     O_3   0.995144 0.233085 0.675276 -0.487816
O20   O     O_R   0.385290 0.316780 0.500000 -0.582862
O21   O     O_R   0.614710 0.683220 0.500000 -0.589550
O22   O     O_R   0.627460 0.498830 0.616130 -0.585788
O23   O     O_R   0.372540 0.501170 0.383870 -0.587780
O24   O     O_R   0.398130 0.498850 0.616130 -0.609233
O25   O     O_R   0.601870 0.501150 0.383870 -0.622310
O26   O     O_2   0.836388 0.646745 0.958295 -0.258676
S1    S     S_3+6 0.825144 0.525043 0.918418 0.082752
S2    S     S_3+6 0.175898 0.537864 0.079479 0.083028
S3    S     S_3+6 0.319659 0.106139 0.625378 0.070660
S4    S     S_3+6 0.679006 0.893717 0.373481 0.065641
S5    S     S_3+6 0.124348 0.719280 0.396230 0.082073
S6    S     S_3+6 0.875488 0.280258 0.603180 0.075832
Zn1   Zn    Zn3+2 0.653130 0.499980 0.500000 1.068358
Zn2   Zn    Zn3+2 0.346870 0.500020 0.500000 1.071830

loop_
_geom_bond_atom_site_label_1
_geom_bond_atom_site_label_2
_ccdc_geom_bond_type
C18   S3    S    
O10   S4    D    
O16   S5    S    
C3    O22   A    
O5    S2    D    
O1    Zn1   S    
O25   Zn1   S    
C2    N4    A    
O11   S4    D    
C19   S4    S    
C19   C21   A    
C24   C26   A    
O6    S2    S    
O4    S2    D    
C11   C14   A    
C12   C22   S    
C10   H14   S    
C5    C16   A    
C26   N3    A    
O15   S5    D    
C11   N1    S    
C18   C20   A    
O12   Zn2   S    
O9    S3    S    
C2    H8    S    
O22   Zn1   S    
H5    O16   S    
O7    S3    D    
C8    H12   S    
C4    O23   A    
C12   O21   A    
O14   S5    D    
O24   Zn2   S    
C25   S6    S    
C14   S1    S    
C3    O24   A    
O21   Zn1   S    
C4    C6    S    
C5    C7    A    
C1    O1    A    
C6    C8    A    
H3    O9    S    
C18   C23   A    
N1    N2    D    
C26   H7    S    
H4    O13   S    
C19   C22   A    
C1    O20   A    
N3    Zn1   S    
C9    C11   A    
C20   C22   A    
C1    C23   S    
C13   C15   A    
O3    S1    S    
C25   N3    A    
C7    C9    A    
C6    C17   A    
O19   S6    S    
O18   S6    D    
O2    S1    D    
O26   S1    D    
C3    C5    S    
C10   C13   A    
C15   C17   A    
O20   Zn2   S    
C9    H15   S    
C24   N4    A    
C21   C23   A    
C12   O12   A    
N4    Zn2   S    
H2    O6    S    
C16   H1    S    
C2    C25   A    
C14   C16   A    
C4    O25   A    
H16   O3    S    
O8    S3    D    
C20   H10   S    
C24   S5    S    
C15   S2    S    
C21   H11   S    
C8    C10   A    
C7    H13   S    
O23   Zn2   S    
C17   H9    S    
O13   S4    S    
C13   N2    S    
H6    O19   S    
O17   S6    D    
