data_mof_unit_33556.cif
_audit_creation_date              2012-12-10T18:42:28-0500
_audit_creation_method            fapswitch 2.2
_symmetry_space_group_name_H-M    P1
_symmetry_Int_Tables_number       1
_space_group_crystal_system       triclinic
_cell_length_a                    8.581592
_cell_length_b                    10.761684
_cell_length_c                    9.90202
_cell_angle_alpha                 90.18289
_cell_angle_beta                  96.307548
_cell_angle_gamma                 90.440927
_cell_volume                      908.904929162

loop_
_atom_site_label
_atom_site_type_symbol
_atom_type_description
_atom_site_fract_x
_atom_site_fract_y
_atom_site_fract_z
_atom_type_partial_charge
C1    C     C_R   0.503464 0.260186 0.499309 0.876016
C2    C     C_R   0.496533 0.739814 0.500691 0.876018
C3    C     C_R   0.202768 0.495709 0.467123 0.975567
C4    C     C_R   0.797232 0.504292 0.532877 0.975573
C5    C     C_2   0.042492 0.468103 0.458628 -0.009343
C6    C     C_2   0.957508 0.531900 0.541370 -0.009337
C7    C     C_R   0.562109 0.060240 0.390440 0.190851
C8    C     C_R   0.437883 0.939760 0.609559 0.190851
C9    C     C_R   0.556869 0.932611 0.395739 -0.234652
C10   C     C_R   0.443123 0.067390 0.604260 -0.234655
C11   C     C_R   0.495811 0.872447 0.503114 -0.084447
C12   C     C_R   0.504183 0.127554 0.496885 -0.084444
C13   C     C_R   0.613270 0.564076 0.080772 0.245294
C14   C     C_R   0.386729 0.435925 0.919227 0.245298
C15   C     C_R   0.611696 0.563619 0.937326 -0.121861
C16   C     C_R   0.388306 0.436379 0.062674 -0.121866
H1    H     H_    0.602200 0.879703 0.315641 0.162669
H2    H     H_    0.397791 0.120299 0.684358 0.162675
H3    H     H_    0.700863 0.613520 0.889594 0.150409
H4    H     H_    0.299138 0.386478 0.110406 0.150407
N1    N     N_R   0.499960 0.499970 0.857200 -0.098796
N2    N     N_R   0.500040 0.500030 0.142800 -0.098795
O1    O     O_R   0.499990 0.316750 0.614620 -0.633757
O2    O     O_R   0.500010 0.683250 0.385380 -0.633756
O3    O     O_R   0.499990 0.316780 0.385290 -0.618365
O4    O     O_R   0.500010 0.683220 0.614710 -0.618364
O5    O     O_R   0.271750 0.499990 0.587840 -0.624368
O6    O     O_R   0.728250 0.500010 0.412160 -0.624363
O7    O     O_R   0.271750 0.500010 0.358510 -0.623446
O8    O     O_R   0.728250 0.499990 0.641490 -0.623446
Zn1   Zn    Zn3+2 0.500000 0.499980 0.653120 0.931605
Zn2   Zn    Zn3+2 0.500000 0.500020 0.346880 0.931605
C17   C     C_3   0.987721 0.349818 0.382804 -0.957094
H5    H     H_    0.087706 0.298752 0.347068 0.240317
H6    H     H_    0.931153 0.286569 0.451574 0.233496
H7    H     H_    0.905139 0.370827 0.291915 0.266566
C18   C     C_3   0.012277 0.650187 0.617189 -0.957106
H8    H     H_    0.912291 0.701256 0.652917 0.240317
H9    H     H_    0.094853 0.629183 0.708081 0.266562
H10   H     H_    0.068850 0.713431 0.548419 0.233497
C19   C     C_3   0.631507 0.119440 0.271978 -0.858169
H11   H     H_    0.724465 0.186822 0.309418 0.246601
H12   H     H_    0.686031 0.049900 0.208992 0.221343
H13   H     H_    0.538517 0.166523 0.204399 0.255778
C20   C     C_3   0.368482 0.880559 0.728020 -0.858161
H14   H     H_    0.275527 0.813174 0.690577 0.246599
H15   H     H_    0.461472 0.833480 0.795602 0.255776
H16   H     H_    0.313950 0.950099 0.791003 0.221343
C21   C     C_3   0.745319 0.632951 0.161331 -0.844827
H17   H     H_    0.803446 0.699017 0.096489 0.195525
H18   H     H_    0.703558 0.688504 0.243282 0.265822
H19   H     H_    0.835702 0.566592 0.203095 0.251257
C22   C     C_3   0.254664 0.367070 0.838666 -0.844829
H20   H     H_    0.196532 0.301006 0.903502 0.195535
H21   H     H_    0.164290 0.433445 0.796927 0.251243
H22   H     H_    0.296397 0.311530 0.756686 0.265833

loop_
_geom_bond_atom_site_label_1
_geom_bond_atom_site_label_2
_ccdc_geom_bond_type
C1    O3    A    
O2    Zn2   S    
C18   H8    S    
C18   H10   S    
C19   H12   S    
C19   H11   S    
C13   C15   A    
C15   N1    A    
C16   H4    S    
C21   H19   S    
C17   H7    S    
O3    Zn2   S    
C3    O5    A    
C17   H5    S    
C6    C18   S    
O4    Zn1   S    
C2    O4    A    
C22   H20   S    
C15   H3    S    
C5    C6    D    
N1    Zn1   S    
C9    C11   A    
C7    C12   A    
C1    C12   S    
N2    Zn2   S    
C10   H2    S    
C8    C11   A    
C13   C21   S    
C2    C11   S    
C10   C12   A    
C14   N1    A    
C8    C10   A    
C17   H6    S    
C13   N2    A    
C1    O1    A    
O7    Zn2   S    
C22   H21   S    
C2    O2    A    
O8    Zn1   S    
C19   H13   S    
C14   C16   A    
C20   H16   S    
C4    C6    S    
O5    Zn1   S    
O6    Zn2   S    
C14   C22   S    
C20   H15   S    
C18   H9    S    
C21   H17   S    
C22   H22   S    
C9    H1    S    
C7    C9    A    
C8    C20   S    
C3    O7    A    
C16   N2    A    
C4    O6    A    
C20   H14   S    
C4    O8    A    
C21   H18   S    
C7    C19   S    
O1    Zn1   S    
C3    C5    S    
C5    C17   S    
