data_mof_unit_19932.cif
_audit_creation_date              2012-12-11T15:45:01-0500
_audit_creation_method            fapswitch 2.2
_symmetry_space_group_name_H-M    P1
_symmetry_Int_Tables_number       1
_space_group_crystal_system       triclinic
_cell_length_a                    6.952684
_cell_length_b                    16.863938
_cell_length_c                    17.086004
_cell_angle_alpha                 100.509671
_cell_angle_beta                  88.453276
_cell_angle_gamma                 91.391678
_cell_volume                      1968.62029073

loop_
_atom_site_label
_atom_site_type_symbol
_atom_type_description
_atom_site_fract_x
_atom_site_fract_y
_atom_site_fract_z
_atom_type_partial_charge
O1    O     O_R   0.494370 0.415690 0.413450 -0.557171
O2    O     O_R   0.819420 0.429360 0.578420 -0.506241
O3    O     O_R   0.994280 0.584310 0.586550 -0.522538
C1    C     C_R   0.647345 0.414291 0.605277 0.873651
O4    O     O_R   0.823790 0.406230 0.413570 -0.519634
O5    O     O_R   0.998670 0.561000 0.420530 -0.514391
C2    C     C_R   0.655255 0.383673 0.384572 0.775243
O6    O     O_R   0.489970 0.439000 0.579470 -0.528794
O7    O     O_3   0.662300 0.550810 0.502470 -0.367931
V1    V     V_3+5 0.935380 0.490570 0.499540 1.666679
O8    O     O_R   0.328650 0.570640 0.421580 -0.555731
C3    C     C_R   0.163647 0.585784 0.394407 0.772504
O9    O     O_R   0.324290 0.593770 0.586430 -0.534737
C4    C     C_R   0.154790 0.617158 0.614530 0.837333
V2    V     V_3+5 0.435930 0.509430 0.500460 1.573183
O10   O     O_3   0.159140 0.449190 0.497530 -0.369541
C5    C     C_R   0.239193 0.761194 0.679491 0.005227
C6    C     C_R   0.231025 0.824593 0.746524 0.359903
C7    C     C_R   0.121071 0.815695 0.815344 -0.285264
C8    C     C_R   0.020926 0.742260 0.817060 0.303273
C9    C     C_R   0.032509 0.678120 0.751531 0.366221
C10   C     C_R   0.142755 0.686504 0.682538 -0.234286
C11   C     C_R   0.170137 0.636983 0.331238 -0.151365
C12   C     C_R   0.097962 0.861340 0.167022 -0.069510
C13   C     C_R   0.951647 0.824272 0.286824 -0.093563
C14   C     C_R   0.968949 0.877746 0.233224 0.074629
C15   C     C_R   0.212355 0.791315 0.157414 0.048094
C16   C     C_R   0.212651 0.743468 0.218993 0.058350
C17   C     C_R   0.069571 0.756806 0.280690 -0.023452
C18   C     C_R   0.049645 0.704151 0.336790 0.277668
C19   C     C_R   0.316310 0.624777 0.270785 0.081312
C20   C     C_R   0.350526 0.682813 0.221255 0.147629
H1    H     H_    0.845218 0.837025 0.334487 0.197900
C21   C     C_R   0.625201 0.362784 0.667365 -0.278697
C22   C     C_R   0.639254 0.141067 0.836642 -0.110919
C23   C     C_R   0.820919 0.173568 0.722647 0.510270
C24   C     C_R   0.779403 0.122663 0.776662 -0.192179
C25   C     C_R   0.539544 0.214227 0.844136 0.109173
C26   C     C_R   0.559266 0.261458 0.782358 -0.082692
C27   C     C_R   0.704649 0.241658 0.721104 -0.068998
C28   C     C_R   0.726150 0.290049 0.660669 0.361423
C29   C     C_R   0.485654 0.382174 0.728705 0.334108
C30   C     C_R   0.439806 0.328269 0.780114 0.383665
H2    H     H_    0.865832 0.069570 0.774425 0.176665
C31   C     C_R   0.810974 0.289817 0.269112 0.345511
C32   C     C_R   0.803937 0.215299 0.216341 0.354644
C33   C     C_R   0.625275 0.185567 0.184086 -0.327236
C34   C     C_R   0.461447 0.228257 0.214557 0.445329
C35   C     C_R   0.469738 0.276062 0.291260 0.051013
C36   C     C_R   0.645111 0.316492 0.314419 -0.248021
O11   O     O_R   0.774880 0.061150 0.920630 -0.549163
O12   O     O_R   0.440980 0.093710 0.086500 -0.514635
O13   O     O_R   0.266190 0.938890 0.079390 -0.549677
C37   C     C_R   0.610600 0.116838 0.115192 0.784767
O14   O     O_R   0.445420 0.070740 0.921670 -0.526070
O15   O     O_R   0.270660 0.915760 0.913380 -0.523082
C38   C     C_R   0.617562 0.087044 0.896065 0.752896
O16   O     O_R   0.770400 0.084270 0.086640 -0.512370
O17   O     O_3   0.602590 0.949210 0.997500 -0.378176
V3    V     V_3+5 0.329470 0.009420 0.000470 1.601070
O18   O     O_R   0.940650 0.906250 0.913470 -0.524169
C39   C     C_R   0.109987 0.883429 0.884857 0.835485
O19   O     O_R   0.936210 0.929220 0.078300 -0.539347
C40   C     C_R   0.101292 0.914032 0.105303 0.730647
V4    V     V_3+5 0.828930 0.990510 0.999490 1.579085
O20   O     O_3   0.105680 0.050790 0.002500 -0.347771
C41   C     C_3   0.344673 0.776472 0.604689 -0.523072
H3    H     H_    0.501458 0.783154 0.615567 0.232976
H4    H     H_    0.321612 0.728504 0.552082 0.171209
H5    H     H_    0.292229 0.832627 0.587943 0.244226
C42   C     C_3   0.303170 0.761201 0.075912 -0.642816
H6    H     H_    0.207399 0.771901 0.028095 0.213290
H7    H     H_    0.442901 0.792789 0.069225 0.210831
H8    H     H_    0.321498 0.695009 0.064599 0.238666
Cl1   Cl    Cl    0.849417 0.255470 0.568910 -0.552988
Cl2   Cl    Cl    0.363376 0.474958 0.742163 -0.463355
Cl3   Cl    Cl    0.037068 0.151653 0.667060 -0.488845
Cl4   Cl    Cl    0.211755 0.339635 0.829702 -0.523451
C43   C     C_3   0.444481 0.247177 0.924078 -0.509216
H9    H     H_    0.518184 0.226960 0.973600 0.172579
H10   H     H_    0.457446 0.313921 0.938325 0.243499
H11   H     H_    0.291507 0.226828 0.924885 0.242549
Cl5   Cl    Cl    0.011193 0.354964 0.265556 -0.586437
Cl6   Cl    Cl    0.014006 0.158356 0.198864 -0.614753
Cl7   Cl    Cl    0.333586 0.267599 0.143096 -0.512478
Cl8   Cl    Cl    0.351870 0.917663 0.742332 -0.621287
C44   C     C_3   0.319792 0.263246 0.353483 -0.541239
H12   H     H_    0.216173 0.214408 0.330267 0.244169
H13   H     H_    0.390921 0.244789 0.404594 0.183254
H14   H     H_    0.238863 0.318628 0.375945 0.252207
Cl9   Cl    Cl    0.886680 0.728460 0.903262 -0.557877
Cl10  Cl    Cl    0.911829 0.585693 0.757870 -0.459994
Cl11  Cl    Cl    0.877816 0.723693 0.416410 -0.677222
C45   C     C_3   0.438796 0.550002 0.259060 -0.622534
H15   H     H_    0.491407 0.533376 0.196444 0.225035
H16   H     H_    0.564486 0.560570 0.298644 0.210407
H17   H     H_    0.353487 0.496978 0.271513 0.224603
C46   C     C_3   0.550495 0.688002 0.184243 -0.709248
H18   H     H_    0.661104 0.674691 0.225493 0.226258
H19   H     H_    0.564604 0.644124 0.127607 0.230685
H20   H     H_    0.587025 0.749887 0.174568 0.214042
C47   C     C_3   0.845426 0.951697 0.247789 -0.699732
H21   H     H_    0.936723 0.006238 0.246442 0.240008
H22   H     H_    0.733309 0.946542 0.202045 0.203589
H23   H     H_    0.770503 0.959966 0.306879 0.215263

loop_
_geom_bond_atom_site_label_1
_geom_bond_atom_site_label_2
_ccdc_geom_bond_type
C44   H12   S    
O19   V4    S    
C35   C44   S    
C7    C8    A    
C21   C29   A    
C12   C15   A    
C1    O6    A    
C43   H11   S    
C31   C32   A    
C30   Cl4   S    
C3    C11   S    
C16   C17   A    
C6    Cl8   S    
C23   C24   A    
C22   C24   A    
C12   C14   A    
C18   Cl11  S    
C23   Cl3   S    
O5    C3    A    
C25   C26   A    
O13   C40   A    
C25   C43   S    
C7    C39   S    
V2    O10   S    
C47   H23   S    
C6    C7    A    
O11   V4    S    
O12   V3    S    
C47   H21   S    
O8    V2    S    
C33   C34   A    
O1    V2    S    
O9    C4    A    
O7    V1    S    
C45   H16   S    
V3    O20   S    
O17   V3    S    
C12   C40   S    
O14   V3    S    
C31   Cl5   S    
C21   C28   A    
O13   V3    S    
O12   C37   A    
O4    C2    A    
C13   C17   A    
C8    Cl9   S    
C1    C21   S    
C5    C41   S    
C41   H3    S    
C11   C18   A    
C23   C27   A    
C22   C25   A    
C26   C27   A    
C43   H10   S    
C26   C30   A    
C45   H17   S    
C13   C14   A    
C43   H9    S    
C41   H4    S    
C11   C19   A    
O2    C1    A    
C17   C18   A    
C28   Cl1   S    
O16   V4    S    
C19   C20   A    
C16   C20   A    
C5    C6    A    
C45   H15   S    
C47   H22   S    
O3    C4    A    
C33   C37   S    
O11   C38   A    
C34   C35   A    
C46   H18   S    
O6    V2    S    
C46   H19   S    
O9    V2    S    
O15   C39   A    
C29   C30   A    
O2    V1    S    
C15   C42   S    
C42   H7    S    
C37   O16   A    
C32   C33   A    
C27   C28   A    
O1    C2    A    
C2    C36   S    
O5    V1    S    
C42   H8    S    
O8    C3    A    
C19   C45   S    
C29   Cl2   S    
C5    C10   A    
C46   H20   S    
C22   C38   S    
C41   H5    S    
C4    C10   S    
C24   H2    S    
O14   C38   A    
O7    V2    S    
C42   H6    S    
O3    V1    S    
V1    O10   S    
O17   V4    S    
C31   C36   A    
C20   C46   S    
C32   Cl6   S    
V4    O20   S    
O18   C39   A    
O19   C40   A    
O18   V4    S    
O4    V1    S    
O15   V3    S    
C8    C9    A    
C35   C36   A    
C44   H14   S    
C15   C16   A    
C44   H13   S    
C34   Cl7   S    
C9    C10   A    
C14   C47   S    
C13   H1    S    
C9    Cl10  S    
