data_mof_unit_34377.cif
_audit_creation_date              2012-12-10T17:58:16-0500
_audit_creation_method            fapswitch 2.2
_symmetry_space_group_name_H-M    P1
_symmetry_Int_Tables_number       1
_space_group_crystal_system       triclinic
_cell_length_a                    9.536433
_cell_length_b                    10.829588
_cell_length_c                    15.493489
_cell_angle_alpha                 89.717445
_cell_angle_beta                  74.492406
_cell_angle_gamma                 90.288059
_cell_volume                      1541.7962107

loop_
_atom_site_label
_atom_site_type_symbol
_atom_type_description
_atom_site_fract_x
_atom_site_fract_y
_atom_site_fract_z
_atom_type_partial_charge
C1    C     C_R   0.999676 0.262126 0.500185 0.790597
C2    C     C_R   0.000324 0.737874 0.499815 0.790597
C3    C     C_R   0.579982 0.449704 0.091926 -0.231098
C4    C     C_R   0.420017 0.550297 0.908074 -0.231096
C5    C     C_R   0.725226 0.434887 0.046802 -0.244390
C6    C     C_R   0.274774 0.565116 0.953197 -0.244390
C7    C     C_R   0.870375 0.063181 0.505335 -0.172859
C8    C     C_R   0.129625 0.936819 0.494665 -0.172859
C9    C     C_R   0.870742 0.935446 0.505076 -0.199594
C10   C     C_R   0.129258 0.064554 0.494924 -0.199594
C11   C     C_R   0.000358 0.871750 0.499795 -0.022552
C12   C     C_R   0.999642 0.128250 0.500205 -0.022552
C13   C     C_R   0.552382 0.414592 0.549892 0.556367
C14   C     C_R   0.447618 0.585407 0.450108 0.556364
C15   C     C_R   0.403437 0.414225 0.548201 -0.251666
C16   C     C_R   0.596563 0.585775 0.451799 -0.251662
C17   C     C_R   0.918463 0.500077 0.672072 0.789353
C18   C     C_R   0.081537 0.499923 0.327928 0.789351
C19   C     C_R   0.873899 0.494179 0.770192 -0.057188
C20   C     C_R   0.126100 0.505822 0.229808 -0.057188
C21   C     C_R   0.920497 0.438125 0.910877 -0.217605
C22   C     C_R   0.079502 0.561879 0.089123 -0.217605
C23   C     C_R   0.970377 0.455842 0.818727 -0.201530
C24   C     C_R   0.029623 0.544162 0.181273 -0.201531
C25   C     C_R   0.729087 0.518961 0.814849 -0.253500
C26   C     C_R   0.270912 0.481038 0.185151 -0.253497
C27   C     C_R   0.674224 0.497468 0.907363 0.091606
C28   C     C_R   0.325775 0.502533 0.092637 0.091606
C29   C     C_R   0.773448 0.457179 0.955256 0.168060
C30   C     C_R   0.226551 0.542824 0.044744 0.168059
C31   C     C_R   0.524022 0.512473 0.953086 0.067154
C32   C     C_R   0.475977 0.487528 0.046914 0.067153
Cu1   Cu    Cu3+1 0.140660 0.500020 0.500000 0.973775
Cu2   Cu    Cu3+1 0.859340 0.499980 0.500000 0.973776
H1    H     H_    0.800440 0.404707 0.084048 0.150474
H2    H     H_    0.199560 0.595297 0.915952 0.150473
H3    H     H_    0.338564 0.446989 0.225214 0.145985
H4    H     H_    0.661434 0.553006 0.774786 0.145989
H5    H     H_    0.916924 0.563617 0.214716 0.148297
H6    H     H_    0.083076 0.436388 0.785284 0.148298
H7    H     H_    0.996240 0.406414 0.947199 0.143691
H8    H     H_    0.003760 0.593591 0.052801 0.143690
H9    H     H_    0.553965 0.429894 0.162471 0.134177
H10   H     H_    0.446035 0.570108 0.837528 0.134178
H11   H     H_    0.769048 0.110640 0.509659 0.184390
H12   H     H_    0.230952 0.889360 0.490341 0.184390
H13   H     H_    0.769556 0.886864 0.509213 0.154168
H14   H     H_    0.230444 0.113136 0.490787 0.154168
H15   H     H_    0.329011 0.344453 0.584359 0.150225
H16   H     H_    0.670989 0.655548 0.415641 0.150226
N1    N     N_R   0.352080 0.500030 0.499980 -0.203613
N2    N     N_R   0.647920 0.499970 0.500020 -0.203613
O1    O     O_R   0.118740 0.319660 0.500000 -0.599491
O2    O     O_R   0.881260 0.680340 0.500000 -0.599490
O3    O     O_R   0.881170 0.319630 0.500010 -0.530250
O4    O     O_R   0.118830 0.680370 0.499990 -0.530251
O5    O     O_R   0.055570 0.500030 0.629830 -0.588027
O6    O     O_R   0.944430 0.499970 0.370170 -0.588027
O7    O     O_R   0.818000 0.500000 0.629840 -0.556891
O8    O     O_R   0.182000 0.500000 0.370160 -0.556892
O9    O     O_3   0.606160 0.323011 0.594877 -0.561136
C33   C     C_3   0.525701 0.315530 0.685711 0.039910
H17   H     H_    0.418994 0.269313 0.692542 0.126576
H18   H     H_    0.508101 0.408580 0.716900 0.131768
C34   C     C_3   0.609522 0.237665 0.736807 -0.744085
H19   H     H_    0.720217 0.276564 0.728395 0.251586
H20   H     H_    0.551266 0.236119 0.809201 0.202669
H21   H     H_    0.619598 0.141637 0.711113 0.234638
O10   O     O_3   0.393841 0.676988 0.405122 -0.561138
C35   C     C_3   0.474296 0.684462 0.314287 0.039919
H22   H     H_    0.491887 0.591410 0.283101 0.131766
H23   H     H_    0.581007 0.730674 0.307452 0.126570
C36   C     C_3   0.390476 0.762330 0.263192 -0.744066
H24   H     H_    0.380409 0.858361 0.288882 0.234633
H25   H     H_    0.448729 0.763869 0.190796 0.202668
H26   H     H_    0.279775 0.723436 0.271608 0.251583

loop_
_geom_bond_atom_site_label_1
_geom_bond_atom_site_label_2
_ccdc_geom_bond_type
C27   C29   A    
C36   H24   S    
C3    H9    S    
C7    H11   S    
C16   H16   S    
C23   H6    S    
C24   H5    S    
C1    O1    A    
C33   H18   S    
C18   O6    A    
C31   C32   A    
C34   H20   S    
C35   H22   S    
C14   C16   A    
C15   N1    A    
Cu1   O4    S    
Cu2   O3    S    
C36   H25   S    
O10   C35   S    
C1    C12   S    
C2    C11   S    
C5    C29   A    
Cu1   O1    S    
C7    C12   A    
C27   C31   A    
C20   C24   A    
C28   C32   A    
C4    C6    A    
C2    O2    A    
C4    H10   S    
C21   C29   A    
C19   C23   A    
C33   H17   S    
C25   H4    S    
C13   N2    A    
C14   N1    A    
C34   H21   S    
C35   C36   S    
Cu1   Cu2   S    
C3    C32   A    
C9    C11   A    
C10   C12   A    
C17   O7    A    
C21   H7    S    
C18   O8    A    
C6    C30   A    
C9    H13   S    
Cu1   O8    S    
C13   C15   A    
C10   H14   S    
Cu2   O7    S    
C14   O10   S    
C22   C24   A    
C25   C27   A    
C7    C9    A    
Cu1   O5    S    
C22   C30   A    
C33   C34   S    
Cu2   N2    S    
C16   N2    A    
C3    C5    A    
C26   H3    S    
Cu2   O2    S    
Cu1   N1    S    
C26   C28   A    
C21   C23   A    
C1    O3    A    
C2    O4    A    
C22   H8    S    
C20   C26   A    
C8    C11   A    
C5    H1    S    
C28   C30   A    
C17   C19   S    
C6    H2    S    
C18   C20   S    
C15   H15   S    
O9    C33   S    
C19   C25   A    
C8    H12   S    
C4    C31   A    
C13   O9    S    
C36   H26   S    
C8    C10   A    
C34   H19   S    
Cu2   O6    S    
C35   H23   S    
C17   O5    A    
