data_mof_unit_42587.cif
_audit_creation_date              2012-12-10T17:20:23-0500
_audit_creation_method            fapswitch 2.2
_symmetry_space_group_name_H-M    P1
_symmetry_Int_Tables_number       1
_space_group_crystal_system       triclinic
_cell_length_a                    11.70664
_cell_length_b                    10.784859
_cell_length_c                    9.619101
_cell_angle_alpha                 90.12196
_cell_angle_beta                  90.095306
_cell_angle_gamma                 92.588249
_cell_volume                      1213.21086632

loop_
_atom_site_label
_atom_site_type_symbol
_atom_type_description
_atom_site_fract_x
_atom_site_fract_y
_atom_site_fract_z
_atom_type_partial_charge
C1    C     C_R   0.495797 0.262614 0.499917 0.792950
C2    C     C_R   0.233254 0.051842 0.724490 -0.142028
C3    C     C_R   0.233597 0.922940 0.725044 -0.131838
C4    C     C_R   0.317034 0.862005 0.651605 -0.170080
C5    C     C_R   0.403634 0.929822 0.577921 0.097826
C6    C     C_R   0.403297 0.061021 0.577445 0.099648
C7    C     C_R   0.487705 0.128398 0.499628 -0.094089
C8    C     C_R   0.566647 0.067173 0.419004 -0.185652
C9    C     C_R   0.566948 0.939266 0.419361 -0.205320
C10   C     C_R   0.488295 0.870506 0.500329 -0.086197
C11   C     C_R   0.651269 0.665746 0.144276 -0.110804
C12   C     C_R   0.284168 0.499645 0.499920 0.805302
C13   C     C_R   0.724691 0.747330 0.072528 -0.204217
C14   C     C_R   0.724621 0.747378 0.929290 -0.200487
C15   C     C_R   0.651100 0.665865 0.856898 -0.106693
C16   C     C_R   0.574108 0.581558 0.925611 0.190765
C17   C     C_R   0.574145 0.581502 0.074959 0.123466
C18   C     C_R   0.428924 0.421721 0.074136 0.510127
C19   C     C_R   0.429468 0.422343 0.925311 -0.163782
C20   C     C_R   0.496397 0.737069 0.500142 0.753295
C21   C     C_R   0.715830 0.500332 0.500096 0.793929
C22   C     C_1   0.162436 0.499990 0.499844 -0.175955
C23   C     C_1   0.059941 0.500300 0.499991 0.002039
C24   C     C_1   0.940098 0.500530 0.500193 -0.001105
C25   C     C_1   0.837589 0.500532 0.500257 -0.179921
C26   C     C_R   0.316329 0.120632 0.650468 -0.177813
Cu1   Cu    Cu3+1 0.499990 0.499990 0.640660 0.931454
Cu2   Cu    Cu3+1 0.500010 0.500010 0.359340 0.987269
H1    H     H_    0.630261 0.118937 0.358033 0.152058
H2    H     H_    0.782299 0.810823 0.873508 0.146973
H3    H     H_    0.658793 0.673045 0.747336 0.192174
H4    H     H_    0.372115 0.359182 0.868372 0.135633
H5    H     H_    0.309833 0.220246 0.648983 0.139470
H6    H     H_    0.167319 0.098740 0.779992 0.134187
H7    H     H_    0.167914 0.869797 0.780979 0.137093
H8    H     H_    0.311098 0.761781 0.651271 0.154335
H9    H     H_    0.630773 0.893692 0.358589 0.137501
H10   H     H_    0.659159 0.672884 0.253853 0.187984
H11   H     H_    0.782391 0.810764 0.128832 0.143945
N1    N     N_R   0.501070 0.501210 0.147910 -0.209653
N2    N     N_R   0.501110 0.501290 0.852040 -0.208900
O1    O     O_R   0.499990 0.319640 0.618810 -0.583085
O2    O     O_R   0.500000 0.319660 0.381240 -0.524028
O3    O     O_R   0.337190 0.500000 0.618790 -0.591797
O4    O     O_R   0.337200 0.500030 0.381210 -0.516481
O5    O     O_R   0.500000 0.680340 0.618760 -0.603309
O6    O     O_R   0.500010 0.680360 0.381190 -0.594613
O7    O     O_R   0.662800 0.499970 0.618790 -0.585554
O8    O     O_R   0.662810 0.500000 0.381210 -0.594920
O9    O     O_3   0.356091 0.341421 0.146540 -0.693220
H12   H     H_    0.310043 0.290229 0.079375 0.292121

loop_
_geom_bond_atom_site_label_1
_geom_bond_atom_site_label_2
_ccdc_geom_bond_type
Cu1   O7    S    
C11   H10   S    
C23   C24   S    
C4    H8    S    
Cu2   O6    S    
C15   H3    S    
C6    C7    A    
C12   O4    A    
Cu2   O8    S    
Cu1   N2    S    
C26   H5    S    
C3    H7    S    
C21   O7    A    
C2    H6    S    
C21   O8    A    
C2    C3    A    
C19   N2    A    
C5    C10   A    
C2    C26   A    
C13   C14   A    
C11   C13   A    
Cu1   O1    S    
C6    C26   A    
C14   H2    S    
C8    H1    S    
Cu1   O3    S    
Cu1   O5    S    
C9    H9    S    
O9    H12   S    
C22   C23   T    
C5    C6    A    
C20   O5    A    
Cu2   O4    S    
C13   H11   S    
C20   O6    A    
C7    C8    A    
C19   H4    S    
C15   C16   A    
C12   C22   S    
C1    O1    A    
C4    C5    A    
C18   N1    A    
C24   C25   T    
C18   O9    S    
C12   O3    A    
C18   C19   A    
C9    C10   A    
Cu1   Cu2   S    
Cu2   N1    S    
C14   C15   A    
C16   C17   A    
C21   C25   S    
Cu2   O2    S    
C1    C7    S    
C16   N2    A    
C1    O2    A    
C11   C17   A    
C3    C4    A    
C10   C20   S    
C8    C9    A    
C17   N1    A    
