data_mof_unit_6593.cif
_audit_creation_date              2012-12-11T17:44:04-0500
_audit_creation_method            fapswitch 2.2
_symmetry_space_group_name_H-M    P1
_symmetry_Int_Tables_number       1
_space_group_crystal_system       triclinic
_cell_length_a                    20.331297
_cell_length_b                    22.752812
_cell_length_c                    6.939308
_cell_angle_alpha                 90.005088
_cell_angle_beta                  86.457955
_cell_angle_gamma                 89.999044
_cell_volume                      3203.95134565

loop_
_atom_site_label
_atom_site_type_symbol
_atom_type_description
_atom_site_fract_x
_atom_site_fract_y
_atom_site_fract_z
_atom_type_partial_charge
O1    O     O_R   0.751270 0.447300 0.600030 -0.546124
O2    O     O_R   0.248730 0.947300 0.399970 -0.546113
O3    O     O_R   0.613530 0.440160 0.952150 -0.532534
O4    O     O_R   0.386470 0.940160 0.047850 -0.532582
O5    O     O_R   0.613050 0.552700 0.122560 -0.529643
O6    O     O_R   0.386950 0.052700 0.877440 -0.529622
C1    C     C_R   0.591819 0.425552 0.787960 0.712117
C2    C     C_R   0.408199 0.925565 0.212008 0.712319
O7    O     O_R   0.750780 0.440350 0.929820 -0.545326
O8    O     O_R   0.249220 0.940350 0.070180 -0.545320
O9    O     O_R   0.751280 0.552900 0.100070 -0.528433
O10   O     O_R   0.248720 0.052900 0.899930 -0.528466
C3    C     C_R   0.773827 0.425965 0.757022 0.691652
C4    C     C_R   0.226171 0.925966 0.242970 0.691818
O11   O     O_R   0.613040 0.447100 0.622520 -0.541699
O12   O     O_R   0.386960 0.947100 0.377480 -0.541681
O13   O     O_3   0.682160 0.536920 0.777780 -0.356956
O14   O     O_3   0.317840 0.036920 0.222220 -0.357133
V1    V     V_3+5 0.682160 0.493150 0.052630 1.470658
V2    V     V_3+5 0.317840 0.993150 0.947370 1.470326
O15   O     O_R   0.750790 0.559840 0.429870 -0.550730
O16   O     O_R   0.249210 0.059840 0.570130 -0.550848
C5    C     C_R   0.775904 0.572018 0.257317 0.697693
C6    C     C_R   0.224080 0.071999 0.742687 0.697872
O17   O     O_R   0.613540 0.559650 0.452200 -0.539721
O18   O     O_R   0.386460 0.059650 0.547800 -0.539778
C7    C     C_R   0.592827 0.575654 0.287082 0.676931
C8    C     C_R   0.407159 0.075664 0.712951 0.676975
V3    V     V_3+5 0.682160 0.506850 0.552630 1.440371
V4    V     V_3+5 0.317840 0.006850 0.447370 1.439920
O19   O     O_3   0.682150 0.463080 0.277610 -0.371017
O20   O     O_3   0.317850 0.963080 0.722390 -0.371025
C9    C     C_R   0.571965 0.859926 0.068326 -0.150088
C10   C     C_R   0.427819 0.360095 0.929964 -0.149963
H1    H     H_    0.529480 0.945721 0.058663 0.110295
H2    H     H_    0.470351 0.445873 0.939662 0.110284
H3    H     H_    0.662070 0.778973 0.035104 0.156369
H4    H     H_    0.337617 0.279212 0.962348 0.156427
H5    H     H_    0.618349 0.874784 0.999637 0.118340
H6    H     H_    0.381336 0.375029 0.997825 0.118394
C11   C     C_R   0.462917 0.883543 0.202022 -0.059258
C12   C     C_R   0.537095 0.383545 0.797785 -0.059025
C13   C     C_R   0.477614 0.600957 0.357837 -0.148545
C14   C     C_R   0.522466 0.100883 0.643585 -0.148521
C15   C     C_R   0.422532 0.636301 0.347076 -0.181088
C16   C     C_R   0.577542 0.136191 0.655213 -0.181301
C17   C     C_R   0.427913 0.693404 0.274346 0.014636
C18   C     C_R   0.572065 0.193338 0.727583 0.014576
C19   C     C_R   0.491586 0.719073 0.236416 0.068583
C20   C     C_R   0.508359 0.219080 0.764081 0.068769
C21   C     C_R   0.548377 0.680894 0.230322 -0.029850
C22   C     C_R   0.451547 0.180941 0.769441 -0.029896
C23   C     C_R   0.501066 0.780960 0.202586 0.095433
C24   C     C_R   0.498869 0.280992 0.797337 0.095621
C25   C     C_R   0.562293 0.800744 0.118625 0.090428
C26   C     C_R   0.437526 0.300873 0.880184 0.090255
C27   C     C_R   0.614841 0.762249 0.092873 -0.187415
C28   C     C_R   0.384920 0.262426 0.905375 -0.187136
C29   C     C_R   0.610371 0.704704 0.160983 -0.043841
C30   C     C_R   0.389473 0.204824 0.837759 -0.043716
C31   C     C_R   0.453229 0.824522 0.256478 -0.134354
C32   C     C_R   0.546830 0.324480 0.743893 -0.133858
C33   C     C_R   0.522019 0.900618 0.105300 -0.166933
C34   C     C_R   0.477857 0.400729 0.893494 -0.167063
C35   C     C_R   0.539866 0.620621 0.290184 -0.092440
C36   C     C_R   0.460119 0.120628 0.710039 -0.092333
H7    H     H_    0.408159 0.813633 0.339173 0.112250
H8    H     H_    0.592028 0.313484 0.661988 0.112263
H9    H     H_    0.470828 0.556099 0.408002 0.111253
H10   H     H_    0.529311 0.055985 0.593849 0.111114
H11   H     H_    0.374503 0.617221 0.383467 0.116026
H12   H     H_    0.625610 0.117045 0.619892 0.115885
C37   C     C_R   0.171353 0.882053 0.261624 -0.043441
C38   C     C_R   0.828638 0.382043 0.738358 -0.043497
C39   C     C_R   0.145705 0.856603 0.096875 -0.203335
C40   C     C_R   0.854313 0.356629 0.903112 -0.203506
C41   C     C_R   0.093791 0.815852 0.114357 -0.141828
C42   C     C_R   0.906215 0.315866 0.885630 -0.141904
C43   C     C_R   0.065959 0.799397 0.298175 0.425022
C44   C     C_R   0.934007 0.299360 0.701808 0.425023
C45   C     C_R   0.091728 0.824679 0.461800 -0.181827
C46   C     C_R   0.908212 0.324605 0.538177 -0.181832
C47   C     C_R   0.143609 0.865351 0.444372 -0.197850
C48   C     C_R   0.856342 0.365290 0.555605 -0.197827
C49   C     C_R   0.908672 0.681736 0.386252 -0.140598
C50   C     C_R   0.091297 0.181697 0.613753 -0.140566
C51   C     C_R   0.856159 0.641596 0.403509 -0.225362
C52   C     C_R   0.143815 0.141560 0.596499 -0.225409
C53   C     C_R   0.938564 0.696116 0.202973 0.423309
C54   C     C_R   0.061388 0.196068 0.797023 0.423297
N1    N     N_2   0.012535 0.758445 0.326212 -0.307013
N2    N     N_2   0.987423 0.258396 0.673775 -0.307022
N3    N     N_2   0.992133 0.736916 0.175029 -0.305575
N4    N     N_2   0.007822 0.236877 0.824963 -0.305587
C55   C     C_R   0.831955 0.614720 0.239060 -0.027971
C56   C     C_R   0.168005 0.114678 0.760944 -0.027396
H13   H     H_    0.834419 0.631770 0.546254 0.145533
H14   H     H_    0.165573 0.131745 0.453761 0.145407
H15   H     H_    0.925523 0.701404 0.516408 0.138758
H16   H     H_    0.074462 0.201374 0.483601 0.138770
H17   H     H_    0.071291 0.812846 0.604348 0.121427
H18   H     H_    0.928616 0.312733 0.395622 0.121421
H19   H     H_    0.161788 0.883866 0.574628 0.131577
H20   H     H_    0.838138 0.383774 0.425343 0.131596
C57   C     C_R   0.862051 0.629050 0.056944 -0.131800
C58   C     C_R   0.137884 0.128993 0.943051 -0.131531
C59   C     C_R   0.914403 0.669229 0.039693 -0.188157
C60   C     C_R   0.085530 0.169173 0.960299 -0.188100
H21   H     H_    0.845105 0.609270 0.927012 0.137103
H22   H     H_    0.154820 0.109209 0.072977 0.136845
H23   H     H_    0.075588 0.797540 0.983904 0.135036
H24   H     H_    0.924442 0.297587 0.016092 0.135032
H25   H     H_    0.936411 0.679473 0.897547 0.120545
H26   H     H_    0.063508 0.179412 0.102440 0.120507
H27   H     H_    0.165651 0.868232 0.953668 0.133235
H28   H     H_    0.834401 0.368298 0.046327 0.133241
C61   C     C_2   0.365802 0.719527 0.212481 0.323107
H29   H     H_    0.319422 0.709675 0.291890 0.057147
O21   O     O_2   0.365193 0.749091 0.065703 -0.524985
C62   C     C_2   0.634025 0.219423 0.790782 0.322986
H30   H     H_    0.680623 0.209263 0.713050 0.057116
O22   O     O_2   0.634251 0.249273 0.937024 -0.525046
C63   C     C_2   0.673571 0.674069 0.170268 0.393971
H31   H     H_    0.685180 0.652768 0.303053 0.020297
O23   O     O_2   0.714269 0.675283 0.033294 -0.533394
C64   C     C_2   0.326300 0.174176 0.828124 0.393156
H32   H     H_    0.314838 0.152750 0.695412 0.020829
O24   O     O_2   0.285457 0.175521 0.964721 -0.533415

loop_
_geom_bond_atom_site_label_1
_geom_bond_atom_site_label_2
_ccdc_geom_bond_type
C9    C25   A    
C52   C56   A    
C10   C26   A    
C64   H32   S    
O11   V3    S    
C15   H11   S    
O13   V3    S    
C14   C36   A    
C11   C31   A    
O4    C2    A    
V1    O19   S    
C63   H31   S    
C17   C19   A    
C45   H17   S    
C57   C59   A    
O9    V1    S    
C9    H5    S    
C38   C40   A    
C5    C55   S    
C10   H6    S    
C40   C42   A    
O3    C1    A    
C6    C56   S    
C58   H22   S    
C42   C44   A    
C27   C29   A    
C28   C30   A    
C50   C52   A    
C21   C35   A    
C15   C17   A    
C60   H26   S    
C30   C64   S    
C41   H23   S    
O7    C3    A    
C59   H25   S    
C56   C58   A    
C55   C57   A    
O13   V1    S    
O5    C7    A    
C23   C31   A    
O7    V1    S    
O6    C8    A    
C14   C16   A    
C19   C21   A    
C51   C55   A    
C20   C22   A    
O3    V1    S    
O14   V4    S    
C50   H16   S    
C12   C32   A    
C16   H12   S    
C9    C33   A    
C18   C20   A    
C2    O12   A    
H4    C28   S    
C29   C63   S    
C37   C39   A    
C53   C59   A    
N2    N4    D    
C45   C47   A    
C62   O22   D    
C54   N4    S    
C21   C29   A    
C16   C18   A    
C23   C25   A    
O15   C5    A    
O17   V3    S    
C24   C26   A    
C49   C51   A    
C4    C37   S    
C2    C11   S    
C44   C46   A    
C50   C54   A    
O8    V2    S    
C43   C45   A    
C49   C53   A    
C1    O11   A    
C24   C32   A    
O15   V3    S    
C44   N2    S    
C8    C36   S    
C1    C12   S    
C7    C35   S    
N1    N3    D    
C13   C15   A    
C31   H7    S    
C13   C35   A    
O10   V2    S    
C10   C34   A    
C46   H18   S    
C41   C43   A    
C20   C24   A    
C14   H10   S    
C39   C41   A    
C47   H19   S    
O18   V4    S    
C46   C48   A    
C25   C27   A    
O8    C4    A    
C48   H20   S    
O16   C6    A    
O1    C3    A    
C11   C33   A    
C12   C34   A    
C22   C36   A    
C62   H30   S    
C18   C62   S    
V2    O20   S    
C57   H21   S    
C64   O24   D    
O16   V4    S    
C43   N1    S    
C38   C48   A    
C42   H24   S    
O5    V1    S    
O17   C7    A    
O6    V2    S    
O10   C6    A    
O18   C8    A    
C32   H8    S    
O2    V4    S    
C61   O21   D    
C54   C60   A    
V3    O19   S    
H2    C34   S    
C61   H29   S    
V4    O20   S    
C49   H15   S    
O1    V3    S    
C58   C60   A    
C19   C23   A    
O9    C5    A    
C40   H28   S    
C26   C28   A    
O14   V2    S    
C53   N3    S    
O2    C4    A    
H3    C27   S    
C63   O23   D    
O4    V2    S    
C17   C61   S    
C39   H27   S    
C3    C38   S    
C22   C30   A    
H1    C33   S    
C13   H9    S    
O12   V4    S    
C37   C47   A    
C52   H14   S    
C51   H13   S    
