data_mof_unit_67997.cif
_audit_creation_date              2012-12-11T14:13:32-0500
_audit_creation_method            fapswitch 2.2
_symmetry_space_group_name_H-M    P1
_symmetry_Int_Tables_number       1
_space_group_crystal_system       triclinic
_cell_length_a                    12.006811
_cell_length_b                    18.776719
_cell_length_c                    10.176838
_cell_angle_alpha                 89.999979
_cell_angle_beta                  112.594958
_cell_angle_gamma                 90.0
_cell_volume                      2118.24773799

loop_
_atom_site_label
_atom_site_type_symbol
_atom_type_description
_atom_site_fract_x
_atom_site_fract_y
_atom_site_fract_z
_atom_type_partial_charge
C1    C     C_R   0.082972 0.643248 0.144083 0.540350
C2    C     C_R   0.930288 0.352046 0.861569 0.523857
C3    C     C_R   0.917029 0.143249 0.855917 0.540350
C4    C     C_R   0.069712 0.852045 0.138430 0.523857
C5    C     C_R   0.409627 0.466275 0.541561 0.031810
C6    C     C_R   0.581921 0.531254 0.461346 0.016670
C7    C     C_R   0.590377 0.966272 0.458452 0.031810
C8    C     C_R   0.418080 0.031253 0.538657 0.016676
C9    C     C_2   0.398654 0.925790 0.932648 -0.120111
C10   C     C_2   0.629813 0.061157 0.983692 -0.142211
C11   C     C_2   0.601344 0.425789 0.067354 -0.120117
C12   C     C_2   0.370181 0.561155 0.016322 -0.142216
C13   C     C_2   0.507306 0.951494 0.947211 -0.053899
C14   C     C_2   0.519724 0.029232 0.931400 -0.044311
C15   C     C_2   0.492691 0.451492 0.052792 -0.053894
C16   C     C_2   0.480272 0.529230 0.068608 -0.044303
C17   C     C_2   0.987130 0.914517 0.105606 0.296431
C18   C     C_2   0.945977 0.067133 0.860100 0.251119
C19   C     C_2   0.012870 0.414517 0.894388 0.296428
C20   C     C_2   0.054033 0.567131 0.139903 0.251121
C21   C     C_2   0.965074 0.949643 0.981199 0.280991
C22   C     C_2   0.969598 0.029033 0.981828 0.267623
C23   C     C_2   0.034932 0.449642 0.018798 0.280975
C24   C     C_2   0.030410 0.529033 0.018173 0.267622
C25   C     C_R   0.469453 0.646389 0.436835 0.513051
C26   C     C_R   0.527739 0.352644 0.560271 0.520260
C27   C     C_R   0.530547 0.146388 0.563165 0.513049
C28   C     C_R   0.472261 0.852644 0.439729 0.520260
C29   C     C_R   0.353076 0.639107 0.014341 0.562461
C30   C     C_R   0.624602 0.354070 0.035792 0.550441
C31   C     C_R   0.646923 0.139106 0.985662 0.562460
C32   C     C_R   0.375397 0.854070 0.964208 0.550440
C33   C     C_R   0.486588 0.423560 0.493948 -0.048230
C34   C     C_R   0.499622 0.573696 0.495034 -0.040888
C35   C     C_R   0.513412 0.923558 0.506058 -0.048238
C36   C     C_R   0.500379 0.073695 0.504967 -0.040892
C37   C     C_R   0.325566 0.437385 0.593386 -0.066007
C38   C     C_R   0.691509 0.558448 0.465390 -0.061005
C39   C     C_R   0.674441 0.937381 0.406637 -0.066005
C40   C     C_R   0.308489 0.058447 0.534608 -0.061000
C41   C     C_R   0.288772 0.476676 0.684138 -0.135546
C42   C     C_R   0.769496 0.514634 0.431458 -0.124418
C43   C     C_R   0.711238 0.976668 0.315885 -0.135546
C44   C     C_R   0.230502 0.014632 0.568536 -0.124444
C45   C     C_R   0.306606 0.548530 0.695422 -0.145346
C46   C     C_R   0.738703 0.445973 0.383349 -0.136560
C47   C     C_R   0.693407 0.048523 0.304597 -0.145345
C48   C     C_R   0.261297 0.945973 0.616653 -0.136572
C49   C     C_R   0.374875 0.581177 0.632060 -0.095000
C50   C     C_R   0.631626 0.418251 0.380571 -0.068106
C51   C     C_R   0.625137 0.081173 0.367954 -0.094992
C52   C     C_R   0.368375 0.918251 0.619433 -0.068108
C53   C     C_R   0.425480 0.540880 0.552441 0.025188
C54   C     C_R   0.561591 0.457686 0.438267 -0.001192
C55   C     C_R   0.574524 0.040878 0.447566 0.025190
C56   C     C_R   0.438410 0.957685 0.561739 -0.001190
Cr1   Cr    Cr6+3 0.187610 0.750000 0.979860 1.011016
Cr2   Cr    Cr6+3 0.812390 0.250000 0.020140 1.011016
Cr3   Cr    Cr6+3 0.245810 0.750000 0.341640 0.977918
Cr4   Cr    Cr6+3 0.754190 0.250000 0.658360 0.977925
Cr5   Cr    Cr6+3 0.485760 0.750000 0.219910 1.029587
Cr6   Cr    Cr6+3 0.514240 0.250000 0.780090 1.029580
H1    H     H_    0.248381 0.452247 0.749265 0.171507
H2    H     H_    0.850827 0.535012 0.434809 0.117039
H3    H     H_    0.751623 0.952236 0.250756 0.171516
H4    H     H_    0.149164 0.034999 0.565147 0.117043
H5    H     H_    0.263721 0.579053 0.749767 0.166787
H6    H     H_    0.798180 0.414259 0.349504 0.121374
H7    H     H_    0.736290 0.079044 0.250247 0.166781
H8    H     H_    0.201818 0.914257 0.650488 0.121382
H9    H     H_    0.290165 0.384140 0.569817 0.125697
H10   H     H_    0.719816 0.612259 0.499940 0.124609
H11   H     H_    0.709838 0.884136 0.430212 0.125696
H12   H     H_    0.280182 0.112256 0.500047 0.124599
H13   H     H_    0.394218 0.637135 0.654945 0.135642
H14   H     H_    0.607688 0.364345 0.342081 0.126090
H15   H     H_    0.605796 0.137130 0.345064 0.135642
H16   H     H_    0.392312 0.864345 0.657922 0.126089
H17   H     H_    0.710835 0.029125 0.030307 0.125130
H18   H     H_    0.320327 0.960102 0.905562 0.107838
H19   H     H_    0.289158 0.529124 0.969708 0.125121
H20   H     H_    0.679670 0.460101 0.094443 0.107838
O1    O     O_R   0.267710 0.668200 0.902110 -0.545005
O2    O     O_R   0.732290 0.331800 0.097890 -0.520078
O3    O     O_R   0.732290 0.168200 0.097890 -0.544991
O4    O     O_R   0.267710 0.831800 0.902110 -0.520076
O5    O     O_R   0.099480 0.674460 0.038850 -0.513367
O6    O     O_R   0.900520 0.325540 0.961150 -0.478155
O7    O     O_R   0.900520 0.174460 0.961150 -0.513373
O8    O     O_R   0.099480 0.825540 0.038850 -0.478154
O9    O     O_R   0.116720 0.669210 0.267660 -0.534711
O10   O     O_R   0.883280 0.330790 0.732340 -0.545234
O11   O     O_R   0.883280 0.169210 0.732340 -0.534709
O12   O     O_R   0.116720 0.830790 0.267660 -0.545242
O13   O     O_R   0.366710 0.675440 0.427590 -0.507700
O14   O     O_R   0.633290 0.324560 0.572410 -0.498336
O15   O     O_R   0.633290 0.175440 0.572410 -0.507699
O16   O     O_R   0.366710 0.824560 0.427590 -0.498338
O17   O     O_R   0.534870 0.669390 0.371760 -0.524487
O18   O     O_R   0.465130 0.330610 0.628240 -0.538564
O19   O     O_R   0.465130 0.169390 0.628240 -0.524482
O20   O     O_R   0.534870 0.830610 0.371760 -0.538557
O21   O     O_R   0.453080 0.674480 0.075160 -0.474853
O22   O     O_R   0.546920 0.325520 0.924840 -0.474687
O23   O     O_R   0.546920 0.174480 0.924840 -0.474856
O24   O     O_R   0.453080 0.825520 0.075160 -0.474685
O25   O     O_3   0.306390 0.750000 0.180470 -0.280849
O26   O     O_3   0.693610 0.250000 0.819530 -0.280847
C57   C     C_1   0.408556 0.070639 0.871243 0.253081
N1    N     N_1   0.321122 0.104227 0.825142 -0.344691
C58   C     C_1   0.608601 0.903852 0.973102 0.195761
N2    N     N_1   0.688816 0.865457 0.993507 -0.353126
C59   C     C_1   0.591440 0.570637 0.128758 0.253078
N3    N     N_1   0.678873 0.604226 0.174855 -0.344696
C60   C     C_1   0.391396 0.403848 0.026899 0.195746
N4    N     N_1   0.311181 0.365453 0.006492 -0.353175
O27   O     O_3   0.009872 0.062322 0.114253 -0.563759
C61   C     C_3   0.124425 0.094314 0.146186 -0.005969
H21   H     H_    0.151758 0.119008 0.252700 0.141481
H22   H     H_    0.119347 0.138848 0.072439 0.124566
C62   C     C_3   0.223641 0.041411 0.150056 -0.291702
H23   H     H_    0.245715 0.005424 0.243273 0.180230
H24   H     H_    0.194944 0.008186 0.052496 0.160705
C63   C     C_3   0.335360 0.081944 0.157494 -0.472265
H25   H     H_    0.312935 0.118653 0.065983 0.178960
H26   H     H_    0.405577 0.043835 0.156437 0.172497
H27   H     H_    0.369626 0.115166 0.254132 0.135212
O28   O     O_3   0.971167 0.913993 0.864772 -0.570825
C64   C     C_3   0.855479 0.887253 0.779819 0.030523
H28   H     H_    0.842456 0.896484 0.667638 0.163152
H29   H     H_    0.779306 0.915465 0.795105 0.146190
C65   C     C_3   0.848334 0.807034 0.802271 -0.267696
H30   H     H_    0.923764 0.779555 0.785339 0.175035
H31   H     H_    0.856224 0.796501 0.912834 0.174421
C66   C     C_3   0.729173 0.776568 0.699194 -0.476185
H32   H     H_    0.651951 0.805081 0.709590 0.165514
H33   H     H_    0.722857 0.719730 0.723382 0.127489
H34   H     H_    0.724123 0.780731 0.588325 0.159884
O29   O     O_3   0.990132 0.562324 0.885750 -0.563742
C67   C     C_3   0.875574 0.594308 0.853823 -0.005956
H35   H     H_    0.848240 0.619014 0.747319 0.141483
H36   H     H_    0.880644 0.638834 0.927588 0.124549
C68   C     C_3   0.776366 0.541395 0.849932 -0.291697
H37   H     H_    0.754304 0.505416 0.756706 0.180246
H38   H     H_    0.805065 0.508162 0.947481 0.160710
C69   C     C_3   0.664642 0.581916 0.842499 -0.472279
H39   H     H_    0.687060 0.618620 0.934016 0.178957
H40   H     H_    0.594429 0.543801 0.843547 0.172503
H41   H     H_    0.630379 0.615144 0.745870 0.135216
O30   O     O_3   0.028844 0.413992 0.135226 -0.570826
C70   C     C_3   0.144533 0.387253 0.220176 0.030529
H42   H     H_    0.157567 0.396493 0.332359 0.163162
H43   H     H_    0.220706 0.415460 0.204874 0.146186
C71   C     C_3   0.151671 0.307031 0.197743 -0.267694
H44   H     H_    0.076235 0.279558 0.214675 0.175036
H45   H     H_    0.143784 0.296489 0.087182 0.174409
C72   C     C_3   0.270827 0.276567 0.300834 -0.476189
H46   H     H_    0.348055 0.305057 0.290404 0.165517
H47   H     H_    0.277118 0.219721 0.276696 0.127479
H48   H     H_    0.275890 0.280762 0.411702 0.159894
O31   O     O_3   0.909313 0.033108 0.727858 -0.571525
C73   C     C_3   0.990653 0.045835 0.658864 0.024522
H49   H     H_    0.991752 0.996098 0.601786 0.142577
H50   H     H_    0.084508 0.054321 0.737658 0.127251
C74   C     C_3   0.951544 0.108996 0.550001 -0.273734
H51   H     H_    0.853468 0.117269 0.516132 0.231385
H52   H     H_    0.000559 0.157203 0.605278 0.173490
C75   C     C_3   0.975875 0.106163 0.413259 -0.481792
H53   H     H_    0.068180 0.124675 0.432028 0.130038
H54   H     H_    0.915990 0.144758 0.335717 0.178383
H55   H     H_    0.959173 0.053047 0.364231 0.216797
O32   O     O_3   0.937310 0.942884 0.199105 -0.591838
C76   C     C_3   0.965688 0.907116 0.331510 0.018196
H56   H     H_    0.934519 0.940052 0.399484 0.105941
H57   H     H_    0.063330 0.907519 0.396323 0.176843
C77   C     C_3   0.902467 0.833968 0.319554 -0.241795
H58   H     H_    0.803601 0.840457 0.281730 0.158576
H59   H     H_    0.916675 0.797983 0.241226 0.182559
C78   C     C_3   0.946483 0.796984 0.464078 -0.479845
H60   H     H_    0.042177 0.780571 0.496052 0.162878
H61   H     H_    0.890175 0.749284 0.458174 0.134360
H62   H     H_    0.939367 0.833202 0.546420 0.136631
O33   O     O_3   0.090700 0.533107 0.272144 -0.571528
C79   C     C_3   0.009361 0.545834 0.341140 0.024529
H63   H     H_    0.008257 0.496096 0.398215 0.142576
H64   H     H_    0.915507 0.554324 0.262345 0.127235
C80   C     C_3   0.048473 0.608993 0.450010 -0.273739
H65   H     H_    0.146549 0.617266 0.483874 0.231385
H66   H     H_    0.999458 0.657202 0.394742 0.173483
C81   C     C_3   0.024145 0.606154 0.586752 -0.481759
H67   H     H_    0.931840 0.624678 0.567986 0.130041
H68   H     H_    0.084049 0.644742 0.664309 0.178398
H69   H     H_    0.040829 0.553030 0.635764 0.216820
O34   O     O_3   0.062666 0.442894 0.800871 -0.591826
C82   C     C_3   0.034325 0.407103 0.668486 0.018204
H70   H     H_    0.065499 0.440030 0.600501 0.105924
H71   H     H_    0.936685 0.407495 0.603641 0.176827
C83   C     C_3   0.097577 0.333957 0.680502 -0.241780
H72   H     H_    0.196451 0.340453 0.718368 0.158606
H73   H     H_    0.083347 0.297979 0.758830 0.182533
C84   C     C_3   0.053606 0.296959 0.535984 -0.479829
H74   H     H_    0.957907 0.280538 0.503983 0.162854
H75   H     H_    0.109940 0.249263 0.541927 0.134390
H76   H     H_    0.060734 0.333170 0.453632 0.136602

loop_
_geom_bond_atom_site_label_1
_geom_bond_atom_site_label_2
_ccdc_geom_bond_type
C1    O5    A    
C22   O27   S    
C74   H51   S    
C31   O3    A    
C5    C37   A    
C12   C29   S    
C14   C57   S    
C31   O23   A    
C84   H74   S    
C44   H4    S    
C58   N2    T    
C67   C68   S    
C7    C55   A    
C16   C59   S    
C8    C56   A    
O31   C73   S    
C17   O32   S    
C66   H32   S    
Cr6   O23   S    
C76   H56   S    
C79   H63   S    
C10   H17   S    
C50   C54   A    
C37   C41   A    
C7    C39   A    
C5    C53   A    
Cr5   O21   S    
C67   H36   S    
C38   C42   A    
Cr2   O2    S    
C42   C46   A    
C18   O31   S    
Cr6   O26   S    
C68   H37   S    
C69   H41   S    
C15   C60   S    
Cr1   O4    S    
C29   O21   A    
C3    C18   S    
C66   H33   S    
C8    C36   A    
C70   C71   S    
C9    C13   D    
C61   H21   S    
C47   H7    S    
C80   C81   S    
C9    C32   S    
C11   C15   D    
C10   C31   S    
C25   O17   A    
C77   C78   S    
C27   O15   A    
C28   O20   A    
C12   C16   D    
C28   C35   S    
C40   H12   S    
C65   H30   S    
C62   C63   S    
C5    C33   A    
C45   H5    S    
C70   H42   S    
C6    C38   A    
C2    O6    A    
C83   H72   S    
Cr3   O12   S    
C57   N1    T    
C40   C44   A    
C71   H45   S    
Cr4   O26   S    
C25   C34   S    
Cr6   O19   S    
Cr4   O11   S    
C75   H54   S    
O34   C82   S    
C35   C56   A    
C1    O9    A    
C32   O24   A    
C21   C22   S    
O28   C64   S    
C70   H43   S    
C72   H46   S    
C84   H75   S    
Cr5   O17   S    
Cr3   O13   S    
C6    C54   A    
C64   C65   S    
C52   H16   S    
C69   H40   S    
C76   H57   S    
C11   H20   S    
C26   O14   A    
C38   H10   S    
Cr2   O26   S    
C62   H23   S    
Cr1   O8    S    
C69   H39   S    
C78   H61   S    
C20   C24   D    
C67   H35   S    
C11   C30   S    
C71   C72   S    
Cr4   O15   S    
C10   C14   D    
C68   C69   S    
C39   C43   A    
C75   H55   S    
C27   O19   A    
Cr6   O22   S    
Cr3   O25   S    
C6    C34   A    
C9    H18   S    
C72   H47   S    
C19   C23   D    
O33   C79   S    
C51   H15   S    
C81   H67   S    
C46   H6    S    
C50   H14   S    
C73   C74   S    
C26   C33   S    
C45   C49   A    
C43   H3    S    
C32   O4    A    
C83   C84   S    
Cr1   O1    S    
C71   H44   S    
C3    O11   A    
Cr3   O9    S    
C21   O28   S    
C2    O10   A    
Cr5   O24   S    
C78   H60   S    
C49   H13   S    
C66   H34   S    
C19   O34   S    
C63   H27   S    
Cr6   O18   S    
C4    C17   S    
Cr4   O14   S    
C65   H31   S    
C75   H53   S    
Cr1   O25   S    
C23   O30   S    
C25   O13   A    
C72   H48   S    
C37   H9    S    
C84   H76   S    
C4    O12   A    
C81   H69   S    
C41   H1    S    
C80   H66   S    
Cr2   O3    S    
C42   H2    S    
O32   C76   S    
C63   H26   S    
C59   N3    T    
C76   C77   S    
C28   O16   A    
C33   C54   A    
C68   H38   S    
C77   H58   S    
C1    C20   S    
C81   H68   S    
C2    C19   S    
C18   C22   D    
C7    C35   A    
C48   H8    S    
Cr2   O6    S    
C47   C51   A    
O29   C67   S    
C4    O8    A    
C29   O1    A    
C74   C75   S    
C27   C36   S    
C73   H49   S    
C46   C50   A    
C79   C80   S    
C3    O7    A    
C20   O33   S    
C78   H62   S    
Cr5   O20   S    
C64   H28   S    
C80   H65   S    
C13   C58   S    
C73   H50   S    
O27   C61   S    
C60   N4    T    
C52   C56   A    
C65   C66   S    
C49   C53   A    
C15   C16   S    
C77   H59   S    
C79   H64   S    
C12   H19   S    
C51   C55   A    
C39   H11   S    
C30   O2    A    
Cr5   O25   S    
Cr2   O7    S    
C61   H22   S    
C62   H24   S    
C23   C24   S    
C82   H70   S    
C82   C83   S    
Cr1   O5    S    
C48   C52   A    
C34   C53   A    
C74   H52   S    
C24   O29   S    
C30   O22   A    
C36   C55   A    
Cr3   O16   S    
C41   C45   A    
O30   C70   S    
C83   H73   S    
C8    C40   A    
C64   H29   S    
C13   C14   S    
Cr4   O10   S    
C43   C47   A    
C61   C62   S    
C44   C48   A    
C26   O18   A    
C63   H25   S    
C82   H71   S    
C17   C21   D    
