data_mof_unit_51374.cif
_audit_creation_date              2012-10-26T21:21:05-0400
_audit_creation_method            fapswitch 2.2
_symmetry_space_group_name_H-M    P1
_symmetry_Int_Tables_number       1
_space_group_crystal_system       triclinic
_cell_length_a                    10.800661
_cell_length_b                    10.941945
_cell_length_c                    9.732473
_cell_angle_alpha                 89.548969
_cell_angle_beta                  90.168018
_cell_angle_gamma                 90.336235
_cell_volume                      1150.1257488

loop_
_atom_site_label
_atom_site_type_symbol
_atom_type_description
_atom_site_fract_x
_atom_site_fract_y
_atom_site_fract_z
_atom_type_partial_charge
C1    C     C_R   0.508317 0.265802 0.500521 0.556811
C2    C     C_2   0.528604 0.133988 0.502431 0.220940
C3    C     C_2   0.565986 0.426773 0.922097 0.346497
C4    C     C_R   0.262654 0.494887 0.499923 0.664253
C5    C     C_2   0.545572 0.414354 0.076133 -0.029229
C6    C     C_R   0.492812 0.734090 0.499561 0.537483
C7    C     C_R   0.737204 0.499085 0.500096 0.527513
C8    C     C_R   0.122667 0.277954 0.608916 0.251201
C9    C     C_R   0.051432 0.181761 0.665115 -0.099068
C10   C     C_R   0.923432 0.187679 0.666759 -0.142578
C11   C     C_R   0.863948 0.289026 0.612287 -0.084715
C12   C     C_R   0.063017 0.384952 0.556503 0.013074
C13   C     C_R   0.931790 0.388797 0.557765 -0.025644
C14   C     C_1   0.500368 0.618353 0.102837 0.371145
C15   C     C_1   0.391929 0.910272 0.610280 0.287130
C16   C     C_R   0.128408 0.487119 0.499200 0.052973
C17   C     C_R   0.065213 0.586215 0.439569 0.200412
C18   C     C_R   0.936445 0.586513 0.439817 -0.133990
C19   C     C_R   0.870694 0.490821 0.500380 -0.020492
C20   C     C_2   0.505974 0.934453 0.393749 -0.118364
C21   C     C_2   0.467778 0.864016 0.499414 0.039413
C22   C     C_2   0.493421 0.067520 0.393628 -0.094581
Cu1   Cu    Cu3+1 0.500020 0.500020 0.638630 1.069671
Cu2   Cu    Cu3+1 0.499980 0.499980 0.361370 1.003557
H1    H     H_    0.418836 0.531821 0.889911 0.191489
H2    H     H_    0.609240 0.140038 0.682210 0.344780
H3    H     H_    0.698438 0.308780 0.930049 0.295507
H4    H     H_    0.274610 0.187268 0.643300 0.336846
H5    H     H_    0.574365 0.329775 0.125134 0.120064
H6    H     H_    0.095410 0.100417 0.705785 0.133285
H7    H     H_    0.869766 0.112251 0.708457 0.148857
H8    H     H_    0.764112 0.287444 0.611804 0.162291
H9    H     H_    0.886864 0.663135 0.395175 0.116616
H10   H     H_    0.550151 0.893984 0.305015 0.147015
H11   H     H_    0.456849 0.110726 0.301305 0.117346
H12   H     H_    0.073639 0.745070 0.347338 0.328653
N1    N     N_2   0.498640 0.498660 0.846910 -0.286491
N2    N     N_2   0.498610 0.498630 0.153040 -0.288929
N3    N     N_1   0.501892 0.717948 0.061740 -0.307512
N4    N     N_1   0.331376 0.946324 0.698920 -0.298966
O1    O     O_R   0.500020 0.321960 0.617040 -0.448672
O2    O     O_3   0.588537 0.078066 0.612106 -0.713761
O3    O     O_3   0.655016 0.357475 0.858618 -0.669805
O4    O     O_3   0.249204 0.265800 0.600664 -0.696084
O5    O     O_R   0.499980 0.321920 0.382900 -0.534876
O6    O     O_R   0.319670 0.500020 0.617100 -0.479231
O7    O     O_R   0.319630 0.499980 0.382950 -0.459179
O8    O     O_R   0.500020 0.678080 0.617100 -0.489741
O9    O     O_R   0.499980 0.678040 0.382960 -0.505460
O10   O     O_R   0.680370 0.500020 0.617050 -0.451665
O11   O     O_R   0.680330 0.499980 0.382900 -0.515459
O12   O     O_3   0.131828 0.683085 0.384224 -0.690333

loop_
_geom_bond_atom_site_label_1
_geom_bond_atom_site_label_2
_ccdc_geom_bond_type
C2    C22   D    
Cu2   N2    S    
Cu1   Cu2   S    
C4    C16   S    
C14   N2    S    
C9    C10   A    
C5    H5    S    
Cu1   O1    S    
C8    C12   A    
C3    O3    S    
Cu2   O7    S    
Cu2   O11   S    
C17   C18   A    
C7    O11   A    
Cu1   O6    S    
C4    O6    A    
C5    N2    D    
C20   C21   D    
C22   H11   S    
C11   C13   A    
C1    O5    A    
C6    O8    A    
C9    H6    S    
C2    O2    S    
Cu2   O5    S    
C17   O12   S    
C1    O1    A    
C20   C22   S    
C11   H8    S    
C1    C2    S    
C7    C19   S    
C6    O9    A    
C8    O4    S    
C18   H9    S    
C15   N4    T    
C10   C11   A    
C13   C19   A    
C20   H10   S    
H3    O3    S    
C15   C21   S    
C12   C13   A    
C3    N1    D    
C18   C19   A    
Cu2   O9    S    
H2    O2    S    
C16   C17   A    
Cu1   O10   S    
Cu1   O8    S    
H1    N1    S    
C14   N3    T    
Cu1   N1    S    
C6    C21   S    
C10   H7    S    
H4    O4    S    
C12   C16   A    
C7    O10   A    
C8    C9    A    
C3    C5    S    
C4    O7    A    
H12   O12   S    
