data_mof_unit_64279.cif
_audit_creation_date              2013-03-05T17:01:20-0500
_audit_creation_method            fapswitch 2.2
_symmetry_space_group_name_H-M    P1
_symmetry_Int_Tables_number       1
_space_group_crystal_system       triclinic
_cell_length_a                    14.164281
_cell_length_b                    16.089845
_cell_length_c                    16.698761
_cell_angle_alpha                 88.017339
_cell_angle_beta                  90.287819
_cell_angle_gamma                 92.170582
_cell_volume                      3800.63225485

loop_
_atom_site_label
_atom_site_type_symbol
_atom_site_description
_atom_site_fract_x
_atom_site_fract_y
_atom_site_fract_z
_atom_type_partial_charge
O1    O     O_R   0.496230 0.422540 0.612660 -0.563150
O2    O     O_R   0.503770 0.577460 0.387340 -0.563420
O3    O     O_R   0.503000 0.561840 0.618900 -0.605803
O4    O     O_R   0.497000 0.438160 0.381100 -0.605888
C1    C     C_R   0.495681 0.489103 0.653589 0.916052
C2    C     C_R   0.504301 0.510897 0.346411 0.915798
O5    O     O_R   0.622900 0.430330 0.496880 -0.609073
O6    O     O_R   0.377100 0.569670 0.503120 -0.609088
O7    O     O_R   0.629670 0.569640 0.503120 -0.550171
O8    O     O_R   0.370330 0.430360 0.496880 -0.549993
C3    C     C_R   0.671055 0.499821 0.500136 0.887812
C4    C     C_R   0.328945 0.500179 0.499862 0.887834
Zn1   Zn    Zn3+2 0.495480 0.406980 0.495830 1.001251
Zn2   Zn    Zn3+2 0.504520 0.593020 0.504170 1.001089
C5    C     C_1   0.772422 0.499577 0.500150 -0.166201
C6    C     C_1   0.227577 0.500423 0.499843 -0.166023
C7    C     C_1   0.857599 0.499644 0.500123 0.015112
C8    C     C_1   0.142400 0.500356 0.499868 0.015136
C9    C     C_1   0.957407 0.499880 0.500038 0.033275
C10   C     C_1   0.042593 0.500119 0.499950 0.033269
C11   C     C_R   0.479592 0.483686 0.740203 -0.203795
C12   C     C_R   0.520213 0.516314 0.259778 -0.204431
C13   C     C_R   0.467059 0.558066 0.779841 -0.378568
C14   C     C_R   0.532339 0.441921 0.220061 -0.378316
C15   C     C_R   0.452821 0.557711 0.862087 0.313990
C16   C     C_R   0.546364 0.442301 0.137789 0.314230
C17   C     C_R   0.455150 0.481273 0.905627 0.176559
C18   C     C_R   0.544178 0.518784 0.094298 0.176039
C19   C     C_R   0.460301 0.406609 0.866289 -0.305306
C20   C     C_R   0.539433 0.593442 0.133707 -0.304353
C21   C     C_R   0.469874 0.406619 0.782903 0.467810
C22   C     C_R   0.530114 0.593378 0.217102 0.467341
N1    N     N_2   0.464481 0.478770 0.989189 -0.097915
N2    N     N_2   0.534767 0.521365 0.010739 -0.098137
H1    H     H_    0.531874 0.382939 0.253211 0.222862
H2    H     H_    0.467390 0.617020 0.746647 0.222880
H3    H     H_    0.462064 0.348720 0.901235 0.201975
H4    H     H_    0.537861 0.651398 0.098844 0.202227
N3    N     N_R   0.510540 0.716920 0.509720 -0.140357
N4    N     N_R   0.489460 0.283080 0.490280 -0.140151
C23   C     C_R   0.446885 0.760182 0.465139 -0.163495
C24   C     C_R   0.553304 0.239821 0.534657 -0.163545
C25   C     C_R   0.452061 0.847917 0.458973 0.193095
C26   C     C_R   0.548222 0.152081 0.540748 0.192713
C27   C     C_R   0.523737 0.891557 0.502111 0.184813
C28   C     C_R   0.476400 0.108430 0.497780 0.185057
C29   C     C_R   0.587968 0.845076 0.547396 -0.410168
C30   C     C_R   0.411981 0.154910 0.452700 -0.410135
C31   C     C_R   0.579357 0.757276 0.552468 0.571908
C32   C     C_R   0.420525 0.242714 0.447671 0.572149
N5    N     N_2   0.537339 0.980412 0.498667 -0.068473
N6    N     N_2   0.462826 0.019570 0.501204 -0.068868
H5    H     H_    0.605568 0.274079 0.569152 0.214969
H6    H     H_    0.394732 0.725923 0.430531 0.215073
H7    H     H_    0.645321 0.877391 0.577877 0.208986
H8    H     H_    0.354540 0.122591 0.422335 0.208784
N7    N     N_R   0.560993 0.365331 0.098852 0.220995
O9    O     O_R   0.611431 0.364587 0.033963 -0.356541
O10   O     O_R   0.531305 0.294739 0.131905 -0.387259
N8    N     N_R   0.437889 0.634668 0.900955 0.221079
O11   O     O_R   0.387505 0.635322 0.965880 -0.356095
O12   O     O_R   0.467298 0.705313 0.867836 -0.387145
O13   O     O_3   0.477295 0.332560 0.743653 -0.576256
C33   C     C_3   0.395047 0.281343 0.756939 0.102891
H9    H     H_    0.329356 0.317535 0.752977 0.131283
H10   H     H_    0.398749 0.248780 0.816639 0.164748
C34   C     C_3   0.388405 0.215795 0.693574 -0.720956
H11   H     H_    0.452667 0.178356 0.695459 0.282210
H12   H     H_    0.325581 0.173719 0.704911 0.214572
H13   H     H_    0.381277 0.246253 0.633291 0.244718
O14   O     O_3   0.523272 0.667471 0.256361 -0.575931
C35   C     C_3   0.606540 0.717552 0.243985 0.103001
H14   H     H_    0.604738 0.749590 0.183960 0.163707
H15   H     H_    0.671473 0.680499 0.249411 0.131163
C36   C     C_3   0.612840 0.783684 0.306809 -0.720616
H16   H     H_    0.618550 0.753700 0.367408 0.244517
H17   H     H_    0.676347 0.825047 0.295951 0.214282
H18   H     H_    0.549107 0.821760 0.303743 0.282463
N9    N     N_R   0.610692 0.110001 0.595265 0.223696
O15   O     O_R   0.577980 0.050646 0.643544 -0.371637
O16   O     O_R   0.696233 0.139910 0.606307 -0.359543
N10   N     N_R   0.389848 0.890002 0.404237 0.223885
O17   O     O_R   0.422767 0.949409 0.356115 -0.371168
O18   O     O_R   0.304373 0.860085 0.392879 -0.359517
O19   O     O_3   0.645023 0.710663 0.593838 -0.585449
C37   C     C_3   0.645608 0.729974 0.675737 0.102596
H19   H     H_    0.572598 0.732125 0.700066 0.160362
H20   H     H_    0.683664 0.790640 0.684775 0.162293
C38   C     C_3   0.697393 0.663227 0.723210 -0.734502
H21   H     H_    0.771836 0.662008 0.702839 0.253716
H22   H     H_    0.696584 0.676653 0.787985 0.228689
H23   H     H_    0.662570 0.601215 0.714533 0.251443
O20   O     O_3   0.354712 0.289311 0.406466 -0.585538
C39   C     C_3   0.353912 0.270053 0.324553 0.102582
H24   H     H_    0.315781 0.209415 0.315548 0.162348
H25   H     H_    0.426854 0.267869 0.300087 0.160315
C40   C     C_3   0.302075 0.336866 0.277215 -0.734564
H26   H     H_    0.336969 0.398850 0.285884 0.251423
H27   H     H_    0.302725 0.323489 0.212426 0.228791
H28   H     H_    0.227683 0.338112 0.297710 0.253685

loop_
_geom_bond_atom_site_label_1
_geom_bond_atom_site_label_2
_geom_bond_distance
_ccdc_geom_bond_type
O20   C39   1.412816 S    
C17   C19   1.393469 A    
C9    C10   1.206466 T    
C30   H8    1.082373 S    
O7    Zn2   1.826315 S    
C40   H26   1.109867 S    
C29   C31   1.412979 A    
O19   C37   1.412823 S    
C17   N1    1.400303 S    
O5    C3    1.290115 A    
C11   C21   1.411323 A    
C12   C22   1.411267 A    
O1    C1    1.290551 A    
C14   C16   1.388893 A    
C24   H5    1.081860 S    
C37   H20   1.111602 S    
N7    O10   1.301659 A    
C27   N5    1.434545 S    
C2    C12   1.464342 S    
C28   N6    1.434597 S    
C20   H4    1.082974 S    
N8    O12   1.301667 A    
O4    Zn1   1.963598 S    
Zn1   N4    1.997464 S    
Zn2   N3    1.997461 S    
C3    C5    1.435943 S    
C4    C6    1.435943 S    
C15   N8    1.440854 S    
C38   H22   1.110527 S    
N4    C24   1.362576 A    
C18   N2    1.400352 S    
C23   C25   1.410988 A    
O2    C2    1.290546 A    
C24   C26   1.411008 A    
C35   C36   1.519815 S    
C40   H27   1.110518 S    
C26   C28   1.420010 A    
C22   O14   1.387034 S    
C27   C29   1.401562 A    
C28   C30   1.401565 A    
C14   H1    1.081819 S    
C34   H11   1.110102 S    
C33   C34   1.519690 S    
C31   O19   1.383972 S    
N9    O15   1.301408 A    
C35   H15   1.116476 S    
N9    O16   1.301285 A    
C37   H19   1.115152 S    
C39   C40   1.521442 S    
C36   H18   1.110009 S    
C37   C38   1.521436 S    
N5    N6    1.251144 D    
N8    O11   1.301528 A    
C34   H12   1.110495 S    
C33   H10   1.111980 S    
C36   H16   1.109791 S    
C21   O13   1.387351 S    
C25   C27   1.419959 A    
O6    C4    1.290115 A    
N1    N2    1.245828 D    
C38   H23   1.109873 S    
C39   H25   1.115156 S    
C30   C32   1.412968 A    
C36   H17   1.110348 S    
O3    Zn2   1.963598 S    
O8    C4    1.289240 A    
O4    C2    1.288573 A    
N3    C31   1.363243 A    
N10   O17   1.301403 A    
N10   O18   1.301276 A    
O7    C3    1.289241 A    
C12   C14   1.404902 A    
O1    Zn1   1.975410 S    
C40   H28   1.110652 S    
C29   H7    1.082363 S    
C5    C7    1.206435 T    
O6    Zn2   1.829641 S    
C26   N9    1.436916 S    
C35   H14   1.111788 S    
O3    C1    1.288589 A    
O8    Zn1   1.826314 S    
C32   O20   1.383959 S    
C15   C17   1.408291 A    
C16   C18   1.408398 A    
C34   H13   1.110083 S    
C33   H9    1.116690 S    
C11   C13   1.404983 A    
O14   C35   1.414925 S    
C19   C21   1.399694 A    
C20   C22   1.399459 A    
N7    O9    1.301524 A    
N4    C32   1.363244 A    
C18   C20   1.393484 A    
C7    C9    1.413570 S    
C8    C10   1.413570 S    
C13   C15   1.388916 A    
C39   H24   1.111600 S    
O2    Zn2   1.975410 S    
C16   N7    1.440812 S    
C23   H6    1.081858 S    
O13   C33   1.415183 S    
O5    Zn1   1.829641 S    
C1    C11   1.464424 S    
N3    C23   1.362575 A    
C6    C8    1.206434 T    
C13   H2    1.081833 S    
C19   H3    1.082918 S    
C25   N10   1.436923 S    
C38   H21   1.110668 S    
