data_mof_unit_29495.cif
_audit_creation_date              2012-10-26T18:55:00-0400
_audit_creation_method            fapswitch 2.2
_symmetry_space_group_name_H-M    P1
_symmetry_Int_Tables_number       1
_space_group_crystal_system       triclinic
_cell_length_a                    10.777842
_cell_length_b                    9.615183
_cell_length_c                    10.877815
_cell_angle_alpha                 90.326193
_cell_angle_beta                  91.3921
_cell_angle_gamma                 89.567239
_cell_volume                      1126.89603233

loop_
_atom_site_label
_atom_site_type_symbol
_atom_type_description
_atom_site_fract_x
_atom_site_fract_y
_atom_site_fract_z
_atom_type_partial_charge
C1    C     C_R   0.262763 0.500387 0.498371 0.524865
C2    C     C_R   0.518509 0.624798 0.938899 -0.080954
C3    C     C_R   0.510919 0.497518 0.129964 -0.094293
C4    C     C_R   0.516204 0.500164 0.871282 -0.048457
C5    C     C_R   0.530428 0.372766 0.064406 0.376185
C6    C     C_R   0.531610 0.373797 0.936135 0.362550
C7    C     C_3   0.442384 0.756519 0.930828 0.347637
C8    C     C_3   0.427451 0.747581 0.070336 0.399805
C9    C     C_R   0.061953 0.470216 0.387074 -0.001022
C10   C     C_R   0.931606 0.467923 0.387942 -0.011007
C11   C     C_R   0.870731 0.497607 0.498882 0.049756
C12   C     C_R   0.736946 0.499357 0.498999 0.520728
C13   C     C_R   0.128311 0.501145 0.497224 0.046767
C14   C     C_R   0.937039 0.527246 0.609471 0.003795
C15   C     C_R   0.067421 0.530381 0.607939 -0.030813
C16   C     C_3   0.515768 0.882362 0.888857 -0.198370
C17   C     C_3   0.294476 0.717672 0.109611 -0.253229
C18   C     C_3   0.128147 0.441894 0.267522 -0.395296
C19   C     C_3   0.859407 0.435638 0.269282 -0.362660
C20   C     C_3   0.870125 0.553795 0.729051 -0.359084
C21   C     C_3   0.144543 0.566483 0.722056 -0.336621
C22   C     C_3   0.304941 0.139976 0.363388 -0.265460
C23   C     C_R   0.409370 0.072301 0.436355 0.133320
C24   C     C_3   0.697870 0.138912 0.632530 -0.264931
C25   C     C_R   0.591478 0.071790 0.562524 0.106406
C26   C     C_R   0.409233 0.924549 0.439397 0.501804
C27   C     C_R   0.591723 0.923871 0.559404 0.432744
C28   C     C_R   0.500743 0.499361 0.262677 0.525763
C29   C     C_R   0.503094 0.500329 0.737644 0.566763
C30   C     C_R   0.509930 0.621892 0.065096 -0.053879
Cu1   Cu    Cu3+1 0.500000 0.640660 0.500000 1.128303
Cu2   Cu    Cu3+1 0.500000 0.359340 0.500000 0.977108
F1    F     F_    0.542035 0.248616 0.122695 -0.565567
F2    F     F_    0.541880 0.249870 0.876774 -0.623697
F3    F     F_    0.333012 0.740194 0.863681 -0.687438
F4    F     F_    0.482211 0.855215 0.136851 -0.592343
F5    F     F_    0.316736 0.853390 0.381539 -0.634536
F6    F     F_    0.683807 0.851839 0.618502 -0.648294
H1    H     H_    0.463777 0.979314 0.910093 0.220836
H2    H     H_    0.757693 0.433864 0.279115 0.165015
H3    H     H_    0.878660 0.515503 0.199156 0.129539
H4    H     H_    0.886856 0.331619 0.234020 0.151991
H5    H     H_    0.768103 0.543640 0.721661 0.147106
H6    H     H_    0.901877 0.477140 0.799227 0.113917
H7    H     H_    0.889486 0.660983 0.762432 0.171133
H8    H     H_    0.211358 0.480965 0.743375 0.148796
H9    H     H_    0.195984 0.662957 0.703172 0.232027
H10   H     H_    0.091069 0.585805 0.805955 0.138406
H11   H     H_    0.335388 0.231406 0.312906 0.185609
H12   H     H_    0.609008 0.886508 0.934641 0.154953
H13   H     H_    0.267060 0.069472 0.290782 0.171382
H14   H     H_    0.227420 0.166272 0.424814 0.130441
H15   H     H_    0.671147 0.235606 0.679121 0.206376
H16   H     H_    0.733845 0.070956 0.707697 0.164313
H17   H     H_    0.775361 0.157618 0.569483 0.139010
H18   H     H_    0.527057 0.876189 0.788511 0.167492
H19   H     H_    0.235354 0.811252 0.094014 0.174734
H20   H     H_    0.254321 0.628885 0.056667 0.096256
H21   H     H_    0.293308 0.691169 0.208330 0.188900
H22   H     H_    0.108820 0.334274 0.235460 0.130844
H23   H     H_    0.095406 0.516413 0.196143 0.129974
H24   H     H_    0.230065 0.453137 0.274752 0.121102
N1    N     N_R   0.500000 0.852070 0.500000 -0.211539
N2    N     N_R   0.500000 0.147940 0.500000 -0.266061
O1    O     O_R   0.319640 0.618740 0.499990 -0.443442
O2    O     O_R   0.680360 0.618740 0.500010 -0.428385
O3    O     O_R   0.319620 0.381170 0.499990 -0.538380
O4    O     O_R   0.680380 0.381170 0.500010 -0.542779
O5    O     O_R   0.499990 0.618810 0.319660 -0.448538
O6    O     O_R   0.500010 0.618810 0.680340 -0.465253
O7    O     O_R   0.499960 0.381240 0.319650 -0.463784
O8    O     O_R   0.500040 0.381240 0.680350 -0.468337

loop_
_geom_bond_atom_site_label_1
_geom_bond_atom_site_label_2
_ccdc_geom_bond_type
C8    C17   S    
C3    C30   A    
C2    C4    A    
C11   C12   S    
C16   H18   S    
C26   F5    S    
C14   C20   S    
C25   C27   A    
C9    C10   A    
C10   C19   S    
C1    O1    A    
C4    C29   S    
C19   H4    S    
Cu1   O5    S    
C17   H20   S    
Cu2   O4    S    
C21   H10   S    
C8    C30   S    
C29   O8    A    
C19   H3    S    
C7    C8    S    
Cu2   O8    S    
Cu1   Cu2   S    
C18   H22   S    
C24   H17   S    
C12   O4    A    
C7    F3    S    
C6    F2    S    
C27   N1    A    
C18   H23   S    
C17   H21   S    
Cu2   O3    S    
C4    C6    A    
C23   N2    A    
C1    O3    A    
C16   H12   S    
C29   O6    A    
Cu2   O7    S    
C13   C15   A    
C8    F4    S    
C5    C6    A    
C11   C14   A    
C21   H9    S    
C23   C26   A    
C28   O7    A    
C1    C13   S    
C19   H2    S    
C27   F6    S    
C24   H16   S    
Cu1   N1    S    
C9    C18   S    
C15   C21   S    
C20   H5    S    
C2    C30   A    
C24   C25   S    
Cu2   N2    S    
C22   H14   S    
C21   H8    S    
C10   C11   A    
C20   H7    S    
C22   H11   S    
Cu1   O1    S    
C9    C13   A    
C14   C15   A    
C3    C28   S    
C26   N1    A    
C16   H1    S    
C2    C7    S    
C20   H6    S    
C24   H15   S    
C22   C23   S    
Cu1   O2    S    
C12   O2    A    
Cu1   O6    S    
C7    C16   S    
C18   H24   S    
C28   O5    A    
C17   H19   S    
C22   H13   S    
C3    C5    A    
C25   N2    A    
C5    F1    S    
