data_mof_unit_29661.cif
_audit_creation_date              2012-12-10T17:05:40-0500
_audit_creation_method            fapswitch 2.2
_symmetry_space_group_name_H-M    P1
_symmetry_Int_Tables_number       1
_space_group_crystal_system       triclinic
_cell_length_a                    15.88668
_cell_length_b                    11.052873
_cell_length_c                    9.846947
_cell_angle_alpha                 111.48607
_cell_angle_beta                  98.18836
_cell_angle_gamma                 90.953342
_cell_volume                      1588.04876679

loop_
_atom_site_label
_atom_site_type_symbol
_atom_type_description
_atom_site_fract_x
_atom_site_fract_y
_atom_site_fract_z
_atom_type_partial_charge
C1    C     C_R   0.494244 0.253791 0.439869 0.807929
C2    C     C_3   0.963703 0.484804 0.651260 0.876425
C3    C     C_3   0.916777 0.495312 0.501633 -0.142115
C4    C     C_3   0.952155 0.626591 0.493651 0.281443
C5    C     C_3   0.047983 0.618448 0.473717 0.263598
C6    C     C_1   0.824338 0.497071 0.498147 0.047606
C7    C     C_1   0.175405 0.498258 0.501992 0.155377
C8    C     C_1   0.250977 0.499599 0.503008 -0.110907
C9    C     C_2   0.491963 0.113532 0.403170 0.111864
C10   C     C_2   0.502651 0.067818 0.512516 -0.220715
C11   C     C_2   0.509997 0.885653 0.593453 -0.360692
C12   C     C_R   0.340349 0.500117 0.501176 0.823120
C13   C     C_2   0.500982 0.928935 0.482915 -0.105225
C14   C     C_2   0.506009 0.512999 0.082837 -0.035224
C15   C     C_2   0.495528 0.485752 0.918622 0.106568
C16   C     C_R   0.506366 0.746037 0.559783 0.849098
C17   C     C_R   0.659606 0.500037 0.498890 0.799154
C18   C     C_3   0.062283 0.501608 0.651166 -0.459237
C19   C     C_3   0.037440 0.369220 0.370872 0.349921
C20   C     C_3   0.938577 0.371922 0.369740 0.165030
C21   C     C_1   0.748816 0.498584 0.496842 -0.197854
C22   C     C_3   0.082692 0.495863 0.498597 -0.100251
Cu1   Cu    Cu3+1 0.514650 0.521810 0.644910 0.990088
Cu2   Cu    Cu3+1 0.485350 0.478190 0.355090 0.993038
H1    H     H_    0.089925 0.596633 0.736615 0.228541
H2    H     H_    0.917818 0.641692 0.395595 0.011051
H3    H     H_    0.491803 0.860306 0.369349 0.230415
H4    H     H_    0.512542 0.134489 0.627485 0.159820
H5    H     H_    0.519629 0.952855 0.708096 0.176124
H6    H     H_    0.454628 0.401290 0.843654 0.087416
H7    H     H_    0.552264 0.589975 0.158317 0.195401
H8    H     H_    0.095672 0.426384 0.683834 0.214008
H9    H     H_    0.420516 0.371577 0.063712 0.211302
H10   H     H_    0.920696 0.288664 0.399350 0.208344
H11   H     H_    0.052366 0.605159 0.357013 0.061727
N1    N     N_2   0.463320 0.445430 0.137380 -0.298090
N2    N     N_2   0.536720 0.554500 0.862620 0.011348
O1    O     O_R   0.507820 0.332330 0.577400 -0.626369
O2    O     O_R   0.483070 0.295500 0.332660 -0.526839
O3    O     O_R   0.391820 0.518430 0.622420 -0.573097
O4    O     O_R   0.367070 0.481600 0.377680 -0.549007
O5    O     O_R   0.516930 0.704500 0.667340 -0.545656
O6    O     O_R   0.492180 0.667670 0.422600 -0.584311
O7    O     O_R   0.632930 0.518400 0.622320 -0.603855
O8    O     O_R   0.608180 0.481570 0.377580 -0.571794
O9    O     O_3   0.947297 0.358967 0.657273 -0.608619
C23   C     C_3   0.863629 0.333750 0.679334 -0.293258
H12   H     H_    0.833174 0.421409 0.744444 0.183340
H13   H     H_    0.866635 0.267364 0.741081 0.195769
H14   H     H_    0.822636 0.281847 0.571127 0.164481
O10   O     O_3   0.939210 0.585961 0.775669 -0.545631
C24   C     C_3   0.980034 0.586461 0.913761 -0.273262
H15   H     H_    0.033152 0.663792 0.959690 0.189394
H16   H     H_    0.004977 0.492031 0.909941 0.204822
H17   H     H_    0.933347 0.610980 0.991781 0.155949
Br1   Br    Br    0.474128 0.001555 0.196211 -0.461700
O11   O     O_3   0.571191 0.671671 0.961141 -0.485774
C25   C     C_3   0.654122 0.689544 0.934235 -0.067589
H18   H     H_    0.652839 0.727570 0.844400 0.179708
H19   H     H_    0.688791 0.599046 0.910460 0.116837
H20   H     H_    0.690749 0.764365 0.035423 0.129551
Br2   Br    Br    0.070439 0.348576 0.179074 -0.466377
Br3   Br    Br    0.077275 0.212962 0.403106 -0.457697
O12   O     O_3   0.887914 0.334195 0.226538 -0.522416
C26   C     C_3   0.872644 0.434281 0.171742 -0.220796
H21   H     H_    0.931269 0.494163 0.181511 0.141503
H22   H     H_    0.821840 0.494057 0.222572 0.141653
H23   H     H_    0.847945 0.388170 0.051727 0.181535
O13   O     O_3   0.097373 0.732650 0.575356 -0.523296
C27   C     C_3   0.109085 0.823217 0.508017 -0.169139
H24   H     H_    0.047286 0.845188 0.456418 0.149582
H25   H     H_    0.152158 0.786585 0.424335 0.147979
H26   H     H_    0.139727 0.915641 0.594038 0.210329
O14   O     O_3   0.944159 0.733769 0.625709 -0.469578
C28   C     C_3   0.883112 0.817390 0.599571 -0.193905
H27   H     H_    0.819275 0.764462 0.551748 0.124802
H28   H     H_    0.903556 0.864259 0.525975 0.139781
H29   H     H_    0.877390 0.895763 0.706573 0.197507

loop_
_geom_bond_atom_site_label_1
_geom_bond_atom_site_label_2
_ccdc_geom_bond_type
C12   O3    A    
C2    C18   S    
C19   C20   S    
C14   H7    S    
C3    C6    S    
Cu2   O2    S    
C7    C8    T    
C23   H13   S    
C2    O9    S    
Cu2   N1    S    
Cu1   O5    S    
Cu2   O8    S    
C17   O8    A    
C14   N1    D    
C19   Br2   S    
C25   H19   S    
Cu1   O3    S    
H9    N1    S    
C15   N2    D    
C5    O13   S    
C5    C22   S    
C19   Br3   S    
C26   H22   S    
Cu1   Cu2   S    
C27   H24   S    
C9    C10   D    
C4    O14   S    
C24   H17   S    
C20   H10   S    
C25   H20   S    
Cu2   O4    S    
C18   H1    S    
C24   H16   S    
C23   H14   S    
O14   C28   S    
O10   C24   S    
C19   C22   S    
C1    C9    S    
C25   H18   S    
Cu1   N2    S    
C6    C21   T    
C17   C21   S    
Cu1   O7    S    
C20   O12   S    
C28   H27   S    
C12   O4    A    
C11   C16   S    
C23   H12   S    
C8    C12   S    
C26   H23   S    
C27   H26   S    
C3    C20   S    
C9    Br1   S    
C28   H28   S    
C16   O6    A    
C1    O1    A    
C18   H8    S    
C3    C4    S    
Cu1   O1    S    
C16   O5    A    
C24   H15   S    
C15   H6    S    
C10   H4    S    
O9    C23   S    
C18   C22   S    
C4    C5    S    
C10   C13   S    
C4    H2    S    
C7    C22   S    
O12   C26   S    
C2    C3    S    
C17   O7    A    
C11   C13   D    
O11   C25   S    
C5    H11   S    
O13   C27   S    
C28   H29   S    
C2    O10   S    
C1    O2    A    
C11   H5    S    
C26   H21   S    
Cu2   O6    S    
C14   C15   S    
C13   H3    S    
C27   H25   S    
N2    O11   S    
