data_mof_unit_41391.cif
_audit_creation_date              2012-12-10T17:18:15-0500
_audit_creation_method            fapswitch 2.2
_symmetry_space_group_name_H-M    P1
_symmetry_Int_Tables_number       1
_space_group_crystal_system       triclinic
_cell_length_a                    10.124593
_cell_length_b                    10.969421
_cell_length_c                    14.97927
_cell_angle_alpha                 88.498668
_cell_angle_beta                  82.506775
_cell_angle_gamma                 96.08603
_cell_volume                      1638.75615686

loop_
_atom_site_label
_atom_site_type_symbol
_atom_type_description
_atom_site_fract_x
_atom_site_fract_y
_atom_site_fract_z
_atom_type_partial_charge
C1    C     C_R   0.556483 0.732043 0.487105 0.955358
C2    C     C_2   0.068899 0.477124 0.503982 0.179137
C3    C     C_R   0.502256 0.501260 0.672622 0.936536
C4    C     C_R   0.498035 0.497950 0.327461 0.887910
C5    C     C_R   0.518565 0.390613 0.186086 -0.059014
C6    C     C_R   0.491464 0.612447 0.813459 -0.131956
C7    C     C_R   0.499346 0.499147 0.231292 -0.225072
C8    C     C_R   0.509171 0.503760 0.768032 -0.206025
C9    C     C_R   0.504576 0.612118 0.184617 -0.057947
C10   C     C_R   0.539870 0.398176 0.811948 -0.089457
C11   C     C_R   0.518981 0.616257 0.090511 0.041008
C12   C     C_R   0.443222 0.268017 0.511293 0.892577
C13   C     C_R   0.553340 0.400407 0.903602 0.026855
C14   C     C_R   0.536732 0.507653 0.043913 0.060174
C15   C     C_R   0.538486 0.509721 0.949887 0.092547
C16   C     C_R   0.548478 0.396216 0.091401 -0.007858
C17   C     C_R   0.518569 0.619383 0.903201 -0.038022
C18   C     C_R   0.517978 0.727277 0.042059 -0.158080
C19   C     C_R   0.582157 0.295594 0.949826 -0.201123
C20   C     C_2   0.492085 0.271239 0.237976 0.889988
C21   C     C_2   0.427393 0.710567 0.770723 0.944332
C22   C     C_2   0.492543 0.725081 0.235036 0.879901
C23   C     C_R   0.523345 0.731096 0.948959 -0.167398
C24   C     C_2   0.537632 0.281371 0.764660 0.922664
C25   C     C_2   0.545844 0.854492 0.902214 1.018811
C26   C     C_2   0.646915 0.190895 0.081229 0.961813
C27   C     C_2   0.616771 0.087497 0.572133 0.967292
C28   C     C_2   0.373793 0.906667 0.426569 1.023108
C29   C     C_3   0.199499 0.046463 0.603396 -0.673733
C30   C     C_3   0.821070 0.883854 0.516108 -0.621746
C31   C     C_3   0.137877 0.370626 0.366976 -0.659087
C32   C     C_3   0.878559 0.517834 0.677330 -0.691258
C33   C     C_R   0.586827 0.294201 0.041985 -0.044582
C34   C     C_2   0.590397 0.864537 0.474933 -0.052993
C35   C     C_2   0.407008 0.136175 0.517788 -0.066533
C36   C     C_2   0.490189 0.938099 0.476859 -0.173699
C37   C     C_2   0.504912 0.060199 0.517102 -0.127065
C38   C     C_2   0.923521 0.497128 0.516042 0.158469
H1    H     H_    0.514880 0.812983 0.076120 0.216218
H2    H     H_    0.778768 0.137433 0.160248 0.361304
H3    H     H_    0.799218 0.175766 0.582855 0.343172
H4    H     H_    0.281555 0.950420 0.320405 0.386175
H5    H     H_    0.216199 0.145761 0.481772 0.253048
H6    H     H_    0.097482 0.004166 0.595252 0.233698
H7    H     H_    0.190443 0.123910 0.649362 0.256084
H8    H     H_    0.253068 0.975705 0.633517 0.256464
H9    H     H_    0.749772 0.997559 0.420394 0.261221
H10   H     H_    0.872710 0.969214 0.539191 0.225171
H11   H     H_    0.897851 0.831584 0.479730 0.233932
H12   H     H_    0.605351 0.214311 0.914314 0.223894
H13   H     H_    0.769296 0.829426 0.576673 0.263062
H14   H     H_    0.046528 0.289686 0.489851 0.205099
H15   H     H_    0.232482 0.329486 0.348120 0.254455
H16   H     H_    0.148213 0.465770 0.337355 0.256018
H17   H     H_    0.058155 0.314422 0.337188 0.214244
H18   H     H_    0.908192 0.659706 0.580298 0.201624
H19   H     H_    0.821162 0.570888 0.728066 0.236560
H20   H     H_    0.983819 0.523305 0.691655 0.220622
H21   H     H_    0.833828 0.420566 0.684154 0.272933
H22   H     H_    0.127807 0.630467 0.564595 0.177439
H23   H     H_    0.880025 0.398190 0.410747 0.187129
H24   H     H_    0.551073 0.157498 0.329290 0.359852
H25   H     H_    0.432705 0.831310 0.666781 0.358474
H26   H     H_    0.584028 0.886482 0.269401 0.360983
H27   H     H_    0.423059 0.143875 0.715373 0.357716
H28   H     H_    0.702316 0.811517 0.814988 0.301880
N1    N     N_2   0.842700 0.448880 0.462930 -0.176659
N2    N     N_2   0.157300 0.551120 0.537070 -0.178990
N3    N     N_2   0.269917 0.090436 0.516440 -0.294056
N4    N     N_2   0.728126 0.914000 0.455293 -0.302935
N5    N     N_2   0.107467 0.367469 0.464386 -0.277324
N6    N     N_2   0.871944 0.568294 0.587871 -0.254802
O1    O     O_R   0.431060 0.692470 0.507460 -0.581862
O2    O     O_R   0.574064 0.243814 0.302211 -0.753501
O3    O     O_2   0.321609 0.741157 0.807574 -0.589519
O4    O     O_R   0.487561 0.767517 0.688965 -0.785618
O5    O     O_2   0.384677 0.741205 0.277015 -0.597158
O6    O     O_R   0.604032 0.812406 0.233219 -0.787045
O7    O     O_2   0.640417 0.232417 0.747906 -0.596802
O8    O     O_R   0.416278 0.227616 0.741096 -0.799676
O9    O     O_2   0.477403 0.934692 0.929069 -0.504320
O10   O     O_R   0.646646 0.881811 0.829128 -0.708790
O11   O     O_2   0.614464 0.085504 0.061411 -0.569939
O12   O     O_R   0.568940 0.307530 0.492540 -0.551085
O13   O     O_R   0.744860 0.214956 0.138085 -0.772404
O14   O     O_2   0.613150 0.030427 0.643722 -0.551831
O15   O     O_R   0.730651 0.167447 0.539116 -0.788919
O16   O     O_2   0.275913 0.838293 0.460624 -0.594051
O17   O     O_R   0.369506 0.970402 0.345195 -0.784370
O18   O     O_R   0.651120 0.659650 0.483670 -0.596894
O19   O     O_R   0.348880 0.340350 0.516330 -0.598408
O20   O     O_R   0.389960 0.516440 0.644050 -0.593226
O21   O     O_R   0.610040 0.483560 0.355950 -0.565457
O22   O     O_R   0.610030 0.483620 0.620260 -0.594833
O23   O     O_R   0.389970 0.516380 0.379740 -0.595004
O24   O     O_2   0.400600 0.196145 0.222472 -0.588959
Zn1   Zn    Zn3+2 0.353060 0.521920 0.515880 1.030022
Zn2   Zn    Zn3+2 0.646940 0.478080 0.484120 1.040108

loop_
_geom_bond_atom_site_label_1
_geom_bond_atom_site_label_2
_ccdc_geom_bond_type
C30   H13   S    
C11   C18   A    
C1    O18   A    
C12   O19   A    
C32   H20   S    
C32   N6    S    
C5    C20   S    
O1    Zn1   S    
C21   O4    S    
C17   C23   A    
C26   O11   D    
C30   H10   S    
C36   C37   S    
C35   C37   D    
C2    N2    D    
C11   C14   A    
C9    C22   S    
H25   O4    S    
O22   Zn2   S    
C1    C34   S    
C12   O12   A    
C15   C17   A    
H23   N1    S    
N2    Zn1   S    
C5    C16   A    
C26   C33   S    
N1    Zn2   S    
C24   O8    S    
H18   N6    S    
C28   O16   D    
C28   O17   S    
C34   N4    S    
C31   N5    S    
C20   O24   D    
H5    N3    S    
H27   O8    S    
C25   O9    D    
C32   H19   S    
C4    C7    S    
C30   N4    S    
O20   Zn1   S    
C29   N3    S    
H3    O15   S    
C38   N6    S    
C13   C19   A    
C18   C23   A    
C22   O6    S    
C3    C8    S    
C19   C33   A    
C5    C7    A    
C6    C8    A    
C10   C24   S    
C6    C21   S    
O19   Zn1   S    
C29   H7    S    
C3    O20   A    
H2    O13   S    
C27   O14   D    
C18   H1    S    
H9    N4    S    
C16   C33   A    
H28   O10   S    
C4    O23   A    
C2    C38   S    
C24   O7    D    
C20   O2    S    
C31   H15   S    
C12   C35   S    
C27   O15   S    
C9    C11   A    
C28   C36   S    
C30   H11   S    
C13   C15   A    
C29   H6    S    
C25   O10   S    
C14   C16   A    
C2    N5    S    
C7    C9    A    
C6    C17   A    
H26   O6    S    
C22   O5    D    
C10   C13   A    
O23   Zn1   S    
C21   O3    D    
C29   H8    S    
H4    O17   S    
C1    O1    A    
O12   Zn2   S    
H14   N5    S    
C19   H12   S    
C27   C37   S    
C26   O13   S    
C3    O22   A    
C34   C36   D    
C23   C25   S    
C31   H16   S    
H22   N2    S    
C4    O21   A    
C38   N1    D    
C35   N3    S    
C8    C10   A    
C14   C15   A    
H24   O2    S    
C32   H21   S    
C31   H17   S    
O21   Zn2   S    
O18   Zn2   S    
