data_mof_unit_43328.cif
_audit_creation_date              2012-12-10T18:19:07-0500
_audit_creation_method            fapswitch 2.2
_symmetry_space_group_name_H-M    P1
_symmetry_Int_Tables_number       1
_space_group_crystal_system       triclinic
_cell_length_a                    15.013864
_cell_length_b                    14.011002
_cell_length_c                    11.544224
_cell_angle_alpha                 89.99006
_cell_angle_beta                  90.153979
_cell_angle_gamma                 89.997613
_cell_volume                      2428.42582367

loop_
_atom_site_label
_atom_site_type_symbol
_atom_type_description
_atom_site_fract_x
_atom_site_fract_y
_atom_site_fract_z
_atom_type_partial_charge
C1    C     C_R   0.326455 0.499990 0.500297 0.903171
C2    C     C_R   0.673545 0.499985 0.499690 0.904206
C3    C     C_R   0.907338 0.587487 0.497601 0.108438
C4    C     C_R   0.092677 0.412312 0.502359 0.103283
C5    C     C_R   0.953741 0.325642 0.503196 -0.170097
C6    C     C_R   0.046253 0.674147 0.496590 -0.180180
C7    C     C_R   0.046289 0.325651 0.503901 -0.169058
C8    C     C_R   0.953722 0.674141 0.496048 -0.174008
C9    C     C_R   0.542043 0.797859 0.413561 0.056404
C10   C     C_R   0.454638 0.202186 0.583551 0.059866
C11   C     C_R   0.457906 0.797834 0.586393 0.054925
C12   C     C_R   0.545332 0.202207 0.416427 0.057066
C13   C     C_R   0.458374 0.898868 0.591103 -0.126067
C14   C     C_R   0.548257 0.101149 0.414560 -0.121877
C15   C     C_R   0.541416 0.898887 0.408719 -0.118039
C16   C     C_R   0.451552 0.101134 0.585275 -0.115529
C17   C     C_R   0.499878 0.949513 0.499896 -0.013269
C18   C     C_R   0.499882 0.050522 0.499899 -0.017517
C19   C     C_R   0.417155 0.949945 0.682753 0.302730
C20   C     C_R   0.596300 0.050019 0.328701 0.314100
C21   C     C_R   0.582556 0.949989 0.317017 0.257991
C22   C     C_R   0.403435 0.049982 0.671058 0.277556
C23   C     C_R   0.500066 0.500015 0.281720 0.913935
C24   C     C_R   0.499932 0.500002 0.718280 0.914851
C25   C     C_1   0.500076 0.500068 0.161375 -0.126483
C26   C     C_1   0.499919 0.500034 0.838625 -0.125055
C27   C     C_1   0.500036 0.500110 0.059272 0.066285
C28   C     C_1   0.499958 0.500093 0.940729 0.066908
C29   C     C_R   0.815218 0.586852 0.497343 -0.217202
C30   C     C_R   0.184810 0.412987 0.502702 -0.203848
C31   C     C_R   0.769429 0.499929 0.499193 -0.085927
C32   C     C_R   0.230572 0.499947 0.500743 -0.084455
C33   C     C_R   0.815205 0.412963 0.500774 -0.203971
C34   C     C_R   0.184770 0.586871 0.498989 -0.221693
C35   C     C_R   0.907338 0.412297 0.501134 0.102671
C36   C     C_R   0.092650 0.587499 0.498655 0.110431
C37   C     C_R   0.953667 0.499891 0.499642 0.063761
C38   C     C_R   0.046335 0.499898 0.500226 0.064033
H1    H     H_    0.779366 0.654057 0.495843 0.176648
H2    H     H_    0.220687 0.345799 0.504316 0.192988
H3    H     H_    0.779340 0.345769 0.502029 0.193038
H4    H     H_    0.220610 0.654078 0.497628 0.172851
H5    H     H_    0.918502 0.258134 0.504332 0.179425
H6    H     H_    0.081481 0.741658 0.495373 0.162886
H7    H     H_    0.081538 0.258149 0.505578 0.177487
H8    H     H_    0.918485 0.741647 0.494464 0.168922
H9    H     H_    0.577551 0.755993 0.350283 0.195051
H10   H     H_    0.422936 0.244210 0.649969 0.199937
H11   H     H_    0.422541 0.755936 0.649793 0.195431
H12   H     H_    0.577203 0.244262 0.350157 0.201717
N1    N     N_R   0.500000 0.750030 0.500000 -0.143789
N2    N     N_R   0.500000 0.249970 0.500000 -0.146409
O1    O     O_R   0.367850 0.580280 0.500030 -0.628756
O2    O     O_R   0.632150 0.419720 0.499970 -0.619174
O3    O     O_R   0.632150 0.580280 0.499970 -0.626167
O4    O     O_R   0.367850 0.419720 0.500030 -0.619998
O5    O     O_R   0.500010 0.580270 0.334450 -0.605788
O6    O     O_R   0.499990 0.419730 0.665550 -0.618372
O7    O     O_R   0.499990 0.580270 0.665550 -0.603377
O8    O     O_R   0.500010 0.419730 0.334450 -0.618531
Zn1   Zn    Zn3+2 0.500000 0.607200 0.500000 0.988689
Zn2   Zn    Zn3+2 0.500000 0.392800 0.500000 0.986524
S1    S     S_3+6 0.394568 0.890637 0.816607 0.072866
O9    O     O_2   0.307435 0.838397 0.806811 -0.298131
O10   O     O_2   0.467380 0.819913 0.842163 -0.273211
O11   O     O_3   0.390119 0.967855 0.927933 -0.448996
H13   H     H_    0.378288 0.927917 0.997017 0.393502
S2    S     S_3+6 0.680890 0.109357 0.247252 0.053627
O12   O     O_2   0.638272 0.161962 0.148057 -0.282394
O13   O     O_2   0.728872 0.179747 0.323432 -0.336841
O14   O     O_3   0.756911 0.032139 0.195972 -0.441649
H14   H     H_    0.796274 0.070936 0.145867 0.394742
S3    S     S_3+6 0.605002 0.890778 0.183051 0.093038
O15   O     O_2   0.692825 0.839847 0.192119 -0.220208
O16   O     O_2   0.533457 0.818542 0.157706 -0.307063
O17   O     O_3   0.608427 0.967488 0.071117 -0.409724
H15   H     H_    0.547371 0.993931 0.065708 0.378476
S4    S     S_3+6 0.318683 0.109219 0.752362 0.076147
O18   O     O_2   0.360921 0.160464 0.852788 -0.210723
O19   O     O_2   0.271448 0.181170 0.677496 -0.353091
O20   O     O_3   0.241832 0.032466 0.802557 -0.426741
H16   H     H_    0.212070 0.006983 0.732390 0.356804

loop_
_geom_bond_atom_site_label_1
_geom_bond_atom_site_label_2
_ccdc_geom_bond_type
O6    Zn2   S    
S1    O10   D    
S3    O15   D    
C14   C18   A    
C34   H4    S    
C10   N2    A    
O20   H16   S    
C7    H7    S    
C35   C37   A    
C1    O4    A    
C24   C26   S    
C2    O3    A    
C24   O7    A    
S4    O19   D    
C21   S3    S    
O8    Zn2   S    
C3    C29   A    
C1    O1    A    
O1    Zn1   S    
C19   S1    S    
S2    O12   D    
C9    N1    A    
C31   C33   A    
O11   H13   S    
C5    H5    S    
S1    O11   S    
C6    H6    S    
S3    O16   D    
C4    C7    A    
C12   N2    A    
C23   O8    A    
O7    Zn1   S    
C13   C19   A    
C14   C20   A    
C19   C22   A    
O17   H15   S    
C22   S4    S    
C3    C8    A    
C2    O2    A    
C5    C7    A    
S4    O18   D    
C6    C8    A    
O2    Zn2   S    
C1    C32   S    
C2    C31   S    
C32   C34   A    
C37   C38   A    
C11   H11   S    
C29   H1    S    
C17   C18   A    
C30   H2    S    
C16   C18   A    
C12   C14   A    
C9    H9    S    
C10   H10   S    
S3    O17   S    
O4    Zn2   S    
C23   O5    A    
C16   C22   A    
C20   S2    S    
C4    C38   A    
C12   H12   S    
O5    Zn1   S    
C25   C27   T    
C5    C35   A    
C26   C28   T    
C13   C17   A    
C33   H3    S    
C36   C38   A    
C9    C15   A    
O14   H14   S    
C29   C31   A    
N2    Zn2   S    
C30   C32   A    
N1    Zn1   S    
C11   C13   A    
S4    O20   S    
S2    O14   S    
O3    Zn1   S    
C33   C35   A    
C6    C36   A    
C34   C36   A    
C23   C25   S    
C8    H8    S    
C11   N1    A    
S1    O9    D    
C15   C21   A    
C20   C21   A    
C3    C37   A    
C24   O6    A    
C27   C28   S    
S2    O13   D    
C10   C16   A    
C15   C17   A    
C4    C30   A    
