data_mof_unit_34345.cif
_audit_creation_date              2012-12-10T18:18:22-0500
_audit_creation_method            fapswitch 2.2
_symmetry_space_group_name_H-M    P1
_symmetry_Int_Tables_number       1
_space_group_crystal_system       triclinic
_cell_length_a                    14.157276
_cell_length_b                    14.875945
_cell_length_c                    15.443919
_cell_angle_alpha                 89.246383
_cell_angle_beta                  68.241306
_cell_angle_gamma                 92.335145
_cell_volume                      3016.89318866

loop_
_atom_site_label
_atom_site_type_symbol
_atom_type_description
_atom_site_fract_x
_atom_site_fract_y
_atom_site_fract_z
_atom_type_partial_charge
C1    C     C_R   0.502607 0.672879 0.498158 0.920800
C2    C     C_R   0.497746 0.327218 0.501588 0.933135
C3    C     C_R   0.373788 0.426576 0.107184 -0.070857
C4    C     C_R   0.616946 0.431055 0.900376 -0.019224
C5    C     C_R   0.302378 0.435218 0.065576 -0.176764
C6    C     C_R   0.684299 0.414439 0.945054 -0.190700
C7    C     C_R   0.468789 0.182725 0.587550 -0.074915
C8    C     C_R   0.526950 0.816519 0.409893 -0.054248
C9    C     C_R   0.494858 0.231606 0.503323 -0.134835
C10   C     C_R   0.510642 0.768713 0.493326 -0.137049
C11   C     C_R   0.530433 0.191347 0.417970 -0.171526
C12   C     C_R   0.505850 0.811029 0.573735 -0.184894
C13   C     C_R   0.538502 0.098728 0.413067 0.055294
C14   C     C_R   0.508495 0.904230 0.576546 0.055623
C15   C     C_R   0.518507 0.048020 0.496897 0.065813
C16   C     C_R   0.524483 0.954578 0.493457 0.063287
C17   C     C_R   0.490939 0.090894 0.584348 0.011622
C18   C     C_R   0.544162 0.910954 0.407352 -0.004791
C19   C     C_R   0.572449 0.057118 0.325770 -0.096545
C20   C     C_R   0.495850 0.947384 0.660682 -0.094144
C21   C     C_R   0.579480 0.963087 0.322572 -0.103491
C22   C     C_R   0.489050 0.041347 0.664484 -0.090249
C23   C     C_R   0.436371 0.502389 0.676259 0.944324
C24   C     C_R   0.563296 0.497614 0.324274 0.967873
C25   C     C_R   0.180065 0.432053 0.546910 0.003834
C26   C     C_R   0.820748 0.566938 0.451785 0.027918
C27   C     C_R   0.224511 0.564725 0.451216 -0.006934
C28   C     C_R   0.779518 0.428046 0.536788 -0.043303
C29   C     C_R   0.125998 0.564819 0.447021 -0.045102
C30   C     C_R   0.879404 0.425091 0.537739 -0.057267
C31   C     C_R   0.051926 0.496365 0.495852 0.119171
C32   C     C_R   0.952327 0.495386 0.492323 0.107840
C33   C     C_R   0.077565 0.429344 0.548473 -0.114783
C34   C     C_R   0.925653 0.564004 0.442277 -0.101323
C35   C     C_R   0.102144 0.629373 0.391314 -0.074909
C36   C     C_R   0.905248 0.356413 0.587968 -0.082145
C37   C     C_R   0.004520 0.626767 0.385446 -0.096539
C38   C     C_R   0.000596 0.361752 0.598745 -0.211710
C39   C     C_R   0.396059 0.497358 0.778710 -0.068630
C40   C     C_R   0.600699 0.480362 0.224859 -0.050564
C41   C     C_R   0.259240 0.462672 0.927397 -0.021211
C42   C     C_R   0.727000 0.422794 0.085459 -0.009709
C43   C     C_R   0.292546 0.480815 0.831170 -0.177219
C44   C     C_R   0.697200 0.447492 0.178630 -0.200590
C45   C     C_R   0.464850 0.500292 0.823622 -0.160783
C46   C     C_R   0.532216 0.484024 0.179777 -0.167915
C47   C     C_R   0.437765 0.465965 0.914767 0.097961
C48   C     C_R   0.554906 0.448680 0.091816 0.106648
C49   C     C_R   0.332233 0.454205 0.969866 0.058747
C50   C     C_R   0.656474 0.427774 0.040167 0.055177
C51   C     C_R   0.512100 0.446667 0.953684 -0.011749
C52   C     C_R   0.479612 0.440114 0.052095 -0.000229
H1    H     H_    0.222747 0.426264 0.109376 0.221817
H2    H     H_    0.760893 0.397180 0.902958 0.216886
H3    H     H_    0.283269 0.614861 0.413473 0.164671
H4    H     H_    0.722113 0.375702 0.570560 0.219121
H5    H     H_    0.459636 0.513686 0.214383 0.152367
H6    H     H_    0.539620 0.530278 0.785822 0.160632
H7    H     H_    0.749324 0.441170 0.214815 0.192070
H8    H     H_    0.237765 0.480953 0.797357 0.206505
H9    H     H_    0.551388 0.233991 0.355626 0.158088
H10   H     H_    0.494147 0.769667 0.635531 0.148499
N1    N     N_R   0.249980 0.499930 0.499960 -0.147141
N2    N     N_R   0.750020 0.500070 0.500040 -0.158619
O1    O     O_R   0.419720 0.632140 0.499980 -0.621280
O2    O     O_R   0.580280 0.367860 0.500020 -0.599551
O3    O     O_R   0.580270 0.632160 0.499970 -0.603435
O4    O     O_R   0.419730 0.367840 0.500030 -0.605120
O5    O     O_R   0.373870 0.499980 0.632250 -0.592438
O6    O     O_R   0.626130 0.500020 0.367750 -0.587411
O7    O     O_R   0.534420 0.500000 0.632240 -0.598211
O8    O     O_R   0.465580 0.500000 0.367760 -0.624667
Zn1   Zn    Zn3+2 0.392800 0.499980 0.500010 1.015505
Zn2   Zn    Zn3+2 0.607200 0.500020 0.499990 1.031307
C53   C     C_2   0.216748 0.357135 0.586710 0.965185
O9    O     O_2   0.232490 0.366436 0.658734 -0.600256
O10   O     O_R   0.231114 0.274553 0.542510 -0.751400
H11   H     H_    0.254792 0.227401 0.576874 0.369429
C54   C     C_2   0.784492 0.645213 0.416273 0.964676
O11   O     O_2   0.761631 0.638760 0.347609 -0.539581
O12   O     O_R   0.779059 0.727511 0.460125 -0.760494
H12   H     H_    0.753851 0.776638 0.429184 0.367690
C55   C     C_2   0.180855 0.698247 0.335254 0.937853
O13   O     O_2   0.210975 0.757318 0.374435 -0.546579
O14   O     O_R   0.219323 0.695601 0.237937 -0.772308
H13   H     H_    0.271847 0.746254 0.207513 0.364502
C56   C     C_2   0.831390 0.279498 0.632471 0.988795
O15   O     O_2   0.799033 0.231647 0.584800 -0.556264
O16   O     O_R   0.800845 0.260961 0.728240 -0.770188
H14   H     H_    0.753649 0.205269 0.749542 0.380519
C57   C     C_2   0.990988 0.685163 0.312696 0.961072
O17   O     O_2   0.976889 0.651086 0.246595 -0.549117
O18   O     O_R   0.997419 0.778758 0.318569 -0.731427
H15   H     H_    0.987482 0.811141 0.264630 0.376279
C58   C     C_2   0.013750 0.299344 0.669044 1.017959
O19   O     O_2   0.019268 0.218774 0.655013 -0.490667
O20   O     O_R   0.016961 0.331452 0.752548 -0.727349
H16   H     H_    0.010202 0.398956 0.757121 0.323729
C59   C     C_2   0.148403 0.449779 0.980043 0.906822
O21   O     O_2   0.091329 0.506441 0.972902 -0.559933
O22   O     O_R   0.109039 0.372339 0.036204 -0.766241
H17   H     H_    0.033069 0.373548 0.072068 0.386206
C60   C     C_2   0.829471 0.387781 0.040160 0.921358
O23   O     O_2   0.854791 0.325090 0.077377 -0.598844
O24   O     O_R   0.897617 0.426921 0.956451 -0.753239
H18   H     H_    0.963779 0.394877 0.931758 0.385818
C61   C     C_2   0.334441 0.390551 0.205203 0.933960
O25   O     O_2   0.382339 0.335944 0.230057 -0.557540
O26   O     O_R   0.240780 0.416996 0.268277 -0.794564
H19   H     H_    0.221824 0.387451 0.332403 0.361015
C62   C     C_2   0.663863 0.433049 0.798365 0.898019
O27   O     O_2   0.632112 0.382452 0.752466 -0.593621
O28   O     O_R   0.743721 0.496572 0.755497 -0.779041
H20   H     H_    0.757539 0.507427 0.687344 0.340067
C63   C     C_2   0.408555 0.225721 0.676334 0.915741
O29   O     O_2   0.439245 0.296798 0.697677 -0.582673
O30   O     O_R   0.316626 0.183920 0.735619 -0.743578
H21   H     H_    0.282407 0.219347 0.793699 0.384531
C64   C     C_2   0.513807 0.768411 0.330904 0.910753
O31   O     O_2   0.562403 0.702307 0.299754 -0.612444
O32   O     O_R   0.445666 0.799390 0.292310 -0.742788
H22   H     H_    0.443291 0.761359 0.239096 0.351913
C65   C     C_2   0.603683 0.111810 0.237454 0.953140
O33   O     O_2   0.539859 0.150993 0.217502 -0.547435
O34   O     O_R   0.705854 0.117703 0.177357 -0.740381
H23   H     H_    0.717616 0.156734 0.119636 0.377675
C66   C     C_2   0.493574 0.894625 0.743835 0.932024
O35   O     O_2   0.571147 0.861446 0.743913 -0.577987
O36   O     O_R   0.402343 0.881723 0.820747 -0.717746
H24   H     H_    0.410268 0.844183 0.872683 0.363657
C67   C     C_2   0.633979 0.921318 0.231462 0.980082
O37   O     O_2   0.609612 0.936075 0.164639 -0.550671
O38   O     O_R   0.713318 0.864783 0.222835 -0.756263
H25   H     H_    0.744250 0.839825 0.158095 0.378000
C68   C     C_2   0.495530 0.087933 0.747073 0.948755
O39   O     O_2   0.434942 0.067555 0.825557 -0.528166
O40   O     O_R   0.570748 0.156177 0.734211 -0.754037
H26   H     H_    0.565981 0.184442 0.794984 0.367783

loop_
_geom_bond_atom_site_label_1
_geom_bond_atom_site_label_2
_ccdc_geom_bond_type
C56   O15   D    
O18   H15   S    
C27   C29   A    
C34   C37   A    
C61   O26   S    
C23   O5    A    
C58   O19   D    
C42   C60   S    
O12   H12   S    
C28   H4    S    
C24   O6    A    
C68   O39   D    
C47   C49   A    
O14   H13   S    
C40   C46   A    
C19   C65   S    
O22   H17   S    
C5    H1    S    
C35   C37   A    
O36   H24   S    
C2    O4    A    
C27   H3    S    
C65   O34   S    
C44   H7    S    
C15   C16   A    
C18   C21   A    
O1    Zn1   S    
C7    C9    A    
C25   N1    A    
C7    C63   S    
C26   N2    A    
C21   C67   S    
C1    O3    A    
C26   C34   A    
C55   O13   D    
C63   O30   S    
C38   C58   S    
O6    Zn2   S    
C1    O1    A    
C61   O25   D    
C41   C59   S    
O5    Zn1   S    
C39   C45   A    
C48   C50   A    
C2    O2    A    
C41   C43   A    
C5    C49   A    
C42   C44   A    
C6    H2    S    
C41   C49   A    
O20   H16   S    
C45   C47   A    
C36   C56   S    
C46   C48   A    
C45   H6    S    
C37   C57   S    
C4    C51   A    
C51   C52   A    
C23   O7    A    
C65   O33   D    
C20   C66   S    
C4    C6    A    
C57   O17   D    
C54   O12   S    
C13   C19   A    
C39   C43   A    
N1    Zn1   S    
C67   O38   S    
O4    Zn1   S    
O10   H11   S    
C8    C18   A    
C25   C53   S    
C32   C34   A    
C53   O9    D    
C66   O36   S    
C11   H9    S    
C14   C20   A    
C57   O18   S    
C12   H10   S    
C59   O21   D    
C40   C44   A    
C3    C52   A    
C31   C33   A    
C62   O28   S    
O3    Zn2   S    
C6    C50   A    
C53   O10   S    
O32   H22   S    
C64   O32   S    
C10   C12   A    
C43   H8    S    
C42   C50   A    
C28   N2    A    
C16   C18   A    
C55   O14   S    
C4    C62   S    
C12   C14   A    
C9    C11   A    
C46   H5    S    
O38   H25   S    
C60   O24   S    
C14   C16   A    
C67   O37   D    
C24   O8    A    
O28   H20   S    
O24   H18   S    
C68   O40   S    
C35   C55   S    
C62   O27   D    
C59   O22   S    
C31   C32   A    
C1    C10   S    
C26   C54   S    
C20   C22   A    
O8    Zn1   S    
C3    C5    A    
C7    C17   A    
O7    Zn2   S    
C47   C51   A    
C64   O31   D    
C58   O20   S    
C15   C17   A    
O40   H26   S    
C29   C35   A    
C17   C22   A    
C30   C36   A    
C22   C68   S    
C3    C61   S    
C13   C15   A    
C28   C30   A    
C29   C31   A    
O26   H19   S    
C30   C32   A    
C11   C13   A    
C63   O29   D    
O34   H23   S    
C23   C39   S    
C36   C38   A    
C24   C40   S    
C54   O11   D    
C48   C52   A    
C8    C10   A    
C60   O23   D    
C56   O16   S    
N2    Zn2   S    
C27   N1    A    
C33   C38   A    
O16   H14   S    
O30   H21   S    
C2    C9    S    
C66   O35   D    
C8    C64   S    
C25   C33   A    
C19   C21   A    
O2    Zn2   S    
