data_mof_unit_31603.cif
_audit_creation_date              2012-12-11T17:23:08-0500
_audit_creation_method            fapswitch 2.2
_symmetry_space_group_name_H-M    P1
_symmetry_Int_Tables_number       1
_space_group_crystal_system       triclinic
_cell_length_a                    22.54668
_cell_length_b                    7.089388
_cell_length_c                    19.302421
_cell_angle_alpha                 90.024204
_cell_angle_beta                  99.574861
_cell_angle_gamma                 90.016809
_cell_volume                      3042.35870649

loop_
_atom_site_label
_atom_site_type_symbol
_atom_type_description
_atom_site_fract_x
_atom_site_fract_y
_atom_site_fract_z
_atom_type_partial_charge
O1    O     O_R   0.443980 0.494320 0.557430 -0.532182
O2    O     O_R   0.556020 0.994320 0.442570 -0.532116
O3    O     O_R   0.441210 0.822520 0.414610 -0.528289
O4    O     O_R   0.558790 0.322520 0.585390 -0.528594
C1    C     C_R   0.426347 0.654903 0.388911 0.746703
C2    C     C_R   0.573645 0.155034 0.611095 0.746848
O5    O     O_R   0.436920 0.823940 0.555180 -0.530753
O6    O     O_R   0.563080 0.323940 0.444820 -0.530809
O7    O     O_R   0.551700 0.995760 0.584140 -0.539041
O8    O     O_R   0.448300 0.495760 0.415860 -0.539219
C3    C     C_R   0.421885 0.655262 0.575146 0.723819
C4    C     C_R   0.578113 0.155251 0.424850 0.724226
O9    O     O_3   0.537660 0.661290 0.509340 -0.369204
O10   O     O_3   0.462340 0.161290 0.490660 -0.369062
V1    V     V_3+5 0.493010 0.935560 0.498270 1.533155
V2    V     V_3+5 0.506990 0.435560 0.501730 1.532749
C5    C     C_R   0.747167 0.950979 0.201016 0.348021
C6    C     C_R   0.252869 0.451260 0.799026 0.347949
C7    C     C_R   0.790567 0.094979 0.201409 -0.137049
C8    C     C_R   0.209477 0.595195 0.798653 -0.137114
C9    C     C_R   0.789027 0.250705 0.246568 0.415318
C10   C     C_R   0.211040 0.750900 0.753532 0.415550
C11   C     C_R   0.745802 0.261067 0.290973 -0.168456
C12   C     C_R   0.254257 0.761226 0.709115 -0.168643
H1    H     H_    0.745476 0.382159 0.325218 0.208099
H2    H     H_    0.254599 0.882286 0.674896 0.208057
C13   C     C_R   0.703363 0.117313 0.291816 -0.099690
C14   C     C_R   0.296668 0.617483 0.708227 -0.099725
C15   C     C_R   0.703990 0.961358 0.246491 0.373032
C16   C     C_R   0.296034 0.461604 0.753537 0.373078
C17   C     C_1   0.836650 0.082461 0.156242 0.204049
C18   C     C_1   0.163378 0.582601 0.843797 0.204114
C19   C     C_1   0.659466 0.132713 0.339288 0.150684
C20   C     C_1   0.340550 0.632821 0.660735 0.150416
C21   C     C_1   0.622722 0.144748 0.378646 -0.105050
C22   C     C_1   0.377284 0.644801 0.621361 -0.105451
C23   C     C_1   0.875234 0.072308 0.119053 -0.088610
C24   C     C_1   0.124782 0.572352 0.880969 -0.088493
C25   C     C_R   0.631949 0.102369 0.804223 0.178097
C26   C     C_R   0.368153 0.595332 0.196032 0.177940
H3    H     H_    0.545910 0.096760 0.737491 0.161298
H4    H     H_    0.454097 0.590175 0.262941 0.161062
H5    H     H_    0.716149 0.109502 0.921676 0.174046
H6    H     H_    0.284115 0.598791 0.078423 0.174279
C27   C     C_R   0.616860 0.143458 0.677724 -0.118635
C28   C     C_R   0.383190 0.642700 0.322241 -0.118379
C29   C     C_R   0.909235 0.037141 0.758907 0.085583
C30   C     C_R   0.090544 0.542707 0.241206 0.085114
C31   C     C_R   0.870744 0.017146 0.694423 0.424785
C32   C     C_R   0.128896 0.524458 0.305858 0.424831
C33   C     C_R   0.808878 0.038991 0.690418 -0.198330
C34   C     C_R   0.190849 0.543892 0.309840 -0.198333
C35   C     C_R   0.783389 0.092176 0.749217 0.040239
C36   C     C_R   0.216587 0.592942 0.250782 0.040101
C37   C     C_R   0.821789 0.093809 0.816047 0.032878
C38   C     C_R   0.178279 0.592285 0.183895 0.032803
C39   C     C_R   0.719832 0.121546 0.744511 0.049862
C40   C     C_R   0.280225 0.620534 0.255429 0.049989
C41   C     C_R   0.694976 0.110682 0.807600 0.039540
C42   C     C_R   0.305141 0.605484 0.192484 0.039627
C43   C     C_R   0.733526 0.108894 0.872780 -0.122053
C44   C     C_R   0.266667 0.601383 0.127267 -0.121836
C45   C     C_R   0.795692 0.108350 0.876897 -0.143031
C46   C     C_R   0.204496 0.602651 0.123030 -0.142758
C47   C     C_R   0.679705 0.160817 0.680201 0.065256
C48   C     C_R   0.320377 0.661986 0.319538 0.065382
C49   C     C_R   0.594058 0.109726 0.739436 -0.206814
C50   C     C_R   0.405982 0.604868 0.260814 -0.206180
C51   C     C_R   0.885137 0.070135 0.820593 -0.207659
C52   C     C_R   0.114851 0.570976 0.179383 -0.207736
H7    H     H_    0.780845 0.002491 0.641424 0.192598
H8    H     H_    0.218711 0.508949 0.359100 0.192635
H9    H     H_    0.823086 0.109184 0.928603 0.102922
H10   H     H_    0.177163 0.601640 0.071287 0.102677
O11   O     O_R   0.051730 0.724670 0.084120 -0.532987
O12   O     O_R   0.948270 0.224670 0.915880 -0.532996
O13   O     O_R   0.063080 0.393540 0.944820 -0.528752
O14   O     O_R   0.936920 0.893540 0.055180 -0.528603
C53   C     C_R   0.078401 0.562267 0.925097 0.698985
C54   C     C_R   0.921602 0.062267 0.074908 0.698897
O15   O     O_R   0.058800 0.395030 0.085390 -0.535799
O16   O     O_R   0.941200 0.895030 0.914610 -0.535776
O17   O     O_R   0.943980 0.223310 0.057440 -0.529649
O18   O     O_R   0.056020 0.723310 0.942560 -0.529432
C55   C     C_R   0.073459 0.563803 0.111012 0.730029
C56   C     C_R   0.926547 0.063663 0.888971 0.730023
O19   O     O_3   0.962360 0.556290 0.990650 -0.370847
O20   O     O_3   0.037640 0.056290 0.009350 -0.370809
V3    V     V_3+5 0.006980 0.281990 0.001730 1.533121
V4    V     V_3+5 0.993020 0.781990 0.998270 1.533519
Cl1   Cl    Cl    0.650823 0.778362 0.246728 -0.534169
Cl2   Cl    Cl    0.349183 0.278664 0.753267 -0.534330
Cl3   Cl    Cl    0.898268 0.957587 0.617087 -0.451400
Cl4   Cl    Cl    0.101052 0.470457 0.383487 -0.451123
Cl5   Cl    Cl    0.746185 0.758326 0.142762 -0.490546
Cl6   Cl    Cl    0.253870 0.258763 0.857292 -0.490629
Cl7   Cl    Cl    0.840518 0.437364 0.248906 -0.493194
Cl8   Cl    Cl    0.159609 0.937617 0.751274 -0.493270
I1    I     I_    0.589216 0.069662 0.893854 -0.199978
I2    I     I_    0.410929 0.556246 0.106746 -0.200203
I3    I     I_    0.708200 0.299288 0.592167 -0.337527
I4    I     I_    0.292104 0.805754 0.406651 -0.338209
I5    I     I_    0.003834 0.006800 0.763550 -0.112562
I6    I     I_    0.995799 0.517384 0.236587 -0.111902

loop_
_geom_bond_atom_site_label_1
_geom_bond_atom_site_label_2
_ccdc_geom_bond_type
C26   C42   A    
C2    C27   S    
C13   C15   A    
C5    C15   A    
C48   I4    S    
C35   C37   A    
O1    C3    A    
C47   I3    S    
C7    C17   S    
C2    O7    A    
C29   C31   A    
O14   V4    S    
O5    C3    A    
O13   V3    S    
C33   H7    S    
C10   Cl8   S    
C3    C22   S    
C7    C9    A    
C12   H2    S    
C28   C48   A    
C8    C18   S    
C53   O18   A    
O14   C54   A    
C39   C41   A    
C24   C53   S    
C40   C42   A    
C30   I6    S    
C6    Cl6   S    
C42   C44   A    
C43   C45   A    
C29   C51   A    
C44   C46   A    
O11   V4    S    
C5    C7    A    
C40   C48   A    
C14   C16   A    
C31   C33   A    
C37   C45   A    
C27   C49   A    
C32   C34   A    
C38   C46   A    
C6    C16   A    
C18   C24   T    
C20   C22   T    
O12   V3    S    
O15   V3    S    
C30   C32   A    
O2    C4    A    
O6    V2    S    
H4    C50   S    
O18   V4    S    
C54   O17   A    
C34   C36   A    
O13   C53   A    
O17   V3    S    
C23   C54   S    
C36   C38   A    
C41   C43   A    
C29   I5    S    
H3    C49   S    
O4    C2    A    
C30   C52   A    
C35   C39   A    
C32   Cl4   S    
C45   H9    S    
H6    C44   S    
O16   C56   A    
C13   C19   S    
C17   C23   T    
C33   C35   A    
O4    V2    S    
C28   C50   A    
C34   H8    S    
C9    Cl7   S    
C25   I1    S    
O6    C4    A    
C25   C41   A    
O1    V2    S    
C4    C21   S    
O2    V1    S    
C37   C51   A    
C5    Cl5   S    
C16   Cl2   S    
O20   V4    S    
C11   C13   A    
C9    C11   A    
C27   C47   A    
C10   C12   A    
O9    V2    S    
C8    C10   A    
O12   C56   A    
C15   Cl1   S    
O3    V1    S    
H5    C43   S    
O11   C55   A    
C36   C40   A    
C25   C49   A    
C12   C14   A    
C39   C47   A    
O3    C1    A    
C26   I2    S    
C1    C28   S    
C38   C52   A    
O16   V4    S    
O19   V3    S    
O7    V1    S    
C1    O8    A    
O8    V2    S    
O5    V1    S    
C19   C21   T    
C6    C8    A    
C11   H1    S    
C14   C20   S    
O20   V3    S    
C26   C50   A    
O19   V4    S    
C46   H10   S    
O10   V1    S    
C31   Cl3   S    
C52   C55   S    
O15   C55   A    
C51   C56   S    
