data_mof_unit_29507.cif
_audit_creation_date              2012-10-26T20:08:13-0400
_audit_creation_method            fapswitch 2.2
_symmetry_space_group_name_H-M    P1
_symmetry_Int_Tables_number       1
_space_group_crystal_system       triclinic
_cell_length_a                    10.930381
_cell_length_b                    10.82523
_cell_length_c                    9.591422
_cell_angle_alpha                 90.038758
_cell_angle_beta                  90.925566
_cell_angle_gamma                 90.330156
_cell_volume                      1134.72709399

loop_
_atom_site_label
_atom_site_type_symbol
_atom_type_description
_atom_site_fract_x
_atom_site_fract_y
_atom_site_fract_z
_atom_type_partial_charge
C1    C     C_R   0.500077 0.262310 0.499939 0.550747
C2    C     C_R   0.502251 0.064002 0.626686 -0.133161
C3    C     C_R   0.499835 0.871662 0.500048 0.020592
C4    C     C_R   0.500165 0.128337 0.499952 0.020591
C5    C     C_R   0.481756 0.393317 0.073511 0.022455
C6    C     C_R   0.518244 0.606683 0.926489 0.022449
C7    C     C_R   0.482581 0.393253 0.925690 0.016480
C8    C     C_R   0.517417 0.606747 0.074310 0.016469
C9    C     C_R   0.262302 0.501156 0.498541 0.548710
C10   C     C_R   0.737699 0.498845 0.501459 0.548710
C11   C     C_R   0.202445 0.656215 0.054958 0.098194
C12   C     C_R   0.499923 0.737690 0.500061 0.550747
C13   C     C_R   0.797554 0.343784 0.945039 0.098192
C14   C     C_R   0.150763 0.643535 0.186632 -0.049653
C15   C     C_R   0.849237 0.356465 0.813366 -0.049649
C16   C     C_R   0.112070 0.527333 0.233133 -0.000823
C17   C     C_R   0.887932 0.472668 0.766867 -0.000821
C18   C     C_R   0.122927 0.423642 0.147237 -0.041194
C19   C     C_R   0.877079 0.576357 0.852767 -0.041189
C20   C     C_R   0.175111 0.434566 0.015958 0.091660
C21   C     C_R   0.824895 0.565431 0.984046 0.091655
C22   C     C_R   0.215057 0.551314 0.970170 -0.073178
C23   C     C_R   0.871751 0.497976 0.504041 -0.000067
C24   C     C_R   0.784945 0.448683 0.029830 -0.073184
C25   C     C_R   0.931915 0.510949 0.377616 -0.154188
C26   C     C_R   0.068086 0.489056 0.622384 -0.154186
C27   C     C_R   0.128250 0.502027 0.495959 -0.000067
C28   C     C_R   0.941636 0.486344 0.628306 -0.033966
C29   C     C_R   0.058365 0.513659 0.371694 -0.033966
C30   C     C_R   0.498010 0.063771 0.373268 -0.132631
C31   C     C_R   0.501990 0.936229 0.626732 -0.132631
C32   C     C_R   0.497749 0.935998 0.373314 -0.133161
Cu1   Cu    Cu3+1 0.500000 0.500020 0.640660 0.929909
Cu2   Cu    Cu3+1 0.500000 0.499980 0.359340 0.929908
H1    H     H_    0.257349 0.560878 0.869915 0.135691
H2    H     H_    0.119236 0.479830 0.718124 0.129603
H3    H     H_    0.496447 0.111604 0.274141 0.119659
H4    H     H_    0.503553 0.888396 0.725859 0.119659
H5    H     H_    0.495848 0.887983 0.274214 0.117426
H6    H     H_    0.504152 0.112018 0.725786 0.117426
H7    H     H_    0.466108 0.307168 0.127020 0.117594
H8    H     H_    0.533891 0.692832 0.872980 0.117593
H9    H     H_    0.276706 0.770604 0.908431 0.222715
H10   H     H_    0.314111 0.804060 0.074518 0.218670
H11   H     H_    0.723290 0.229393 0.091563 0.222715
H12   H     H_    0.742652 0.439118 0.130085 0.135691
H13   H     H_    0.685886 0.195941 0.925474 0.218669
H14   H     H_    0.238296 0.345646 0.842753 0.233888
H15   H     H_    0.102465 0.295932 0.900898 0.238955
H16   H     H_    0.761684 0.654356 0.157234 0.233887
H17   H     H_    0.897544 0.704032 0.099144 0.238952
H18   H     H_    0.467776 0.306980 0.871464 0.113336
H19   H     H_    0.532221 0.693020 0.128536 0.113328
H20   H     H_    0.141214 0.723869 0.252957 0.123081
H21   H     H_    0.858783 0.276133 0.747039 0.123080
H22   H     H_    0.092434 0.333931 0.183355 0.134593
H23   H     H_    0.907576 0.666068 0.816652 0.134601
H24   H     H_    0.880764 0.520177 0.281876 0.129605
N1    N     N_R   0.500030 0.500030 0.852070 -0.236487
N2    N     N_R   0.499970 0.499970 0.147930 -0.236487
N3    N     N_3   0.241729 0.775969 0.009090 -0.633705
N4    N     N_3   0.758267 0.224030 0.990904 -0.633707
N5    N     N_3   0.189665 0.325562 0.932852 -0.648933
N6    N     N_3   0.810346 0.674433 0.067154 -0.648926
O1    O     O_R   0.499990 0.319660 0.618740 -0.519050
O2    O     O_R   0.500010 0.680340 0.381260 -0.519050
O3    O     O_R   0.499990 0.319630 0.381170 -0.518710
O4    O     O_R   0.500010 0.680370 0.618830 -0.518710
O5    O     O_R   0.319650 0.500020 0.618780 -0.528009
O6    O     O_R   0.680350 0.499980 0.381220 -0.528008
O7    O     O_R   0.319640 0.500000 0.381210 -0.480190
O8    O     O_R   0.680360 0.500000 0.618790 -0.480191

loop_
_geom_bond_atom_site_label_1
_geom_bond_atom_site_label_2
_ccdc_geom_bond_type
C8    H19   S    
Cu2   O3    S    
C1    O1    A    
C21   N6    S    
C15   C17   A    
H15   N5    S    
Cu1   O5    S    
H10   N3    S    
C27   C29   A    
H16   N6    S    
Cu2   O6    S    
C11   C22   A    
C2    C4    A    
C5    N2    A    
C31   H4    S    
C18   H22   S    
C3    C31   A    
C1    C4    S    
C24   H12   S    
Cu2   O7    S    
Cu2   O2    S    
H13   N4    S    
C13   C15   A    
Cu1   Cu2   S    
Cu1   O1    S    
Cu1   N1    S    
C15   H21   S    
C30   H3    S    
C23   C28   A    
C19   H23   S    
Cu2   N2    S    
C22   H1    S    
C12   O4    A    
C9    C27   S    
C26   C27   A    
C12   O2    A    
C20   N5    S    
C10   O6    A    
C13   C24   A    
C7    N1    A    
C19   C21   A    
C9    O5    A    
C7    H18   S    
C18   C20   A    
C23   C25   A    
C25   C29   A    
C3    C32   A    
C10   C23   S    
C11   C14   A    
C14   C16   A    
C17   C28   S    
C32   H5    S    
C4    C30   A    
C25   H24   S    
H17   N6    S    
C30   C32   A    
C2    H6    S    
H11   N4    S    
H9    N3    S    
C16   C18   A    
C6    H8    S    
C21   C24   A    
C26   H2    S    
C5    C7    A    
C5    H7    S    
C17   C19   A    
H14   N5    S    
C6    C8    A    
C3    C12   S    
Cu1   O8    S    
C1    O3    A    
C16   C29   S    
C14   H20   S    
C26   C28   A    
C6    N1    A    
C8    N2    A    
C13   N4    S    
C9    O7    A    
Cu1   O4    S    
C20   C22   A    
C2    C31   A    
C11   N3    S    
C10   O8    A    
