data_mof_unit_51042.cif
_audit_creation_date              2012-12-10T18:11:37-0500
_audit_creation_method            fapswitch 2.2
_symmetry_space_group_name_H-M    P1
_symmetry_Int_Tables_number       1
_space_group_crystal_system       triclinic
_cell_length_a                    10.496018
_cell_length_b                    12.685433
_cell_length_c                    13.221344
_cell_angle_alpha                 82.023557
_cell_angle_beta                  91.276134
_cell_angle_gamma                 102.519139
_cell_volume                      1701.83895195

loop_
_atom_site_label
_atom_site_type_symbol
_atom_type_description
_atom_site_fract_x
_atom_site_fract_y
_atom_site_fract_z
_atom_type_partial_charge
C1    C     C_R   0.486345 0.438852 0.690821 0.842867
C2    C     C_3   0.061765 0.576573 0.426300 -0.164100
C3    C     C_3   0.987817 0.599475 0.518006 -0.158041
C4    C     C_3   0.877887 0.502604 0.500279 0.002882
C5    C     C_R   0.423080 0.699083 0.054647 -0.175972
C6    C     C_R   0.511175 0.599525 0.198810 -0.131859
C7    C     C_R   0.568017 0.321562 0.828621 -0.202136
C8    C     C_R   0.630699 0.317798 0.921953 -0.168058
C9    C     C_R   0.624959 0.394815 0.987180 0.126096
C10   C     C_R   0.537616 0.467565 0.965260 0.110615
C11   C     C_R   0.471560 0.467839 0.870333 0.050905
C12   C     C_R   0.742096 0.500943 0.500286 0.869749
C13   C     C_R   0.514825 0.542452 0.030546 0.095647
C14   C     C_R   0.442470 0.622547 0.993920 0.099403
C15   C     C_R   0.378960 0.619659 0.900985 -0.224832
C16   C     C_R   0.386044 0.538707 0.843592 -0.166930
C17   C     C_R   0.548654 0.533736 0.133947 -0.186584
C18   C     C_R   0.454764 0.687474 0.157206 0.089236
C19   C     C_R   0.497460 0.402125 0.799562 -0.109431
C20   C     C_R   0.298955 0.078073 0.367273 -0.348958
C21   C     C_R   0.663525 0.800811 0.623089 0.023183
C22   C     C_R   0.697950 0.904648 0.652088 -0.249187
C23   C     C_R   0.512561 0.561443 0.308746 0.867838
C24   C     C_R   0.632525 0.984887 0.610325 -0.194191
C25   C     C_R   0.531543 0.960761 0.539558 0.046357
C26   C     C_R   0.499878 0.853022 0.513710 0.229597
C27   C     C_R   0.463154 0.038920 0.490636 -0.002422
C28   C     C_R   0.362001 0.004443 0.422099 0.103373
C29   C     C_R   0.330028 0.897559 0.401856 -0.243849
C30   C     C_R   0.401317 0.824575 0.444886 -0.224698
C31   C     C_R   0.492644 0.150404 0.503319 -0.146364
C32   C     C_R   0.339099 0.188090 0.373948 0.570276
C33   C     C_R   0.257909 0.498920 0.500220 0.876281
C34   C     C_3   0.940848 0.425396 0.572265 0.110999
C35   C     C_3   0.051393 0.520515 0.592213 -0.191130
C36   C     C_3   0.122287 0.497396 0.500263 0.003993
C37   C     C_3   0.013003 0.399989 0.482418 -0.143701
C38   C     C_3   0.949560 0.479558 0.408732 -0.178021
H1    H     H_    0.096243 0.535155 0.667259 0.133588
H2    H     H_    0.589375 0.467543 0.169786 0.209887
H3    H     H_    0.587535 0.269884 0.774687 0.160039
H4    H     H_    0.694676 0.261308 0.939453 0.149483
H5    H     H_    0.326981 0.534341 0.775419 0.146497
H6    H     H_    0.254310 0.871569 0.347817 0.159050
H7    H     H_    0.225512 0.049807 0.312522 0.201424
H8    H     H_    0.564138 0.182413 0.557276 0.143528
H9    H     H_    0.714251 0.738484 0.655445 0.140353
H10   H     H_    0.662406 0.064313 0.634493 0.131220
H11   H     H_    0.775357 0.922930 0.706592 0.152196
H12   H     H_    0.382111 0.747201 0.419836 0.206850
H13   H     H_    0.026197 0.318356 0.469519 0.174839
H14   H     H_    0.904121 0.463878 0.334101 0.151514
H15   H     H_    0.116482 0.638588 0.366115 0.127854
H16   H     H_    0.974091 0.680650 0.531887 0.152716
H17   H     H_    0.317563 0.676544 0.875124 0.146612
H18   H     H_    0.371338 0.762033 0.025022 0.154134
N1    N     N_R   0.432930 0.222190 0.444670 -0.160024
N2    N     N_R   0.566370 0.776980 0.554790 -0.133913
O1    O     O_R   0.467970 0.366730 0.627150 -0.623446
O2    O     O_R   0.510820 0.544830 0.662520 -0.611150
O3    O     O_R   0.664630 0.410960 0.482340 -0.627450
O4    O     O_R   0.707470 0.589060 0.517710 -0.628702
O5    O     O_R   0.489180 0.455170 0.337480 -0.531988
O6    O     O_R   0.532030 0.633270 0.372850 -0.646417
O7    O     O_R   0.292530 0.410940 0.482290 -0.560465
O8    O     O_R   0.335370 0.589040 0.517660 -0.655582
Zn1   Zn    Zn3+2 0.471390 0.381080 0.476380 0.998626
Zn2   Zn    Zn3+2 0.528610 0.618920 0.523620 0.923027
N3    N     N_3   0.718771 0.405049 0.067507 -0.492675
H19   H     H_    0.812206 0.422381 0.035009 0.191758
H20   H     H_    0.705988 0.329934 0.114362 0.207201
S1    S     S_3+6 0.284293 0.274193 0.271236 0.026089
O9    O     O_2   0.393274 0.310553 0.194261 -0.330998
O10   O     O_2   0.169497 0.209776 0.220323 -0.327907
O11   O     O_3   0.237378 0.383494 0.302808 -0.548144
H21   H     H_    0.226316 0.428367 0.236983 0.364612
N4    N     N_3   0.870556 0.344343 0.652180 -0.470946
H22   H     H_    0.938417 0.303866 0.689938 0.181591
H23   H     H_    0.805240 0.286638 0.616510 0.179039
N5    N     N_3   0.412939 0.757885 0.218174 -0.460969
H24   H     H_    0.493063 0.795472 0.258167 0.220765
H25   H     H_    0.340148 0.709933 0.267430 0.167453

loop_
_geom_bond_atom_site_label_1
_geom_bond_atom_site_label_2
_ccdc_geom_bond_type
O8    Zn2   S    
C34   C37   S    
C5    H18   S    
C35   C36   S    
C33   O7    A    
C7    C8    A    
C32   S1    S    
N4    H22   S    
C11   C19   A    
C29   C30   A    
O6    Zn2   S    
C36   C37   S    
C8    H4    S    
C1    O1    A    
C34   N4    S    
C37   H13   S    
C3    H16   S    
C38   H14   S    
C15   C16   A    
C33   C36   S    
C34   C35   S    
N3    H20   S    
C2    C38   S    
O1    Zn1   S    
C8    C9    A    
O7    Zn1   S    
C31   H8    S    
C4    C12   S    
C9    C10   A    
C20   H7    S    
C23   O5    A    
C30   H12   S    
C21   C22   A    
C32   N1    A    
N1    Zn1   S    
S1    O11   S    
C33   O8    A    
O5    Zn1   S    
N4    H23   S    
C6    C18   A    
C4    C34   S    
C1    C19   S    
C27   C31   A    
C24   H10   S    
C24   C25   A    
S1    O10   D    
C1    O2    A    
N5    H24   S    
C5    C18   A    
C20   C28   A    
C25   C26   A    
C2    H15   S    
C17   H2    S    
C15   H17   S    
C35   H1    S    
O11   H21   S    
C37   C38   S    
C12   O4    A    
C11   C16   A    
O3    Zn1   S    
C3    C35   S    
C26   N2    A    
C16   H5    S    
C5    C14   A    
C22   H11   S    
N2    Zn2   S    
C23   O6    A    
C4    C38   S    
C26   C30   A    
C7    C19   A    
C29   H6    S    
C22   C24   A    
C3    C4    S    
C20   C32   A    
C2    C36   S    
C6    C17   A    
C28   C29   A    
C9    N3    S    
S1    O9    D    
C10   C13   A    
O4    Zn2   S    
C25   C27   A    
C13   C17   A    
C31   N1    A    
C2    C3    S    
C21   N2    A    
C12   O3    A    
C6    C23   S    
N5    H25   S    
C7    H3    S    
N3    H19   S    
C10   C11   A    
O2    Zn2   S    
C18   N5    S    
C27   C28   A    
C14   C15   A    
C13   C14   A    
C21   H9    S    
