data_mof_unit_21990.cif
_audit_creation_date              2012-10-26T19:12:16-0400
_audit_creation_method            fapswitch 2.2
_symmetry_space_group_name_H-M    P1
_symmetry_Int_Tables_number       1
_space_group_crystal_system       triclinic
_cell_length_a                    27.729999
_cell_length_b                    15.847199
_cell_length_c                    14.598099
_cell_angle_alpha                 90.308203
_cell_angle_beta                  89.673376
_cell_angle_gamma                 90.123646
_cell_volume                      6414.81811901

loop_
_atom_site_label
_atom_site_type_symbol
_atom_type_description
_atom_site_fract_x
_atom_site_fract_y
_atom_site_fract_z
_atom_type_partial_charge
C1    C     C_R   0.500456 0.339517 0.499848 0.545541
C2    C     C_R   0.871545 0.451772 0.572125 0.009467
C3    C     C_R   0.750201 0.718501 0.606806 -0.066626
C4    C     C_R   0.773646 0.771650 0.669060 -0.117855
C5    C     C_R   0.789744 0.739937 0.752623 -0.105968
C6    C     C_R   0.782586 0.654931 0.773932 -0.127610
C7    C     C_R   0.759202 0.601571 0.711838 -0.107875
C8    C     C_R   0.650737 0.391179 0.386339 0.047473
C9    C     C_R   0.651082 0.404198 0.291272 -0.067045
C10   C     C_R   0.629350 0.345429 0.232775 -0.106332
C11   C     C_R   0.607474 0.273189 0.268748 -0.097681
C12   C     C_R   0.607316 0.259629 0.363277 -0.099722
C13   C     C_R   0.353431 0.499996 0.501171 -0.021118
C14   C     C_R   0.628573 0.318698 0.422133 -0.081681
C15   C     C_R   0.355707 0.605086 0.370493 0.052130
C16   C     C_R   0.354178 0.591860 0.275228 -0.073399
C17   C     C_R   0.376751 0.648852 0.215846 -0.117217
C18   C     C_R   0.401678 0.718355 0.250972 -0.104800
C19   C     C_R   0.403761 0.731475 0.345455 -0.084504
C20   C     C_R   0.380736 0.675432 0.405174 -0.065289
C21   C     C_R   0.754879 0.398450 0.399801 0.063781
C22   C     C_R   0.754384 0.311819 0.419839 -0.047021
C23   C     C_R   0.783973 0.256243 0.370708 -0.112721
C24   C     C_R   0.645410 0.510703 0.500147 -0.017692
C25   C     C_R   0.814182 0.286697 0.301356 -0.107262
C26   C     C_R   0.814783 0.372775 0.280945 -0.119945
C27   C     C_R   0.785221 0.428572 0.329899 -0.097716
C28   C     C_R   0.251573 0.595445 0.360497 0.057837
C29   C     C_R   0.252196 0.684041 0.362464 -0.061016
C30   C     C_R   0.226641 0.729834 0.297240 -0.126599
C31   C     C_R   0.200219 0.687491 0.229874 -0.109062
C32   C     C_R   0.199344 0.599299 0.227637 -0.122503
C33   C     C_R   0.224892 0.553295 0.292748 -0.102529
C34   C     C_3   0.874333 0.349459 0.705460 -0.206759
C35   C     C_R   0.973171 0.440675 0.551811 0.000418
C36   C     C_3   0.853075 0.260421 0.692327 -0.262484
C37   C     C_3   0.811195 0.243868 0.758308 -0.440642
C38   C     C_3   0.130487 0.750809 0.518022 -0.202819
C39   C     C_3   0.147463 0.790868 0.608650 -0.262791
C40   C     C_3   0.188793 0.852928 0.592438 -0.442579
C41   C     C_3   0.971263 0.294084 0.631340 -0.245157
C42   C     C_3   0.959450 0.217883 0.568965 -0.293996
C43   C     C_3   0.991709 0.142715 0.590253 -0.463628
C44   C     C_3   0.026706 0.743447 0.588938 -0.240951
C45   C     C_3   0.021363 0.825077 0.532495 -0.303856
C46   C     C_R   0.025095 0.593304 0.524764 -0.002459
C47   C     C_3   0.974262 0.871048 0.554397 -0.458929
C48   C     C_3   0.490074 0.065046 0.321778 -0.252484
C49   C     C_3   0.489361 0.995854 0.247876 -0.302285
C50   C     C_3   0.479048 0.033258 0.153996 -0.465058
C51   C     C_3   0.520744 0.936354 0.682568 -0.251155
C52   C     C_3   0.527187 0.006806 0.753750 -0.294568
C53   C     C_3   0.534763 0.970158 0.848913 -0.464658
C54   C     C_R   0.974640 0.590807 0.510724 0.012179
C55   C     C_R   0.023026 0.438475 0.526031 0.014949
C56   C     C_R   0.948651 0.516646 0.532994 0.012503
C57   C     C_R   0.049425 0.515580 0.521328 0.015793
C58   C     C_R   0.946863 0.374289 0.597517 -0.002172
C59   C     C_R   0.500059 0.660527 0.500283 0.537088
C60   C     C_R   0.051637 0.669507 0.539594 -0.007020
C61   C     C_R   0.896906 0.387224 0.618740 0.017405
C62   C     C_R   0.102976 0.668207 0.531331 0.008586
C63   C     C_R   0.407022 0.499368 0.500458 0.541733
C64   C     C_R   0.592603 0.502403 0.499816 0.546902
C65   C     C_R   0.046681 0.364435 0.497411 -0.161436
C66   C     C_R   0.950051 0.657311 0.468367 -0.156791
C67   C     C_3   0.537002 0.969188 0.444179 -0.113651
C68   C     C_3   0.470184 0.030941 0.561341 -0.110006
C69   C     C_3   0.494753 0.028300 0.418075 0.016449
C70   C     C_R   0.099980 0.514281 0.511296 -0.044999
C71   C     C_3   0.512342 0.971820 0.586840 0.011928
C72   C     C_1   0.502049 0.250161 0.500029 -0.053150
C73   C     C_1   0.500483 0.749997 0.501067 -0.057954
C74   C     C_3   0.547681 0.025024 0.529093 0.019741
C75   C     C_3   0.459303 0.975150 0.476419 0.021676
C76   C     C_3   0.505697 0.083427 0.502643 0.021929
C77   C     C_3   0.501394 0.916965 0.502667 0.018612
C78   C     C_1   0.503868 0.174835 0.501274 -0.093889
C79   C     C_1   0.500822 0.825426 0.501785 -0.088920
C80   C     C_3   0.466790 0.552611 0.970891 -0.110130
C81   C     C_R   0.897931 0.517748 0.531657 -0.047485
C82   C     C_3   0.533507 0.440505 0.029164 -0.107941
C83   C     C_3   0.456383 0.473206 0.029662 0.023196
C84   C     C_3   0.543971 0.519700 0.970198 0.025100
C85   C     C_3   0.510640 0.573301 0.032740 0.022523
C86   C     C_3   0.489746 0.419832 0.966904 0.024478
C87   C     C_R   0.173063 0.436470 0.476779 0.400426
C88   C     C_R   0.823667 0.583355 0.482962 0.396928
C89   C     C_3   0.499864 0.494645 0.091514 -0.007067
C90   C     C_3   0.500414 0.498742 0.908470 -0.005244
C91   C     C_1   0.499904 0.497064 0.194195 0.107013
C92   C     C_R   0.123114 0.437520 0.489394 0.035738
C93   C     C_1   0.500202 0.499864 0.805830 0.088902
C94   C     C_R   0.178213 0.580456 0.523381 0.391373
C95   C     C_R   0.820601 0.454198 0.566091 0.395575
C96   C     C_R   0.278048 0.546620 0.430676 0.005749
C97   C     C_R   0.724430 0.457908 0.453542 0.006193
C98   C     C_R   0.328856 0.548233 0.434078 -0.067738
C99   C     C_R   0.673817 0.453781 0.448244 -0.073164
C100  C     C_R   0.326530 0.452870 0.567559 -0.051133
C101  C     C_R   0.667445 0.575293 0.553332 -0.050220
C102  C     C_R   0.275459 0.455581 0.565310 0.023151
C103  C     C_R   0.873810 0.586003 0.490812 0.034242
C104  C     C_R   0.718179 0.575474 0.562631 0.024499
C105  C     C_R   0.251651 0.501197 0.496535 0.207893
C106  C     C_R   0.746381 0.517234 0.512416 0.204625
C107  C     C_3   0.351517 0.400134 0.641060 -0.246091
C108  C     C_3   0.374232 0.319853 0.600450 -0.276822
C109  C     C_3   0.401860 0.270994 0.673094 -0.447659
C110  C     C_3   0.637656 0.649196 0.590279 -0.232739
C111  C     C_3   0.627669 0.644504 0.693639 -0.280925
C112  C     C_3   0.599162 0.721795 0.725638 -0.457597
C113  C     C_R   0.408293 0.944940 0.460567 0.023773
C114  C     C_R   0.095841 0.363867 0.479000 -0.124378
C115  C     C_R   0.386509 0.891607 0.525560 -0.106919
C116  C     C_R   0.338820 0.864721 0.514638 -0.123619
C117  C     C_R   0.312289 0.891305 0.439157 -0.102463
C118  C     C_R   0.333432 0.944540 0.374462 -0.110408
C119  C     C_R   0.381068 0.971739 0.385273 -0.107486
C120  C     C_R   0.598689 0.044698 0.557792 0.028428
C121  C     C_R   0.631760 0.978174 0.566655 -0.101537
C122  C     C_R   0.679314 0.994345 0.592882 -0.114887
C123  C     C_R   0.694271 0.077035 0.610646 -0.103481
C124  C     C_R   0.661578 0.143516 0.602843 -0.120708
C125  C     C_R   0.900368 0.654497 0.457205 -0.128021
C126  C     C_R   0.613922 0.127521 0.576966 -0.112122
C127  C     C_3   0.406883 0.448966 0.068148 -0.250934
C128  C     C_3   0.368847 0.440646 0.992912 -0.301657
C129  C     C_3   0.319081 0.423208 0.033808 -0.455785
C130  C     C_3   0.593575 0.541006 0.930263 -0.255095
C131  C     C_3   0.631599 0.554526 0.004556 -0.297743
C132  C     C_3   0.680747 0.574017 0.961925 -0.457887
C133  C     C_3   0.480687 0.334368 0.920610 -0.249931
C134  C     C_3   0.473762 0.262583 0.989122 -0.299079
C135  C     C_3   0.467334 0.178640 0.938828 -0.464042
C136  C     C_R   0.127265 0.589154 0.520932 0.009061
C137  C     C_3   0.519727 0.659174 0.077910 -0.249406
C138  C     C_3   0.528670 0.729297 0.008257 -0.302455
C139  C     C_3   0.534424 0.814123 0.057001 -0.462467
C140  C     C_R   0.245721 0.413106 0.636315 0.047694
C141  C     C_R   0.238967 0.325265 0.633795 -0.064765
C142  C     C_R   0.210028 0.285938 0.699723 -0.116598
C143  C     C_R   0.187724 0.333960 0.768415 -0.108821
C144  C     C_R   0.194370 0.421392 0.771354 -0.123767
C145  C     C_R   0.223292 0.460961 0.705574 -0.099439
C146  C     C_R   0.742439 0.633201 0.628189 0.057248
Cu1   Cu    Cu3+1 0.500010 0.500000 0.590220 0.933749
Cu2   Cu    Cu3+1 0.499990 0.500000 0.409780 0.985076
H1    H     H_    0.564372 0.942434 0.396478 0.098805
H2    H     H_    0.377311 0.252216 0.729858 0.136252
H3    H     H_    0.199252 0.882807 0.658386 0.134956
H4    H     H_    0.117490 0.825766 0.641883 0.130564
H5    H     H_    0.159536 0.741652 0.657267 0.201812
H6    H     H_    0.161282 0.740670 0.470393 0.183892
H7    H     H_    0.108882 0.796401 0.478865 0.108094
H8    H     H_    0.030150 0.159178 0.577900 0.149806
H9    H     H_    0.986849 0.123355 0.662747 0.148262
H10   H     H_    0.981995 0.088745 0.545170 0.137394
H11   H     H_    0.921465 0.198260 0.577483 0.153209
H12   H     H_    0.963129 0.233940 0.495439 0.155832
H13   H     H_    0.417585 0.213135 0.641977 0.141378
H14   H     H_    0.010641 0.302850 0.638437 0.146833
H15   H     H_    0.960348 0.278768 0.702297 0.128226
H16   H     H_    0.942705 0.830892 0.537206 0.156258
H17   H     H_    0.972707 0.888066 0.628276 0.149198
H18   H     H_    0.972240 0.929762 0.513476 0.135188
H19   H     H_    0.051121 0.869345 0.549356 0.151158
H20   H     H_    0.023244 0.811837 0.457809 0.152907
H21   H     H_    0.990883 0.723135 0.615251 0.155374
H22   H     H_    0.046611 0.757896 0.652795 0.123528
H23   H     H_    0.443031 0.063840 0.153995 0.147795
H24   H     H_    0.345415 0.278644 0.572165 0.150482
H25   H     H_    0.507050 0.080677 0.135865 0.150488
H26   H     H_    0.479319 0.982584 0.101235 0.136365
H27   H     H_    0.524949 0.963810 0.245207 0.156621
H28   H     H_    0.461573 0.947509 0.263863 0.161353
H29   H     H_    0.457248 0.104815 0.318713 0.139361
H30   H     H_    0.521547 0.107001 0.308956 0.140041
H31   H     H_    0.502593 0.933061 0.870168 0.148407
H32   H     H_    0.567045 0.928745 0.849131 0.153402
H33   H     H_    0.540357 0.021994 0.899197 0.137210
H34   H     H_    0.558915 0.046333 0.735640 0.177475
H35   H     H_    0.399292 0.335495 0.543607 0.176448
H36   H     H_    0.494691 0.047742 0.755333 0.154162
H37   H     H_    0.489245 0.896552 0.701671 0.138000
H38   H     H_    0.553343 0.895802 0.680650 0.141060
H39   H     H_    0.378194 0.438419 0.679154 0.175189
H40   H     H_    0.326400 0.380312 0.696155 0.135350
H41   H     H_    0.619186 0.780570 0.708849 0.144717
H42   H     H_    0.563322 0.723258 0.692093 0.169899
H43   H     H_    0.593672 0.719986 0.800850 0.125928
H44   H     H_    0.606760 0.586598 0.709790 0.189456
H45   H     H_    0.443012 0.057260 0.609735 0.096308
H46   H     H_    0.661877 0.642276 0.732398 0.163841
H47   H     H_    0.656177 0.709361 0.573963 0.124470
H48   H     H_    0.602802 0.654175 0.553822 0.153039
H49   H     H_    0.406429 0.871057 0.584977 0.105173
H50   H     H_    0.322388 0.823524 0.564865 0.108010
H51   H     H_    0.275226 0.871365 0.431142 0.092905
H52   H     H_    0.312700 0.965542 0.316309 0.101873
H53   H     H_    0.395740 0.014549 0.335415 0.105025
H54   H     H_    0.620720 0.913714 0.553066 0.096293
H55   H     H_    0.704564 0.942742 0.599337 0.097363
H56   H     H_    0.439732 0.598848 0.946759 0.091265
H57   H     H_    0.731117 0.089576 0.630787 0.101408
H58   H     H_    0.673131 0.207511 0.617189 0.107075
H59   H     H_    0.589328 0.179910 0.573035 0.108567
H60   H     H_    0.319491 0.363626 0.073518 0.152652
H61   H     H_    0.307898 0.476008 0.079521 0.149120
H62   H     H_    0.292303 0.416904 0.977898 0.144707
H63   H     H_    0.367178 0.499883 0.952684 0.157133
H64   H     H_    0.378407 0.388065 0.945830 0.159849
H65   H     H_    0.409837 0.389092 0.106683 0.136347
H66   H     H_    0.395678 0.498486 0.117466 0.141266
H67   H     H_    0.560550 0.394329 0.053383 0.089985
H68   H     H_    0.692762 0.520833 0.917523 0.148404
H69   H     H_    0.678865 0.632427 0.920327 0.153280
H70   H     H_    0.707728 0.583548 0.016945 0.142431
H71   H     H_    0.621085 0.608074 0.049567 0.163105
H72   H     H_    0.634621 0.496886 0.047174 0.154963
H73   H     H_    0.604927 0.488117 0.884760 0.139561
H74   H     H_    0.590435 0.598278 0.887768 0.134928
H75   H     H_    0.435383 0.181135 0.893345 0.148625
H76   H     H_    0.499878 0.164187 0.896984 0.151004
H77   H     H_    0.461810 0.127218 0.989008 0.140715
H78   H     H_    0.112512 0.304939 0.458355 0.154567
H79   H     H_    0.505657 0.258407 0.034640 0.155861
H80   H     H_    0.441280 0.274196 0.031898 0.160804
H81   H     H_    0.448553 0.339284 0.875990 0.130712
H82   H     H_    0.512258 0.319983 0.875954 0.142595
H83   H     H_    0.500949 0.830109 0.095407 0.146689
H84   H     H_    0.565149 0.812003 0.105433 0.153031
H85   H     H_    0.541642 0.864262 0.006117 0.139901
H86   H     H_    0.562050 0.716086 0.968592 0.159525
H87   H     H_    0.497916 0.733032 0.959960 0.157585
H88   H     H_    0.487530 0.675229 0.120152 0.144843
H89   H     H_    0.882852 0.706754 0.423448 0.153853
H90   H     H_    0.551015 0.654097 0.124660 0.139452
H91   H     H_    0.255750 0.287587 0.580438 0.130400
H92   H     H_    0.204783 0.218268 0.697416 0.101909
H93   H     H_    0.165273 0.303432 0.819329 0.103501
H94   H     H_    0.177066 0.458512 0.824545 0.103993
H95   H     H_    0.228133 0.528756 0.708350 0.135499
H96   H     H_    0.738372 0.743647 0.541895 0.129796
H97   H     H_    0.779455 0.837377 0.652416 0.096449
H98   H     H_    0.807892 0.781173 0.800736 0.103761
H99   H     H_    0.795163 0.630370 0.838556 0.103353
H100  H     H_    0.027536 0.306951 0.484828 0.122430
H101  H     H_    0.753868 0.535781 0.729022 0.121246
H102  H     H_    0.668030 0.459883 0.262715 0.100122
H103  H     H_    0.629640 0.355741 0.159564 0.087007
H104  H     H_    0.590774 0.227603 0.223384 0.094407
H105  H     H_    0.590747 0.203287 0.390785 0.109929
H106  H     H_    0.628069 0.307997 0.495302 0.089311
H107  H     H_    0.334844 0.538308 0.247131 0.098738
H108  H     H_    0.374658 0.639708 0.142483 0.096193
H109  H     H_    0.419177 0.762328 0.204973 0.094171
H110  H     H_    0.422968 0.785516 0.372178 0.124563
H111  H     H_    0.969364 0.709545 0.438895 0.127738
H112  H     H_    0.382002 0.687179 0.478275 0.096719
H113  H     H_    0.731546 0.287625 0.474155 0.120938
H114  H     H_    0.783613 0.189621 0.386639 0.102001
H115  H     H_    0.837143 0.243611 0.263470 0.103217
H116  H     H_    0.838190 0.396274 0.227225 0.105837
H117  H     H_    0.785946 0.495110 0.313443 0.133390
H118  H     H_    0.272151 0.717237 0.415013 0.124626
H119  H     H_    0.227155 0.798105 0.299112 0.094864
H120  H     H_    0.180376 0.723006 0.179476 0.103658
H121  H     H_    0.178845 0.566584 0.175469 0.105700
H122  H     H_    0.431605 0.310263 0.701105 0.171903
H123  H     H_    0.223996 0.484994 0.290383 0.133050
H124  H     H_    0.823273 0.251705 0.830287 0.137679
H125  H     H_    0.780980 0.287935 0.745067 0.190849
H126  H     H_    0.797864 0.178301 0.748698 0.127310
H127  H     H_    0.840261 0.251209 0.620948 0.197539
H128  H     H_    0.881176 0.212752 0.706911 0.133823
H129  H     H_    0.900874 0.349058 0.762058 0.099791
H130  H     H_    0.846317 0.393131 0.732636 0.171185
H131  H     H_    0.220672 0.819538 0.563651 0.178402
H132  H     H_    0.177492 0.903105 0.544289 0.137603
N1    N     N_R   0.199707 0.506314 0.497621 -0.382000
N2    N     N_R   0.798120 0.518547 0.521093 -0.383287
N3    N     N_1   0.499980 0.500000 0.274190 -0.191110
N4    N     N_1   0.500020 0.500000 0.725810 -0.207905
O1    O     O_R   0.500010 0.379080 0.576170 -0.497428
O2    O     O_2   0.800541 0.644398 0.436533 -0.538934
O3    O     O_2   0.793526 0.391520 0.601378 -0.549079
O4    O     O_2   0.206347 0.643516 0.554809 -0.554842
O5    O     O_R   0.499990 0.620920 0.423830 -0.484790
O6    O     O_R   0.500000 0.379080 0.423800 -0.483387
O7    O     O_R   0.500000 0.620920 0.576200 -0.498404
O8    O     O_R   0.430270 0.500020 0.576180 -0.502913
O9    O     O_R   0.569730 0.499980 0.423820 -0.483170
O10   O     O_R   0.430260 0.500010 0.423810 -0.482196
O11   O     O_R   0.569740 0.499990 0.576190 -0.500583
O12   O     O_2   0.195075 0.365882 0.445926 -0.535679

loop_
_geom_bond_atom_site_label_1
_geom_bond_atom_site_label_2
_ccdc_geom_bond_type
C63   O8    A    
C106  N2    S    
C96   C105  A    
C17   H108  S    
Cu2   N3    S    
C67   H1    S    
C24   C99   A    
C65   C114  A    
C111  C112  S    
C119  H53   S    
C80   C90   S    
C71   C77   S    
C5    H98   S    
C43   H10   S    
C118  H52   S    
C128  C129  S    
C19   H110  S    
C104  C106  A    
C32   H121  S    
C9    H102  S    
C56   C81   A    
Cu1   O7    S    
C46   C60   A    
C116  C117  A    
C68   C75   S    
C142  H92   S    
Cu2   O9    S    
C115  H49   S    
C145  H95   S    
C26   C27   A    
C109  H122  S    
C82   C89   S    
C74   C76   S    
C39   H5    S    
C50   H25   S    
C51   H37   S    
C60   C62   A    
C28   C29   A    
C8    C99   S    
C76   C78   S    
C121  H54   S    
C10   H103  S    
C53   H33   S    
C128  H63   S    
C5    C6    A    
C25   H115  S    
C16   H107  S    
C120  C126  A    
C26   H116  S    
C22   H113  S    
C143  C144  A    
C107  H39   S    
C137  H90   S    
C116  H50   S    
C108  C109  S    
C123  H57   S    
C102  C105  A    
C131  H71   S    
C24   C101  A    
C41   C42   S    
C62   C136  A    
C13   C98   A    
C75   C77   S    
C118  C119  A    
C18   H109  S    
C72   C78   T    
Cu1   Cu2   S    
C55   C65   A    
C112  H41   S    
C133  H82   S    
C141  C142  A    
C19   C20   A    
C40   H131  S    
C92   C114  A    
C16   C17   A    
C96   C98   A    
C139  H85   S    
C94   C136  A    
C107  C108  S    
C143  H93   S    
C91   N3    T    
C139  H84   S    
C132  H68   S    
C37   H124  S    
C11   H104  S    
C57   C70   A    
C89   C91   S    
C29   C30   A    
C9    C10   A    
C59   C73   S    
C36   H127  S    
C34   C36   S    
C117  H51   S    
C2    C61   A    
C3    H96   S    
C7    C146  A    
C37   H125  S    
C58   C61   A    
C77   C79   S    
C34   H130  S    
C70   C92   A    
C111  H44   S    
C141  H91   S    
C113  C119  A    
C41   H14   S    
C33   H123  S    
C70   C136  A    
C29   H118  S    
C138  H87   S    
C84   C90   S    
C38   H7    S    
C80   C83   S    
C53   H31   S    
C48   H30   S    
C48   H29   S    
C97   C99   A    
C6    C7    A    
C44   H22   S    
Cu1   O8    S    
C45   C47   S    
C48   C69   S    
C47   H17   S    
C15   C20   A    
C83   C89   S    
C64   O9    A    
C54   C56   A    
C1    C72   S    
C35   C55   A    
C51   C52   S    
C104  C146  S    
C6    H99   S    
C123  C124  A    
C84   C85   S    
C42   H11   S    
C66   H111  S    
C86   C90   S    
C83   C127  S    
C39   C40   S    
C87   C92   A    
C47   H18   S    
C85   C89   S    
C8    C9    A    
C127  H65   S    
C41   H15   S    
C23   H114  S    
C25   C26   A    
C82   C86   S    
C107  H40   S    
C63   O10   A    
C3    C4    A    
C110  C111  S    
C132  H69   S    
C144  H94   S    
C131  H72   S    
C67   C69   S    
C134  H80   S    
C122  H55   S    
C87   N1    A    
C55   C57   A    
C80   C85   S    
C135  H76   S    
C88   O2    S    
C37   H126  S    
C114  H78   S    
C21   C97   S    
C86   C133  S    
C105  N1    S    
C31   C32   A    
C14   H106  S    
C130  H74   S    
C126  H59   S    
C95   N2    A    
Cu2   O6    S    
C46   C54   A    
C100  C102  A    
C17   C18   A    
C73   C79   T    
C67   C74   S    
C102  C140  S    
C52   C53   S    
C140  C141  A    
C137  H88   S    
C4    C5    A    
C45   H19   S    
C40   H132  S    
C121  C122  A    
C50   H23   S    
C38   H6    S    
C20   H112  S    
C94   N1    A    
C75   C113  S    
C97   C106  A    
C49   H28   S    
C48   C49   S    
C34   H129  S    
C12   C14   A    
C28   C33   A    
C101  C104  A    
C82   C84   S    
C10   C11   A    
C35   C58   A    
C46   C57   A    
C110  H48   S    
C133  C134  S    
C138  H86   S    
C42   C43   S    
C47   H16   S    
C15   C98   S    
C129  H61   S    
C127  C128  S    
C53   H32   S    
C85   C137  S    
C49   H27   S    
C88   C103  A    
C125  H89   S    
C120  C121  A    
C90   C93   S    
C124  C126  A    
C81   C103  A    
C54   C66   A    
C129  H60   S    
C43   H8    S    
C36   C37   S    
C100  C107  S    
C8    C14   A    
C12   H105  S    
C135  H77   S    
C108  H35   S    
C124  H58   S    
C35   C56   A    
C67   C77   S    
C82   H67   S    
C65   H100  S    
C130  H73   S    
C42   H12   S    
C44   C45   S    
C52   H36   S    
C52   H34   S    
C144  C145  A    
C43   H9    S    
C88   N2    A    
C140  C145  A    
C41   C58   S    
C71   C74   S    
C94   O4    S    
C11   C12   A    
C51   C71   S    
C127  H66   S    
C122  C123  A    
C134  C135  S    
C59   O5    A    
C68   C76   S    
Cu2   O10   S    
C137  C138  S    
C135  H75   S    
C87   O12   S    
C66   C125  A    
C50   H26   S    
C28   C96   S    
C134  H79   S    
C7    H101  S    
C13   C100  A    
C108  H24   S    
C130  C131  S    
C101  C110  S    
C1    O1    A    
C109  H2    S    
C51   H38   S    
C109  H13   S    
C117  C118  A    
C32   C33   A    
C112  H43   S    
Cu1   N4    S    
C30   C31   A    
C115  C116  A    
C38   C39   S    
C113  C115  A    
Cu1   O11   S    
C44   C60   S    
C68   C71   S    
C95   O3    S    
Cu2   O5    S    
C39   H4    S    
C68   H45   S    
C84   C130  S    
C1    O6    A    
C69   C75   S    
C64   O11   A    
C132  H70   S    
C13   C63   S    
C23   C25   A    
C21   C27   A    
C131  C132  S    
C103  C125  A    
C45   H20   S    
C133  H81   S    
C4    H97   S    
C138  C139  S    
C111  H46   S    
C112  H42   S    
C74   C120  S    
Cu1   O1    S    
C44   H21   S    
C83   C86   S    
C59   O7    A    
C69   C76   S    
C40   H3    S    
C3    C146  A    
C24   C64   S    
C49   C50   S    
C34   C61   S    
C110  H47   S    
C142  C143  A    
C18   C19   A    
C27   H117  S    
C22   C23   A    
C2    C81   A    
C139  H83   S    
C30   H119  S    
C2    C95   A    
C129  H62   S    
C21   C22   A    
C31   H120  S    
C36   H128  S    
C93   N4    T    
C128  H64   S    
C15   C16   A    
C38   C62   S    
C80   H56   S    
