data_mof_unit_12240.cif
_audit_creation_date              2012-12-11T17:39:35-0500
_audit_creation_method            fapswitch 2.2
_symmetry_space_group_name_H-M    P1
_symmetry_Int_Tables_number       1
_space_group_crystal_system       triclinic
_cell_length_a                    15.109402
_cell_length_b                    15.138636
_cell_length_c                    15.037609
_cell_angle_alpha                 108.647532
_cell_angle_beta                  109.841573
_cell_angle_gamma                 110.334174
_cell_volume                      2633.9138605

loop_
_atom_site_label
_atom_site_type_symbol
_atom_type_description
_atom_site_fract_x
_atom_site_fract_y
_atom_site_fract_z
_atom_type_partial_charge
C1    C     C_R   0.909946 0.912676 0.713498 -0.144493
C2    C     C_R   0.908092 0.685751 0.443511 -0.142561
C3    C     C_R   0.697157 0.794837 0.203285 -0.120730
C4    C     C_R   0.092436 0.302800 0.504883 -0.150869
C5    C     C_R   0.301825 0.004515 0.595904 -0.166018
C6    C     C_R   0.632398 0.704532 0.203425 0.130885
C7    C     C_R   0.362687 0.061466 0.562779 0.059803
C8    C     C_R   0.001215 0.678331 0.463773 0.043648
C9    C     C_R   0.003521 0.951248 0.179877 0.055300
C10   C     C_R   0.506870 0.680426 0.413071 -0.104186
C11   C     C_R   0.515497 0.780177 0.430842 -0.178819
C12   C     C_R   0.001612 0.307651 0.452392 0.053394
C13   C     C_R   0.536848 0.853927 0.531405 -0.065885
C14   C     C_R   0.547604 0.825511 0.614259 0.570590
C15   C     C_R   0.536250 0.724014 0.593915 -0.263813
C16   C     C_R   0.268294 0.220565 0.813490 -0.131804
C17   C     C_R   0.517573 0.652555 0.494522 -0.177067
C18   C     C_R   0.464587 0.973334 0.560688 -0.173785
C19   C     C_R   0.463069 0.068145 0.574903 0.034096
C20   C     C_R   0.547517 0.155861 0.584384 0.026831
C21   C     C_R   0.630712 0.142582 0.574045 -0.251661
C22   C     C_R   0.628624 0.044920 0.554776 0.044196
C23   C     C_R   0.307124 0.323320 0.825187 -0.047401
C24   C     C_R   0.545012 0.959422 0.549040 0.037449
C25   C     C_R   0.569821 0.304413 0.537455 -0.164300
C26   C     C_R   0.561816 0.395939 0.546970 -0.112594
C27   C     C_R   0.530944 0.441553 0.618808 -0.089707
C28   C     C_R   0.739960 0.053521 0.463758 -0.136816
C29   C     C_R   0.510132 0.396961 0.682669 -0.093772
C30   C     C_R   0.522260 0.308348 0.676759 -0.144594
C31   C     C_R   0.548675 0.258741 0.601363 0.116219
C32   C     C_R   0.791636 0.106473 0.117169 -0.123975
C33   C     C_R   0.873322 0.210904 0.203079 -0.141946
C34   C     C_R   0.710734 0.031495 0.535580 0.055476
C35   C     C_R   0.845369 0.286547 0.247856 0.117010
C36   C     C_R   0.734693 0.257988 0.199280 -0.169282
C37   C     C_R   0.653621 0.154629 0.110225 -0.114960
C38   C     C_R   0.681974 0.078474 0.070073 -0.104388
C39   C     C_R   0.932201 0.486424 0.357888 -0.252125
C40   C     C_R   0.267689 0.313418 0.722555 -0.149938
C41   C     C_R   0.007322 0.584404 0.455560 0.073524
C42   C     C_R   0.084450 0.590864 0.546799 0.018716
C43   C     C_R   0.085185 0.498474 0.537143 -0.240085
C44   C     C_R   0.006676 0.399542 0.442432 0.065398
C45   C     C_R   0.695844 0.703304 0.293322 -0.133971
C46   C     C_R   0.929885 0.391623 0.349992 0.023596
C47   C     C_R   0.272417 0.740086 0.701121 -0.174821
C48   C     C_R   0.342306 0.832329 0.804494 -0.098255
C49   C     C_R   0.299071 0.872475 0.865146 -0.123262
C50   C     C_R   0.185843 0.820273 0.822563 -0.115662
C51   C     C_R   0.115469 0.728710 0.718658 -0.113273
C52   C     C_R   0.750712 0.969551 0.563005 -0.114137
C53   C     C_R   0.158376 0.688516 0.656895 0.100061
C54   C     C_2   0.377383 0.512746 0.940801 -0.243891
C55   C     C_2   0.385612 0.424123 0.927613 0.477134
C56   C     C_R   0.302342 0.092082 0.501741 -0.133409
C57   C     C_2   0.464761 0.619976 0.033476 -0.096972
C58   C     C_2   0.515031 0.631022 0.131733 -0.119926
C59   C     C_R   0.394351 0.234401 0.123954 -0.134052
C60   C     C_R   0.304872 0.132270 0.081080 -0.190891
C61   C     C_R   0.197902 0.114175 0.035663 0.119126
C62   C     C_R   0.181807 0.199434 0.032733 -0.142286
C63   C     C_R   0.271655 0.301594 0.075929 -0.114731
C64   C     C_R   0.909175 0.213814 0.417446 -0.128849
C65   C     C_R   0.377830 0.319357 0.122859 -0.081367
C66   C     C_R   0.106664 0.998713 0.092940 -0.232768
C67   C     C_R   0.091796 0.780659 0.526902 -0.106285
C68   C     C_R   0.012230 0.923525 0.082009 0.050313
C69   C     C_R   0.922856 0.841295 0.977727 0.025778
C70   C     C_R   0.923508 0.848219 0.887464 -0.237583
C71   C     C_R   0.011201 0.936566 0.902008 0.061269
C72   C     C_R   0.105379 0.011249 0.006349 0.002912
C73   C     C_R   0.848681 0.693758 0.018848 -0.144301
C74   C     C_R   0.761496 0.613267 0.012189 -0.085178
C75   C     C_R   0.654950 0.588970 0.950454 -0.078426
C76   C     C_R   0.092026 0.002685 0.800800 -0.130058
C77   C     C_R   0.634932 0.644243 0.894588 -0.146313
C78   C     C_R   0.910642 0.937579 0.187891 -0.133330
C79   C     C_R   0.721551 0.723090 0.899068 -0.170918
C80   C     C_R   0.829444 0.749998 0.962988 0.124909
C81   C     C_R   0.003552 0.952122 0.810034 0.057714
C82   C     C_3   0.661159 0.984364 0.780408 0.168913
C83   C     C_3   0.743497 0.962497 0.847920 -0.327098
C84   C     C_3   0.857611 0.063888 0.919458 -1.001239
C85   C     C_R   0.093349 0.023795 0.283000 -0.128680
H1    H     H_    0.826845 0.854985 0.686223 0.093775
H2    H     H_    0.490929 0.624189 0.335705 0.103070
H3    H     H_    0.506262 0.800423 0.366620 0.138069
H4    H     H_    0.176369 0.357724 0.531360 0.097563
H5    H     H_    0.541699 0.700481 0.655545 0.129133
H6    H     H_    0.398069 0.905112 0.550884 0.139481
H7    H     H_    0.696986 0.207842 0.580326 0.133715
H8    H     H_    0.589532 0.267608 0.478134 0.108565
H9    H     H_    0.577369 0.430126 0.497001 0.102619
H10   H     H_    0.522423 0.510929 0.624542 0.095312
H11   H     H_    0.483106 0.429988 0.735882 0.101509
H12   H     H_    0.329899 0.146043 0.471898 0.109939
H13   H     H_    0.506716 0.275853 0.727908 0.115124
H14   H     H_    0.619030 0.997652 0.002948 0.099629
H15   H     H_    0.287095 0.199372 0.876868 0.122056
H16   H     H_    0.813742 0.047148 0.087977 0.127193
H17   H     H_    0.957893 0.231024 0.237944 0.120255
H18   H     H_    0.710633 0.314296 0.232335 0.105750
H19   H     H_    0.568555 0.132775 0.073955 0.101615
H20   H     H_    0.874518 0.484059 0.288950 0.131514
H21   H     H_    0.141473 0.502578 0.608540 0.131825
H22   H     H_    0.306847 0.709749 0.654821 0.133844
H23   H     H_    0.176557 0.803288 0.557506 0.110810
H24   H     H_    0.429945 0.872560 0.837530 0.130850
H25   H     H_    0.353326 0.943731 0.945288 0.098592
H26   H     H_    0.152660 0.850751 0.870149 0.118157
H27   H     H_    0.717868 0.096563 0.423590 0.098756
H28   H     H_    0.027850 0.689250 0.686254 0.112134
H29   H     H_    0.313407 0.508854 0.875526 0.104488
H30   H     H_    0.500350 0.682226 0.014756 0.113382
H31   H     H_    0.475278 0.569422 0.149512 0.151275
H32   H     H_    0.447469 0.399127 0.159123 0.135484
H33   H     H_    0.476633 0.248279 0.160044 0.106884
H34   H     H_    0.826172 0.889417 0.123106 0.113889
H35   H     H_    0.318842 0.067931 0.085579 0.111792
H36   H     H_    0.100277 0.187632 0.000023 0.123787
H37   H     H_    0.259172 0.367526 0.074807 0.115328
H38   H     H_    0.287035 0.377617 0.702639 0.088930
H39   H     H_    0.177892 0.060839 0.171714 0.131595
H40   H     H_    0.854316 0.786823 0.806693 0.123513
H41   H     H_    0.931267 0.713113 0.068396 0.113176
H42   H     H_    0.776552 0.570241 0.055399 0.115386
H43   H     H_    0.587784 0.526360 0.944786 0.156700
H44   H     H_    0.552126 0.625402 0.847118 0.103173
H45   H     H_    0.177942 0.051338 0.307891 0.096770
H46   H     H_    0.704604 0.764851 0.855201 0.102755
H47   H     H_    0.743831 0.939298 0.617494 0.096910
H48   H     H_    0.824751 0.187843 0.366088 0.109864
H49   H     H_    0.175230 0.023693 0.849338 0.108001
H50   H     H_    0.666189 0.652207 0.325177 0.088212
H51   H     H_    0.653425 0.045686 0.836835 0.140348
H52   H     H_    0.693852 0.022091 0.738023 0.099514
H53   H     H_    0.715973 0.936143 0.899296 0.195187
H54   H     H_    0.747306 0.896322 0.793292 0.187735
H55   H     H_    0.891011 0.082220 0.868070 0.268193
H56   H     H_    0.823905 0.620486 0.399709 0.102431
H57   H     H_    0.913100 0.050471 0.976933 0.275475
H58   H     H_    0.854912 0.134912 0.967408 0.271458
H59   H     H_    0.470949 0.360691 0.977319 0.306829
H60   H     H_    0.669228 0.828662 0.154040 0.086620
H61   H     H_    0.329431 0.979732 0.654900 0.113278
H62   H     H_    0.509806 0.574742 0.479982 0.125993
N1    N     N_R   0.941940 0.944580 0.650780 -0.040236
N2    N     N_R   0.204460 0.150250 0.707090 -0.036036
N3    N     N_R   0.794270 0.003240 0.446420 -0.042828
N4    N     N_R   0.204920 0.207570 0.650770 -0.029454
N5    N     N_R   0.793810 0.945920 0.502740 -0.041191
N6    N     N_R   0.943620 0.152590 0.446420 -0.039915
N7    N     N_R   0.055110 0.000900 0.707100 -0.040459
N8    N     N_R   0.795080 0.792430 0.349230 -0.042487
N9    N     N_R   0.206190 0.054080 0.497260 -0.040549
N10   N     N_R   0.056380 0.847410 0.553580 -0.042133
N11   N     N_R   0.944890 0.999100 0.292900 -0.042793
N12   N     N_R   0.058060 0.055420 0.349220 -0.042358
N13   N     N_R   0.943200 0.791100 0.497260 -0.040690
N14   N     N_R   0.795540 0.849750 0.292910 -0.044152
N15   N     N_R   0.205730 0.996760 0.553580 -0.038610
N16   N     N_R   0.056800 0.208900 0.502740 -0.036562
Ni1   Ni    Ni4+2 0.869690 0.869690 0.500000 0.211515
Ni2   Ni    Ni4+2 0.130310 0.130310 0.500000 0.214479
Ni3   Ni    Ni4+2 0.129250 0.998840 0.629170 0.216860
Ni4   Ni    Ni4+2 0.870750 0.001160 0.370830 0.211214
O1    O     O_3   0.556129 0.889386 0.710139 -0.689716
O2    O     O_3   0.472145 0.430063 0.006397 -0.793861

loop_
_geom_bond_atom_site_label_1
_geom_bond_atom_site_label_2
_ccdc_geom_bond_type
C25   C31   A    
C66   C68   A    
C63   C65   A    
C28   N3    A    
C6    C45   A    
C27   C29   A    
C41   C42   A    
C6    C58   S    
C27   H10   S    
C35   C36   A    
C56   N9    A    
C3    C6    A    
C54   C57   S    
C83   H54   S    
C39   C41   A    
C82   O1    S    
N8    N14   A    
C25   H8    S    
C26   C27   A    
C37   C38   A    
N6    N16   A    
C36   H18   S    
C18   C24   A    
C18   H6    S    
N13   Ni1   S    
C22   C24   A    
C36   C37   A    
N16   Ni2   S    
C18   C19   A    
C82   H52   S    
N2    N4    A    
C42   C53   S    
C30   C31   A    
C12   C64   A    
C67   H23   S    
C10   C17   A    
C1    C81   A    
C23   C40   A    
N14   Ni4   S    
C39   H20   S    
C75   H43   S    
C73   C74   A    
C9    C85   A    
N15   Ni3   S    
C78   N11   A    
C66   C72   A    
C83   C84   S    
C68   C69   A    
C70   C71   A    
C45   N8    A    
C32   C38   A    
C4    C12   A    
C29   C30   A    
C47   C53   A    
C16   C23   A    
C48   H24   S    
N9    N15   A    
C59   C60   A    
C13   C14   A    
N6    Ni4   S    
C58   H31   S    
C61   C62   A    
N1    N7    A    
C7    C56   A    
C74   H42   S    
C44   C46   A    
N11   Ni4   S    
C77   C79   A    
C22   C34   S    
C10   H2    S    
C45   H50   S    
C74   C75   A    
C33   H17   S    
C52   H47   S    
C8    C41   S    
C57   H30   S    
C5    C7    A    
C76   H49   S    
C16   H15   S    
C84   H58   S    
C25   C26   A    
N4    Ni2   S    
C64   N6    A    
C82   C83   S    
C28   H27   S    
N12   Ni2   S    
C13   C24   S    
C60   C61   A    
C51   C53   A    
C43   H21   S    
N1    Ni1   S    
C76   C81   A    
C43   C44   A    
C62   C63   A    
C85   H45   S    
C37   H19   S    
C47   C48   A    
C84   H57   S    
C11   H3    S    
C52   N5    A    
C79   H46   S    
C50   C51   A    
C4    N16   A    
C67   N10   A    
C77   H44   S    
C75   C77   A    
C84   H55   S    
C16   N2    A    
C39   C46   A    
C61   C72   S    
C48   C49   A    
C3    H60   S    
C59   H33   S    
C47   H22   S    
C26   H9    S    
N11   N12   A    
N3    N5    A    
C42   C43   A    
C14   O1    S    
C63   H37   S    
C70   H40   S    
C4    H4    S    
C1    H1    S    
C15   C17   A    
C40   H38   S    
C64   H48   S    
C5    H61   S    
C17   H62   S    
C14   C15   A    
C34   C52   A    
C51   H28   S    
C2    C8    A    
N2    Ni3   S    
C38   H14   S    
N5    Ni1   S    
N10   Ni3   S    
C29   H11   S    
C23   C55   S    
N8    Ni1   S    
N10   N13   A    
C30   H13   S    
C7    C19   S    
C5    N15   A    
C19   C20   A    
C78   H34   S    
C9    C68   S    
C71   C72   A    
C12   C44   S    
C32   C33   A    
C15   H5    S    
C11   C13   A    
C54   C55   D    
C57   C58   D    
C69   C80   S    
C56   H12   S    
N9    Ni2   S    
N3    Ni4   S    
C54   H29   S    
C76   N7    A    
C50   H26   S    
C33   C35   A    
C73   C80   A    
C55   O2    S    
C60   H35   S    
C66   H39   S    
C9    C78   A    
C62   H36   S    
C82   H51   S    
C69   C70   A    
C10   C11   A    
C3    N14   A    
C28   C34   A    
C79   C80   A    
C20   C21   A    
C40   N4    A    
C8    C67   A    
C2    N13   A    
C49   C50   A    
H59   O2    S    
C2    H56   S    
C65   H32   S    
C32   H16   S    
N7    Ni3   S    
C1    N1    A    
C85   N12   A    
C21   C22   A    
C35   C46   S    
C20   C31   S    
C83   H53   S    
C59   C65   A    
C73   H41   S    
C49   H25   S    
C71   C81   S    
C21   H7    S    
