data_mof_unit_32949.cif
_audit_creation_date              2012-10-26T19:18:35-0400
_audit_creation_method            fapswitch 2.2
_symmetry_space_group_name_H-M    P1
_symmetry_Int_Tables_number       1
_space_group_crystal_system       triclinic
_cell_length_a                    9.688493
_cell_length_b                    10.955397
_cell_length_c                    15.447294
_cell_angle_alpha                 89.81937
_cell_angle_beta                  73.917529
_cell_angle_gamma                 90.04228
_cell_volume                      1575.41832691

loop_
_atom_site_label
_atom_site_type_symbol
_atom_type_description
_atom_site_fract_x
_atom_site_fract_y
_atom_site_fract_z
_atom_type_partial_charge
C1    C     C_R   0.000789 0.265463 0.497865 0.581658
C2    C     C_R   0.221042 0.485069 0.038783 0.016030
C3    C     C_R   0.318068 0.522753 0.087818 -0.061417
C4    C     C_R   0.916949 0.502855 0.672346 0.569793
C5    C     C_R   0.075244 0.461006 0.084372 0.278678
C6    C     C_R   0.028371 0.470457 0.178894 0.345250
C7    C     C_R   0.270487 0.518285 0.182284 -0.145008
C8    C     C_2   0.880390 0.934980 0.514196 0.265473
C9    C     C_2   0.994499 0.865913 0.515423 -0.031603
C10   C     C_2   0.887286 0.067517 0.527296 0.381937
C11   C     C_2   0.004628 0.133546 0.486310 0.209364
C12   C     C_R   0.665215 0.537157 0.904560 0.005469
C13   C     C_2   0.395516 0.435242 0.557052 0.371440
C14   C     C_2   0.555291 0.428296 0.551555 0.471406
C15   C     C_R   0.998450 0.734586 0.503264 0.559662
C16   C     C_R   0.082872 0.498488 0.327437 0.559131
C17   C     C_R   0.870144 0.521399 0.770375 0.013208
C18   C     C_R   0.126845 0.496326 0.228046 -0.024312
C19   C     C_R   0.902287 0.612573 0.905887 -0.013080
C20   C     C_R   0.958860 0.578027 0.816300 0.442728
C21   C     C_R   0.726855 0.496320 0.815986 -0.159060
C22   C     C_R   0.756209 0.593908 0.949917 -0.033567
C23   C     C_R   0.516074 0.523881 0.948680 -0.051429
C24   C     C_R   0.462768 0.555014 0.041316 0.072049
C25   C     C_R   0.554007 0.621364 0.082810 0.266872
C26   C     C_R   0.699905 0.636531 0.037330 -0.094499
C27   C     C_R   0.417462 0.485378 0.901958 -0.083816
C28   C     C_R   0.272909 0.469392 0.945308 0.439056
Cu1   Cu    Cu3+1 0.138640 0.500020 0.499980 1.090197
Cu2   Cu    Cu3+1 0.861360 0.499980 0.500020 1.153275
F1    F     F_    0.768329 0.122426 0.581205 -0.574654
F2    F     F_    0.597866 0.344925 0.604134 -0.563969
F3    F     F_    0.888398 0.448118 0.222793 -0.628545
F4    F     F_    0.185986 0.432907 0.894791 -0.538308
F5    F     F_    0.097926 0.605199 0.773832 -0.568169
H1    H     H_    0.769410 0.685259 0.069705 0.119060
H2    H     H_    0.686526 0.948210 0.502516 0.370600
H3    H     H_    0.193833 0.142575 0.399893 0.348195
H4    H     H_    0.347805 0.329923 0.662744 0.371477
H5    H     H_    0.574657 0.723971 0.181986 0.339761
H6    H     H_    0.088434 0.906810 0.529113 0.130382
H7    H     H_    0.417853 0.541751 0.448100 0.168053
H8    H     H_    0.620869 0.567268 0.465427 0.172335
H9    H     H_    0.346019 0.525803 0.221743 0.217570
H10   H     H_    0.971955 0.657427 0.940109 0.161120
H11   H     H_    0.665433 0.445400 0.779976 0.172957
H12   H     H_    0.447493 0.471244 0.830192 0.167355
H13   H     H_    0.884140 0.413226 0.076570 0.371716
N1    N     N_2   0.346430 0.498660 0.500980 -0.322441
N2    N     N_2   0.652550 0.498630 0.501000 -0.322313
O1    O     O_R   0.117050 0.321960 0.499980 -0.489638
O2    O     O_3   0.755841 0.882340 0.504281 -0.652300
O3    O     O_3   0.122786 0.078682 0.427840 -0.749309
O4    O     O_3   0.297349 0.369703 0.622623 -0.581744
O5    O     O_3   0.497042 0.681795 0.163244 -0.701500
O6    O     O_R   0.882890 0.321920 0.500020 -0.404401
O7    O     O_R   0.052910 0.500040 0.629810 -0.386759
O8    O     O_R   0.818750 0.499990 0.629840 -0.481623
O9    O     O_R   0.117110 0.678080 0.499980 -0.503801
O10   O     O_R   0.882950 0.678040 0.500020 -0.450127
O11   O     O_R   0.181250 0.500010 0.370160 -0.534690
O12   O     O_R   0.947090 0.499960 0.370190 -0.434996
O13   O     O_3   0.981572 0.426413 0.035636 -0.616179

loop_
_geom_bond_atom_site_label_1
_geom_bond_atom_site_label_2
_ccdc_geom_bond_type
C4    O7    A    
C23   C24   A    
C19   H10   S    
H8    N2    S    
C4    O8    A    
Cu1   Cu2   S    
C10   F1    S    
C23   C27   A    
C15   O10   A    
C8    O2    S    
C9    H6    S    
C19   C20   A    
C11   O3    S    
C6    F3    S    
C7    C18   A    
C19   C22   A    
C2    C3    A    
Cu2   N2    S    
C28   F4    S    
Cu1   N1    S    
C7    H9    S    
C1    O1    A    
C12   C23   A    
C3    C24   A    
C14   N2    D    
H3    O3    S    
C16   O12   A    
C13   N1    D    
C4    C17   S    
Cu2   O8    S    
C26   H1    S    
C1    O6    A    
Cu1   O7    S    
C21   H11   S    
C3    C7    A    
C25   O5    S    
Cu2   O12   S    
C9    C15   S    
C5    C6    A    
C6    C18   A    
Cu1   O11   S    
C2    C5    A    
C10   C11   D    
H7    N1    S    
C22   C26   A    
H4    O4    S    
C12   C22   A    
C17   C20   A    
C24   C25   A    
C5    O13   S    
C16   C18   S    
C13   O4    S    
Cu1   O1    S    
H5    O5    S    
C27   H12   S    
C27   C28   A    
H2    O2    S    
H13   O13   S    
C2    C28   A    
C1    C11   S    
C16   O11   A    
C25   C26   A    
C13   C14   S    
C20   F5    S    
Cu2   O6    S    
C12   C21   A    
C8    C10   S    
C17   C21   A    
Cu1   O9    S    
C14   F2    S    
C8    C9    D    
C15   O9    A    
Cu2   O10   S    
