data_mof_unit_8376.cif
_audit_creation_date              2012-12-10T19:10:05-0500
_audit_creation_method            fapswitch 2.2
_symmetry_space_group_name_H-M    P1
_symmetry_Int_Tables_number       1
_space_group_crystal_system       triclinic
_cell_length_a                    11.06288
_cell_length_b                    10.950456
_cell_length_c                    9.687183
_cell_angle_alpha                 92.246538
_cell_angle_beta                  91.744316
_cell_angle_gamma                 90.468725
_cell_volume                      1172.04305353

loop_
_atom_site_label
_atom_site_type_symbol
_atom_type_description
_atom_site_fract_x
_atom_site_fract_y
_atom_site_fract_z
_atom_type_partial_charge
C1    C     C_R   0.489019 0.263236 0.497786 0.803981
C2    C     C_R   0.206767 0.541643 0.974624 -0.175954
C3    C     C_R   0.931431 0.517791 0.382498 -0.204421
C4    C     C_R   0.873438 0.489090 0.504299 -0.045057
C5    C     C_R   0.948514 0.455417 0.618931 0.045710
C6    C     C_R   0.073518 0.461066 0.610553 -0.183871
C7    C     C_R   0.129756 0.492822 0.491582 -0.080551
C8    C     C_R   0.057501 0.516063 0.373294 0.008192
C9    C     C_R   0.900995 0.520909 0.859116 -0.008328
C10   C     C_R   0.876991 0.490916 0.994833 -0.218878
C11   C     C_R   0.871333 0.370411 0.033661 -0.195397
C12   C     C_R   0.262959 0.498612 0.497173 0.757976
C13   C     C_R   0.903493 0.276799 0.940838 0.300858
C14   C     C_R   0.924871 0.302722 0.802296 0.231109
C15   C     C_R   0.909377 0.424853 0.757288 -0.027839
C16   C     C_R   0.467962 0.068407 0.620020 0.024406
C17   C     C_R   0.466288 0.130420 0.496572 -0.068591
C18   C     C_R   0.440480 0.060278 0.374596 -0.241854
C19   C     C_R   0.439902 0.930905 0.374523 0.163945
C20   C     C_R   0.472725 0.870634 0.498314 -0.066935
C21   C     C_R   0.479560 0.943368 0.619170 0.005215
C22   C     C_3   0.558219 0.946988 0.747130 -0.282979
C23   C     C_R   0.493016 0.737390 0.500746 0.855841
C24   C     C_3   0.540471 0.085040 0.752343 -0.262092
C25   C     C_R   0.517751 0.605515 0.080105 0.246374
C26   C     C_R   0.470871 0.398068 0.064465 0.229348
C27   C     C_R   0.469624 0.399696 0.918606 0.016117
C28   C     C_R   0.518507 0.605534 0.933246 0.166378
C29   C     C_3   0.631673 0.679325 0.943340 -0.439381
C30   C     C_3   0.627242 0.682774 0.098605 -0.416652
C31   C     C_R   0.738110 0.495359 0.502228 0.815078
C32   C     C_R   0.188920 0.647977 0.055853 -0.126471
C33   C     C_R   0.138392 0.640881 0.185789 -0.099283
C34   C     C_R   0.109302 0.526707 0.236370 0.084123
C35   C     C_R   0.130018 0.420073 0.156358 -0.135546
C36   C     C_R   0.176234 0.426668 0.024087 0.200126
Cu1   Cu    Cu3+1 0.499990 0.499980 0.640670 0.970255
Cu2   Cu    Cu3+1 0.500010 0.500020 0.359330 0.957783
H1    H     H_    0.243190 0.549528 0.873173 0.150537
H2    H     H_    0.853656 0.350598 0.139828 0.139441
H3    H     H_    0.422775 0.104493 0.279151 0.148837
H4    H     H_    0.510736 0.905474 0.832910 0.117261
H5    H     H_    0.483346 0.114729 0.839768 0.130495
H6    H     H_    0.212284 0.736130 0.016905 0.145867
H7    H     H_    0.444210 0.317975 0.859282 0.147993
H8    H     H_    0.705777 0.628319 0.898306 0.223241
H9    H     H_    0.621042 0.769675 0.905282 0.200361
H10   H     H_    0.702035 0.635601 0.151939 0.205638
H11   H     H_    0.607760 0.775045 0.143536 0.230370
H12   H     H_    0.122391 0.723678 0.247034 0.128537
H13   H     H_    0.106860 0.331799 0.195506 0.111653
H14   H     H_    0.877962 0.541750 0.293283 0.145456
H15   H     H_    0.127830 0.439915 0.700434 0.161051
H16   H     H_    0.869517 0.562518 0.072731 0.170436
N1    N     N_R   0.500790 0.500930 0.147930 -0.205410
N2    N     N_R   0.500790 0.500890 0.852020 -0.209312
O1    O     O_R   0.500000 0.319640 0.618810 -0.590992
O2    O     O_R   0.500010 0.319680 0.381230 -0.606220
O3    O     O_R   0.319640 0.499990 0.618790 -0.611629
O4    O     O_R   0.319650 0.500030 0.381210 -0.584588
O5    O     O_R   0.499990 0.680320 0.618770 -0.581185
O6    O     O_R   0.500000 0.680360 0.381190 -0.557378
O7    O     O_R   0.680350 0.499970 0.618790 -0.549122
O8    O     O_R   0.680360 0.500010 0.381210 -0.592319
N3    N     N_3   0.916851 0.155018 0.987464 -0.557853
H17   H     H_    0.835128 0.128526 0.029339 0.253938
H18   H     H_    0.983022 0.156702 0.066912 0.209020
N4    N     N_3   0.976679 0.207855 0.715278 -0.577841
H19   H     H_    0.925575 0.127808 0.721608 0.269621
H20   H     H_    0.972690 0.229080 0.611218 0.205437
N5    N     N_3   0.408307 0.862216 0.249061 -0.584564
H21   H     H_    0.325467 0.819185 0.264143 0.211261
H22   H     H_    0.394523 0.920076 0.166802 0.205058
C37   C     C_2   0.688905 0.909896 0.729163 0.909760
O9    O     O_2   0.721886 0.858568 0.622623 -0.569733
O10   O     O_R   0.772489 0.938968 0.836669 -0.757797
H23   H     H_    0.858800 0.922964 0.810358 0.350892
C38   C     C_2   0.650297 0.164287 0.737816 0.939771
O11   O     O_2   0.672258 0.245487 0.824687 -0.617495
O12   O     O_R   0.716086 0.155010 0.616843 -0.772612
H24   H     H_    0.761241 0.233087 0.598677 0.301806
N6    N     N_3   0.440891 0.283963 0.118875 -0.647612
H25   H     H_    0.371904 0.296072 0.189163 0.246001
H26   H     H_    0.520123 0.245555 0.158281 0.258088
N7    N     N_3   0.184730 0.316835 0.939098 -0.592099
H27   H     H_    0.233416 0.333112 0.851096 0.209388
H28   H     H_    0.232920 0.251985 0.993858 0.222883
C39   C     C_2   0.928199 0.652604 0.832309 0.825775
O13   O     O_2   0.939256 0.726989 0.929557 -0.605771
O14   O     O_R   0.942786 0.692457 0.698448 -0.740221
H29   H     H_    0.971638 0.780325 0.696172 0.333142

loop_
_geom_bond_atom_site_label_1
_geom_bond_atom_site_label_2
_ccdc_geom_bond_type
C16   C21   A    
C19   N5    S    
C35   C36   A    
C26   N1    A    
C28   N2    A    
C7    C8    A    
C13   N3    S    
N7    H27   S    
C25   C28   A    
C26   C27   A    
Cu1   Cu2   S    
C37   O10   S    
C29   H9    S    
C30   H10   S    
C28   C29   S    
C18   C19   A    
C9    C39   S    
C5    C6    A    
C38   O12   S    
C2    C32   A    
C34   C35   A    
Cu2   O2    S    
Cu1   N2    S    
C2    H1    S    
C23   O6    A    
Cu2   N1    S    
C19   C20   A    
N4    H19   S    
N3    H18   S    
C22   H4    S    
C9    C10   A    
C27   H7    S    
C16   C24   S    
C13   C14   A    
C12   O3    A    
C26   N6    S    
Cu1   O7    S    
C33   C34   A    
Cu2   O8    S    
N7    H28   S    
C7    C12   S    
C37   O9    D    
C31   O7    A    
O10   H23   S    
C3    C8    A    
C18   H3    S    
N5    H22   S    
C38   O11   D    
O12   H24   S    
C33   H12   S    
C29   C30   S    
C1    O1    A    
C20   C23   S    
C17   C18   A    
C32   H6    S    
C8    C34   S    
C39   O13   D    
Cu1   O3    S    
Cu2   O4    S    
C24   C38   S    
C30   H11   S    
C39   O14   S    
N6    H25   S    
N6    H26   S    
C35   H13   S    
C22   C24   S    
C22   C37   S    
C6    H15   S    
C3    C4    A    
C2    C36   A    
C25   C30   S    
C27   N2    A    
C31   O8    A    
C25   N1    A    
C4    C5    A    
Cu1   O5    S    
C3    H14   S    
C6    C7    A    
C36   N7    S    
C1    C17   S    
C29   H8    S    
C32   C33   A    
C9    C15   A    
N5    H21   S    
C1    O2    A    
C11   C13   A    
O14   H29   S    
C16   C17   A    
C11   H2    S    
C10   H16   S    
C5    C15   S    
C4    C31   S    
C10   C11   A    
C12   O4    A    
C23   O5    A    
C20   C21   A    
N4    H20   S    
N3    H17   S    
C24   H5    S    
C14   N4    S    
C14   C15   A    
C21   C22   S    
Cu1   O1    S    
Cu2   O6    S    
