data_mof_unit_44296.cif
_audit_creation_date              2012-12-11T17:34:20-0500
_audit_creation_method            fapswitch 2.2
_symmetry_space_group_name_H-M    P1
_symmetry_Int_Tables_number       1
_space_group_crystal_system       triclinic
_cell_length_a                    23.789807
_cell_length_b                    7.222629
_cell_length_c                    20.628294
_cell_angle_alpha                 90.000568
_cell_angle_beta                  105.394299
_cell_angle_gamma                 90.000134
_cell_volume                      3417.28697758

loop_
_atom_site_label
_atom_site_type_symbol
_atom_type_description
_atom_site_fract_x
_atom_site_fract_y
_atom_site_fract_z
_atom_type_partial_charge
O1    O     O_R   0.449110 0.494310 0.552140 -0.537567
O2    O     O_R   0.550890 0.994310 0.447860 -0.537567
O3    O     O_R   0.440010 0.824420 0.415850 -0.533580
O4    O     O_R   0.559990 0.324420 0.584150 -0.533581
C1    C     C_R   0.425319 0.655703 0.390975 0.682863
C2    C     C_R   0.574681 0.155705 0.609025 0.682862
O5    O     O_R   0.442260 0.824040 0.549660 -0.540369
O6    O     O_R   0.557740 0.324040 0.450340 -0.540369
O7    O     O_R   0.553160 0.993960 0.582620 -0.531080
O8    O     O_R   0.446840 0.493960 0.417380 -0.531080
C3    C     C_R   0.428629 0.655521 0.567627 0.678604
C4    C     C_R   0.571371 0.155520 0.432372 0.678605
O9    O     O_3   0.536380 0.660670 0.510660 -0.372788
O10   O     O_3   0.463620 0.160670 0.489340 -0.372788
V1    V     V_3+5 0.493250 0.935680 0.498020 1.409843
V2    V     V_3+5 0.506750 0.435680 0.501980 1.409844
C5    C     C_R   0.801243 0.943087 0.143769 -0.153017
C6    C     C_R   0.198753 0.443075 0.856225 -0.153023
H1    H     H_    0.766972 0.841349 0.139509 0.147922
H2    H     H_    0.233021 0.341329 0.860480 0.147922
C7    C     C_R   0.839756 0.927078 0.102825 0.247277
C8    C     C_R   0.160240 0.427065 0.897169 0.247273
C9    C     C_R   0.884843 0.059446 0.107742 -0.105356
C10   C     C_R   0.115157 0.559445 0.892257 -0.105363
C11   C     C_R   0.888759 0.207262 0.153435 -0.174610
C12   C     C_R   0.111245 0.707273 0.846570 -0.174594
H3    H     H_    0.922485 0.311250 0.158662 0.137712
H4    H     H_    0.077522 0.811270 0.841348 0.137723
C13   C     C_R   0.850002 0.221905 0.193818 -0.120079
C14   C     C_R   0.150002 0.721917 0.806187 -0.120074
H5    H     H_    0.854383 0.336514 0.228695 0.121895
H6    H     H_    0.145623 0.836537 0.771315 0.121897
C15   C     C_R   0.806225 0.089545 0.189461 0.071131
C16   C     C_R   0.193775 0.589546 0.810539 0.071132
C17   C     C_1   0.766327 0.103975 0.231660 -0.032945
C18   C     C_1   0.233673 0.603977 0.768339 -0.032945
C19   C     C_1   0.732957 0.114850 0.266922 -0.057986
C20   C     C_1   0.267042 0.614853 0.733078 -0.057986
C21   C     C_R   0.670234 0.963867 0.329646 -0.137895
C22   C     C_R   0.329767 0.463870 0.670355 -0.137895
H7    H     H_    0.682626 0.829605 0.314470 0.107569
H8    H     H_    0.317377 0.329610 0.685533 0.107569
C23   C     C_R   0.631167 0.973478 0.369861 -0.168292
C24   C     C_R   0.368835 0.473481 0.630141 -0.168292
H9    H     H_    0.614429 0.845277 0.384586 0.124615
H10   H     H_    0.385574 0.345281 0.615417 0.124617
C25   C     C_R   0.613870 0.145828 0.390428 -0.052084
C26   C     C_R   0.386130 0.645830 0.609571 -0.052084
C27   C     C_R   0.637144 0.308087 0.369617 -0.167895
C28   C     C_R   0.362854 0.808087 0.630381 -0.167897
H11   H     H_    0.625023 0.443302 0.384134 0.122413
H12   H     H_    0.374974 0.943302 0.615862 0.122414
C29   C     C_R   0.676240 0.297978 0.329328 -0.134798
C30   C     C_R   0.323758 0.797979 0.670669 -0.134797
H13   H     H_    0.693333 0.424714 0.313859 0.108186
H14   H     H_    0.306664 0.924714 0.686137 0.108187
C31   C     C_R   0.692911 0.125862 0.309032 0.129279
C32   C     C_R   0.307088 0.625865 0.690967 0.129278
C33   C     C_R   0.642106 0.187914 0.795655 -0.145040
C34   C     C_R   0.357898 0.687842 0.204343 -0.145039
H15   H     H_    0.556026 0.216666 0.730120 0.108193
H16   H     H_    0.443978 0.716591 0.269878 0.108191
H17   H     H_    0.726372 0.183578 0.909284 0.145599
H18   H     H_    0.273633 0.683476 0.090712 0.145597
H19   H     H_    0.627355 0.217119 0.839998 0.121936
H20   H     H_    0.372650 0.717014 0.159999 0.121935
C35   C     C_R   0.618551 0.149247 0.674884 -0.035928
C36   C     C_R   0.381449 0.649237 0.325116 -0.035924
C37   C     C_R   0.902035 0.017645 0.768043 -0.160848
C38   C     C_R   0.097962 0.517697 0.231959 -0.160852
C39   C     C_R   0.863706 0.014977 0.704131 -0.118341
C40   C     C_R   0.136291 0.515046 0.295870 -0.118340
C41   C     C_R   0.804370 0.047187 0.695149 -0.152947
C42   C     C_R   0.195628 0.547237 0.304852 -0.152949
C43   C     C_R   0.781504 0.083606 0.750549 0.076760
C44   C     C_R   0.218495 0.583617 0.249451 0.076760
C45   C     C_R   0.821396 0.087807 0.816306 0.057929
C46   C     C_R   0.178605 0.587796 0.183694 0.057927
C47   C     C_R   0.720489 0.115718 0.742864 0.072972
C48   C     C_R   0.279511 0.615711 0.257136 0.072973
C49   C     C_R   0.701253 0.152927 0.801176 0.121714
C50   C     C_R   0.298749 0.652877 0.198822 0.121715
C51   C     C_R   0.741036 0.155815 0.864768 -0.160563
C52   C     C_R   0.258967 0.655745 0.135230 -0.160568
C53   C     C_R   0.800022 0.123430 0.872329 -0.149351
C54   C     C_R   0.199980 0.623379 0.127669 -0.149353
C55   C     C_R   0.677671 0.113125 0.679596 -0.208607
C56   C     C_R   0.322328 0.613139 0.320405 -0.208607
C57   C     C_R   0.601314 0.187305 0.733122 -0.162368
C58   C     C_R   0.398689 0.687251 0.266876 -0.162370
C59   C     C_R   0.881906 0.054339 0.824526 -0.074266
C60   C     C_R   0.118093 0.554349 0.175474 -0.074263
H21   H     H_    0.688739 0.085898 0.633123 0.093606
H22   H     H_    0.311259 0.585944 0.366878 0.093603
H23   H     H_    0.947878 0.990538 0.773545 0.100848
H24   H     H_    0.052118 0.490607 0.226457 0.100847
H25   H     H_    0.777577 0.042396 0.644119 0.107975
H26   H     H_    0.222419 0.542464 0.355883 0.107976
H27   H     H_    0.880136 0.986806 0.660956 0.118930
H28   H     H_    0.119859 0.486907 0.339047 0.118930
H29   H     H_    0.828883 0.126914 0.922694 0.130528
H30   H     H_    0.171120 0.626846 0.077304 0.130524
O11   O     O_R   0.053190 0.709680 0.082610 -0.536528
O12   O     O_R   0.946810 0.209680 0.917390 -0.536529
O13   O     O_R   0.057740 0.380240 0.950340 -0.512153
O14   O     O_R   0.942260 0.880240 0.049660 -0.512155
C61   C     C_R   0.072107 0.548817 0.933415 0.705066
C62   C     C_R   0.927893 0.048817 0.066584 0.705070
O15   O     O_R   0.060000 0.379940 0.084150 -0.529556
O16   O     O_R   0.940000 0.879940 0.915850 -0.529555
O17   O     O_R   0.949110 0.210100 0.052140 -0.538456
O18   O     O_R   0.050890 0.710100 0.947860 -0.538454
C63   C     C_R   0.074764 0.548271 0.108984 0.670044
C64   C     C_R   0.925235 0.048269 0.891015 0.670048
O19   O     O_3   0.963630 0.543720 0.989330 -0.359461
O20   O     O_3   0.036370 0.043720 0.010670 -0.359459
V3    V     V_3+5 0.006750 0.268680 0.001980 1.509703
V4    V     V_3+5 0.993250 0.768680 0.998020 1.509708
Br1   Br    Br    0.825503 0.727668 0.038830 -0.566368
Br2   Br    Br    0.174489 0.227635 0.961155 -0.566368

loop_
_geom_bond_atom_site_label_1
_geom_bond_atom_site_label_2
_ccdc_geom_bond_type
O18   V4    S    
C61   O18   A    
C55   H21   S    
O1    C3    A    
O2    C4    A    
O16   V4    S    
C2    O7    A    
C47   C55   A    
O15   V3    S    
C25   C27   A    
C41   H25   S    
O13   C61   A    
C28   C30   A    
C42   C44   A    
C17   C19   T    
C44   C46   A    
C4    C25   S    
C40   H28   S    
C8    Br2   S    
C21   C31   A    
C13   C15   A    
C35   C57   A    
O20   V3    S    
C33   C57   A    
C37   C39   A    
H18   C52   S    
C53   H29   S    
C5    H1    S    
C20   C32   S    
C34   C50   A    
H15   C57   S    
C27   H11   S    
C36   C58   A    
C23   C25   A    
C60   C63   S    
O16   C64   A    
C16   C18   S    
O15   C63   A    
C46   C54   A    
C26   C28   A    
C34   H20   S    
O6    V2    S    
O14   V4    S    
C41   C43   A    
O13   V3    S    
C3    C26   S    
C5    C15   A    
C1    C36   S    
C49   C51   A    
C24   H10   S    
O5    C3    A    
C56   H22   S    
C29   H13   S    
C11   C13   A    
C30   H14   S    
C22   C32   A    
C14   C16   A    
C44   C48   A    
C40   C42   A    
C39   C41   A    
C29   C31   A    
C21   C23   A    
O5    V1    S    
O3    C1    A    
C39   H27   S    
C5    C7    A    
H17   C51   S    
O4    V2    S    
C38   H24   S    
C43   C45   A    
C28   H12   S    
O6    C4    A    
O19   V4    S    
C10   C61   S    
O2    V1    S    
C6    C16   A    
O12   C64   A    
C48   C50   A    
C2    C35   S    
C51   C53   A    
C12   C14   A    
C50   C52   A    
C7    C9    A    
C36   C56   A    
C8    C10   A    
O4    C2    A    
C54   H30   S    
O3    V1    S    
C47   C49   A    
O12   V3    S    
C30   C32   A    
C45   C59   A    
C42   H26   S    
O11   C63   A    
C6    C8    A    
C35   C55   A    
C38   C60   A    
C33   C49   A    
C10   C12   A    
C37   H23   S    
C7    Br1   S    
C59   C64   S    
C34   C58   A    
C11   H3    S    
O1    V2    S    
C12   H4    S    
C62   O17   A    
O17   V3    S    
C46   C60   A    
C18   C20   T    
O7    V1    S    
C1    O8    A    
C48   C56   A    
O8    V2    S    
C33   H19   S    
C14   H6    S    
O14   C62   A    
C27   C29   A    
C9    C62   S    
H16   C58   S    
C22   H8    S    
C15   C17   S    
C6    H2    S    
C9    C11   A    
C45   C53   A    
O11   V4    S    
C22   C24   A    
C21   H7    S    
C13   H5    S    
O9    V2    S    
O10   V1    S    
C52   C54   A    
C38   C40   A    
C37   C59   A    
C43   C47   A    
C23   H9    S    
C19   C31   S    
C24   C26   A    
