data_mof_unit_7029.cif
_audit_creation_date              2012-12-10T19:06:25-0500
_audit_creation_method            fapswitch 2.2
_symmetry_space_group_name_H-M    P1
_symmetry_Int_Tables_number       1
_space_group_crystal_system       triclinic
_cell_length_a                    23.539684
_cell_length_b                    10.8226
_cell_length_c                    9.52528
_cell_angle_alpha                 89.896822
_cell_angle_beta                  90.246857
_cell_angle_gamma                 90.230171
_cell_volume                      2426.61993288

loop_
_atom_site_label
_atom_site_type_symbol
_atom_type_description
_atom_site_fract_x
_atom_site_fract_y
_atom_site_fract_z
_atom_type_partial_charge
C1    C     C_R   0.500926 0.262239 0.500062 0.805319
C2    C     C_R   0.969992 0.283409 0.430413 -0.148870
C3    C     C_R   0.029260 0.283535 0.431954 -0.156540
C4    C     C_R   0.059559 0.389915 0.472226 -0.021395
C5    C     C_R   0.029712 0.496775 0.511871 -0.012616
C6    C     C_R   0.059674 0.603889 0.552617 -0.017872
C7    C     C_R   0.029478 0.709988 0.591854 -0.156128
C8    C     C_R   0.970210 0.709883 0.590274 -0.150298
C9    C     C_R   0.119141 0.392560 0.473438 0.545090
C10   C     C_R   0.119262 0.602258 0.551828 0.536828
C11   C     C_R   0.236450 0.495215 0.378931 -0.215360
C12   C     C_R   0.390774 0.500093 0.499593 0.830544
C13   C     C_R   0.296111 0.498731 0.372569 0.416550
C14   C     C_R   0.327883 0.500833 0.499331 -0.127063
C15   C     C_R   0.299036 0.505245 0.628372 -0.298377
C16   C     C_R   0.239942 0.505293 0.632540 -0.101384
C17   C     C_R   0.208516 0.499567 0.508030 0.309722
C18   C     C_R   0.760828 0.495802 0.631441 0.683001
C19   C     C_R   0.701613 0.496355 0.629723 -0.288686
C20   C     C_R   0.671735 0.498027 0.501592 -0.129664
C21   C     C_R   0.702292 0.497696 0.375137 -0.203629
C22   C     C_R   0.761529 0.497061 0.376957 -0.179620
C23   C     C_R   0.500948 0.737734 0.499855 0.799531
C24   C     C_R   0.790974 0.496556 0.504967 0.232929
C25   C     C_R   0.507820 0.063278 0.625888 0.142462
C26   C     C_R   0.506444 0.129182 0.499825 -0.095667
C27   C     C_R   0.513061 0.064714 0.372901 -0.203984
C28   C     C_R   0.513019 0.935943 0.372750 -0.209675
C29   C     C_R   0.506434 0.870818 0.499526 -0.095092
C30   C     C_R   0.507779 0.936106 0.625703 0.125739
C31   C     C_3   0.469060 0.928799 0.749326 -0.461016
C32   C     C_3   0.469185 0.069088 0.749716 -0.478210
C33   C     C_R   0.519849 0.600175 0.073647 0.229608
C34   C     C_R   0.609119 0.499484 0.500312 0.837819
C35   C     C_R   0.474678 0.407426 0.074396 -0.047114
C36   C     C_R   0.474590 0.407548 0.925406 -0.090685
C37   C     C_R   0.519824 0.600154 0.926212 0.246641
C38   C     C_3   0.578132 0.653956 0.920534 -0.476978
C39   C     C_3   0.578194 0.653941 0.079939 -0.482068
C40   C     C_R   0.880335 0.601549 0.546409 0.609256
C41   C     C_R   0.880215 0.391834 0.468079 0.569911
C42   C     C_R   0.939799 0.389650 0.469148 -0.021465
C43   C     C_R   0.969760 0.496659 0.510289 -0.015713
C44   C     C_R   0.939913 0.603662 0.549476 -0.030265
Cu1   Cu    Cu3+1 0.500000 0.499980 0.640670 0.942933
Cu2   Cu    Cu3+1 0.500000 0.500020 0.359330 0.962029
H1    H     H_    0.947959 0.199924 0.398591 0.192888
H2    H     H_    0.679315 0.495010 0.728746 0.175204
H3    H     H_    0.680567 0.497728 0.274865 0.171097
H4    H     H_    0.784639 0.497340 0.278902 0.183619
H5    H     H_    0.515462 0.113029 0.273400 0.163348
H6    H     H_    0.515287 0.888143 0.273180 0.158138
H7    H     H_    0.426953 0.887858 0.722835 0.203529
H8    H     H_    0.490307 0.888216 0.842982 0.193011
H9    H     H_    0.427130 0.109883 0.723758 0.200268
H10   H     H_    0.490679 0.108998 0.843464 0.195674
H11   H     H_    0.454888 0.331613 0.130061 0.152009
H12   H     H_    0.051213 0.200167 0.401167 0.191089
H13   H     H_    0.454602 0.332072 0.869595 0.141393
H14   H     H_    0.609638 0.589366 0.875427 0.218302
H15   H     H_    0.578439 0.748305 0.874286 0.195370
H16   H     H_    0.609750 0.589357 0.125808 0.216346
H17   H     H_    0.578582 0.748332 0.125622 0.191492
H18   H     H_    0.051510 0.793512 0.623549 0.191236
H19   H     H_    0.948257 0.793296 0.620903 0.193323
H20   H     H_    0.211463 0.488330 0.283605 0.143733
H21   H     H_    0.322148 0.508432 0.726797 0.179657
H22   H     H_    0.218488 0.508449 0.732810 0.152791
N1    N     N_R   0.851871 0.496673 0.506377 -0.451022
N2    N     N_R   0.147631 0.497810 0.512179 -0.458638
N3    N     N_R   0.500360 0.500930 0.147930 -0.185665
N4    N     N_R   0.500360 0.500890 0.852020 -0.181017
O1    O     O_R   0.500000 0.319640 0.618810 -0.583071
O2    O     O_2   0.850778 0.289936 0.429993 -0.518076
O3    O     O_2   0.148439 0.290789 0.436637 -0.527971
O4    O     O_2   0.148659 0.704548 0.588742 -0.536530
O5    O     O_R   0.500010 0.319680 0.381230 -0.591603
O6    O     O_R   0.417880 0.499940 0.618820 -0.594733
O7    O     O_R   0.417880 0.499980 0.381240 -0.523540
O8    O     O_R   0.499990 0.680320 0.618770 -0.580455
O9    O     O_R   0.500000 0.680360 0.381190 -0.589346
O10   O     O_R   0.582120 0.500020 0.618760 -0.582556
O11   O     O_R   0.582120 0.500060 0.381180 -0.584007
O12   O     O_2   0.851019 0.703546 0.582307 -0.508397
O13   O     O_3   0.323741 0.490252 0.244519 -0.562915
C45   C     C_3   0.307421 0.588423 0.154999 0.074769
H23   H     H_    0.303903 0.677815 0.212530 0.139995
H24   H     H_    0.266212 0.566562 0.103119 0.146725
C46   C     C_3   0.351949 0.604700 0.041142 -0.759071
H25   H     H_    0.357314 0.516949 0.982547 0.242858
H26   H     H_    0.338497 0.678081 0.966602 0.196957
H27   H     H_    0.393193 0.631822 0.089137 0.246347
F1    F     F_    0.788949 0.493665 0.756074 -0.643033

loop_
_geom_bond_atom_site_label_1
_geom_bond_atom_site_label_2
_ccdc_geom_bond_type
C1    O5    A    
C41   C42   A    
C40   O12   S    
C19   C20   A    
C36   H13   S    
C21   H3    S    
C7    C8    A    
O13   C45   S    
C26   C27   A    
C29   C30   A    
C18   C24   A    
C5    C6    A    
C23   C29   S    
C28   C29   A    
C30   C31   S    
C45   H24   S    
C15   C16   A    
C12   O7    A    
Cu1   O1    S    
C18   C19   A    
C41   O2    S    
C10   O4    S    
Cu2   O7    S    
Cu1   O10   S    
C16   C17   A    
C12   O6    A    
Cu1   O6    S    
C16   H22   S    
C9    O3    S    
C23   O8    A    
C46   H26   S    
C32   H9    S    
C11   H20   S    
C22   H4    S    
C38   H15   S    
C20   C34   S    
C25   C32   S    
C5    C43   A    
C35   N3    A    
C8    H19   S    
C21   C22   A    
Cu1   N4    S    
C27   H5    S    
C24   N1    S    
C40   N1    A    
C9    N2    A    
C45   H23   S    
C25   C26   A    
Cu1   Cu2   S    
C33   C37   A    
C35   C36   A    
C43   C44   A    
C37   C38   S    
Cu2   O9    S    
C31   C32   S    
C40   C44   A    
C15   H21   S    
C33   C39   S    
C31   H7    S    
C46   H27   S    
Cu2   N3    S    
C38   H14   S    
C10   N2    A    
C12   C14   S    
C1    C26   S    
C22   C24   A    
C34   O11   A    
C3    C4    A    
C41   N1    A    
C25   C30   A    
C39   H16   S    
C11   C17   A    
C23   O9    A    
C19   H2    S    
C8    C44   A    
C4    C5    A    
C45   C46   S    
C6    C10   A    
Cu2   O5    S    
C6    C7    A    
C28   H6    S    
C2    H1    S    
C39   H17   S    
C35   H11   S    
C1    O1    A    
C2    C3    A    
C4    C9    A    
C11   C13   A    
C38   C39   S    
C2    C42   A    
Cu1   O8    S    
C31   H8    S    
C7    H18   S    
C33   N3    A    
Cu2   O11   S    
C3    H12   S    
C17   N2    S    
C20   C21   A    
C42   C43   A    
C37   N4    A    
C13   O13   S    
C27   C28   A    
C18   F1    S    
C14   C15   A    
C34   O10   A    
C46   H25   S    
C13   C14   A    
C32   H10   S    
C36   N4    A    
