data_mof_unit_32405.cif
_audit_creation_date              2013-03-05T15:55:01-0500
_audit_creation_method            fapswitch 2.2
_symmetry_space_group_name_H-M    P1
_symmetry_Int_Tables_number       1
_space_group_crystal_system       triclinic
_cell_length_a                    23.339086
_cell_length_b                    10.636864
_cell_length_c                    9.960405
_cell_angle_alpha                 90.637567
_cell_angle_beta                  90.371812
_cell_angle_gamma                 93.998836
_cell_volume                      2466.47913969

loop_
_atom_site_label
_atom_site_type_symbol
_atom_site_description
_atom_site_fract_x
_atom_site_fract_y
_atom_site_fract_z
_atom_type_partial_charge
O1    O     O_R   0.500000 0.316780 0.614690 -0.588804
O2    O     O_R   0.500000 0.316750 0.385360 -0.590387
C1    C     C_R   0.508376 0.262881 0.499883 0.944727
O3    O     O_R   0.416160 0.499970 0.614690 -0.600234
O4    O     O_R   0.416150 0.499950 0.385360 -0.627926
C2    C     C_R   0.389718 0.506571 0.499797 0.988766
Zn1   Zn    Zn3+2 0.500000 0.500020 0.653130 1.051886
Zn2   Zn    Zn3+2 0.500000 0.499980 0.346870 1.025043
O5    O     O_R   0.500000 0.683250 0.614640 -0.582671
O6    O     O_R   0.500000 0.683220 0.385310 -0.614982
O7    O     O_R   0.583850 0.500050 0.614640 -0.604617
O8    O     O_R   0.583840 0.500030 0.385310 -0.575503
C3    C     C_R   0.495884 0.740000 0.501644 0.862660
C4    C     C_R   0.610313 0.498199 0.500024 0.819174
C5    C     C_R   0.881101 0.606413 0.549645 0.515953
N1    N     N_R   0.852067 0.495464 0.512496 -0.364807
C6    C     C_R   0.879699 0.390530 0.478870 0.545441
C7    C     C_R   0.940040 0.393240 0.484861 -0.141047
C8    C     C_R   0.970570 0.510012 0.515231 -0.050577
C9    C     C_R   0.940926 0.616903 0.549126 -0.005562
C10   C     C_R   0.971021 0.285814 0.456617 0.326475
C11   C     C_R   0.030882 0.298960 0.449461 -0.190608
C12   C     C_R   0.060946 0.415270 0.475602 -0.084848
C13   C     C_R   0.030934 0.520739 0.510641 -0.013419
C14   C     C_R   0.061262 0.637319 0.540410 -0.019314
C15   C     C_R   0.031167 0.742211 0.575598 -0.123185
C16   C     C_R   0.971518 0.732054 0.580096 -0.109207
C17   C     C_R   0.120843 0.428205 0.470558 0.558961
N2    N     N_R   0.149376 0.541856 0.499905 -0.365295
C18   C     C_R   0.121226 0.645568 0.534485 0.527857
O9    O     O_2   0.851900 0.706479 0.585902 -0.531805
O10   O     O_2   0.848612 0.286295 0.435104 -0.484506
H1    H     H_    0.053930 0.216365 0.426974 0.227735
O11   O     O_2   0.150580 0.327887 0.438051 -0.481683
O12   O     O_2   0.151264 0.755810 0.562837 -0.502081
H2    H     H_    0.053541 0.832491 0.599186 0.209084
H3    H     H_    0.949473 0.815058 0.606565 0.222081
C19   C     C_R   0.240060 0.544392 0.621775 -0.079908
H4    H     H_    0.217185 0.545010 0.716014 0.162054
C20   C     C_R   0.298921 0.533491 0.621633 -0.107404
H5    H     H_    0.321206 0.530543 0.716651 0.178404
C21   C     C_R   0.328286 0.525112 0.499708 -0.043495
C22   C     C_R   0.298776 0.538986 0.378231 -0.134986
H6    H     H_    0.321039 0.539852 0.283393 0.166983
C23   C     C_R   0.239853 0.550468 0.378455 -0.020210
H7    H     H_    0.216718 0.556632 0.284474 0.180804
C24   C     C_R   0.210417 0.549643 0.500071 0.261162
C25   C     C_R   0.758100 0.414665 0.593501 -0.093164
H8    H     H_    0.778727 0.357201 0.665957 0.156534
C26   C     C_R   0.698617 0.414665 0.589819 -0.244764
H9    H     H_    0.673399 0.354497 0.657364 0.131467
C27   C     C_R   0.672089 0.492137 0.499066 -0.027492
C28   C     C_R   0.704889 0.563729 0.406594 -0.211526
H10   H     H_    0.684645 0.621920 0.334357 0.186011
C29   C     C_R   0.764291 0.563165 0.409720 -0.095989
H11   H     H_    0.789736 0.620462 0.339844 0.155858
C30   C     C_R   0.790963 0.490457 0.504804 0.295801
H12   H     H_    0.514092 0.109856 0.284728 0.204457
C31   C     C_R   0.551877 0.124450 0.737003 -0.107433
H13   H     H_    0.576704 0.214073 0.730888 0.123893
C32   C     C_R   0.546425 0.066329 0.861333 -0.163104
H14   H     H_    0.566253 0.111375 0.949652 0.147272
C33   C     C_R   0.510541 0.956969 0.873824 -0.161889
H15   H     H_    0.500668 0.922410 0.973256 0.159608
C34   C     C_R   0.484832 0.897399 0.759638 0.383524
C35   C     C_R   0.500160 0.944214 0.629916 0.000636
C36   C     C_R   0.524765 0.067622 0.622389 0.091496
C37   C     C_R   0.519524 0.131204 0.500284 -0.139426
C38   C     C_R   0.511058 0.064003 0.380692 -0.137943
H16   H     H_    0.489706 0.887730 0.289615 0.174827
C39   C     C_R   0.497090 0.937173 0.383942 -0.157208
C40   C     C_R   0.493054 0.875227 0.506772 -0.088232
C41   C     C_R   0.404614 0.381326 0.134378 0.257671
C42   C     C_R   0.351278 0.376477 0.065750 0.189091
C43   C     C_R   0.351492 0.386383 0.927030 -0.315621
H17   H     H_    0.312337 0.356242 0.873144 0.220920
C44   C     C_R   0.403682 0.389029 0.859889 0.333758
C45   C     C_R   0.453319 0.443776 0.926700 -0.016944
C46   C     C_R   0.453490 0.442302 0.070605 -0.105506
N3    N     N_R   0.499460 0.498800 0.142780 -0.152874
C47   C     C_R   0.542840 0.561807 0.073983 0.399019
C48   C     C_R   0.544673 0.555282 0.929518 0.392404
N4    N     N_R   0.499440 0.498720 0.857170 -0.145793
N5    N     N_R   0.943271 0.161685 0.441864 0.244970
O13   O     O_R   0.913176 0.113197 0.540475 -0.328488
O14   O     O_R   0.958207 0.088066 0.344887 -0.354995
N6    N     N_R   0.437455 0.804931 0.777810 0.231353
O15   O     O_R   0.396158 0.792617 0.689168 -0.372226
O16   O     O_R   0.431535 0.744509 0.890335 -0.429001
O17   O     O_3   0.585535 0.629091 0.147169 -0.602219
C49   C     C_3   0.581783 0.759421 0.126523 0.120627
H18   H     H_    0.536834 0.786107 0.135886 0.133855
H19   H     H_    0.597982 0.787479 0.025946 0.180008
C50   C     C_3   0.618795 0.833512 0.230430 -0.828244
H20   H     H_    0.664728 0.816830 0.214897 0.251532
H21   H     H_    0.613268 0.935810 0.220006 0.209431
H22   H     H_    0.606240 0.804151 0.333333 0.263716
N7    N     N_R   0.413004 0.278450 0.221571 0.253615
O18   O     O_R   0.383547 0.264967 0.331600 -0.302685
O19   O     O_R   0.433288 0.178962 0.168013 -0.388239
N8    N     N_R   0.298729 0.329613 0.127437 0.229208
O20   O     O_R   0.252085 0.385805 0.102971 -0.388631
O21   O     O_R   0.293762 0.214967 0.172142 -0.235245
N9    N     N_R   0.408197 0.289082 0.764212 0.248864
O22   O     O_R   0.436122 0.193740 0.801239 -0.356421
O23   O     O_R   0.368706 0.269311 0.671989 -0.346183
O24   O     O_3   0.589183 0.617464 0.860567 -0.598043
C51   C     C_3   0.641018 0.559558 0.884311 0.079155
H23   H     H_    0.639230 0.465324 0.835163 0.141297
H24   H     H_    0.650508 0.546403 0.992341 0.168107
C52   C     C_3   0.690685 0.642391 0.827658 -0.732186
H25   H     H_    0.695596 0.732841 0.884736 0.244890
H26   H     H_    0.731163 0.593943 0.836191 0.217326
H27   H     H_    0.682551 0.663032 0.720547 0.269329

loop_
_geom_bond_atom_site_label_1
_geom_bond_atom_site_label_2
_geom_bond_distance
_ccdc_geom_bond_type
Zn1   N4    2.032643 S    
C29   H11   1.082981 S    
C33   C34   1.406114 A    
N8    O20   1.300895 A    
C7    C10   1.420689 A    
C41   C42   1.413756 A    
C8    C9    1.410541 A    
C22   H6    1.080879 S    
N9    O23   1.301993 A    
C47   C48   1.440890 A    
C25   C30   1.398965 A    
C28   H10   1.081820 S    
Zn1   O7    1.996600 S    
C15   C16   1.389864 A    
C18   O12   1.349700 S    
N2    C24   1.421244 S    
C17   N2    1.366633 A    
C1    C37   1.442362 S    
N5    O14   1.301293 A    
C19   H4    1.083065 S    
O7    C4    1.302106 A    
C5    N1    1.365407 A    
N7    O18   1.301476 A    
C51   H23   1.108643 S    
C6    C7    1.407468 A    
C7    C8    1.416823 A    
C23   C24   1.396286 A    
C38   C39   1.366421 A    
O5    C3    1.289232 A    
C31   C36   1.411020 A    
C45   N4    1.382324 A    
C35   C40   1.425054 A    
C52   H25   1.110677 S    
C37   C38   1.388231 A    
C26   C27   1.399999 A    
O24   C51   1.415038 S    
H16   C39   1.078558 S    
C32   H14   1.082595 S    
C44   C45   1.418207 A    
C20   C21   1.403349 A    
C35   C36   1.398605 A    
C17   O11   1.350440 S    
C31   H13   1.083033 S    
N8    O21   1.300721 A    
C10   C11   1.396719 A    
C5    C9    1.392973 A    
O3    Zn1   1.991379 S    
N9    O22   1.298717 A    
C34   N6    1.441418 S    
C28   C29   1.386969 A    
C41   N7    1.427890 S    
C4    C27   1.447815 S    
C31   C32   1.392867 A    
C42   C43   1.386900 A    
C36   C37   1.406931 A    
C13   C14   1.411859 A    
O3    C2    1.301564 A    
C49   H18   1.109965 S    
C45   C46   1.433594 A    
N1    C6    1.367037 A    
C50   H22   1.110041 S    
C14   C15   1.401718 A    
C48   O24   1.382684 S    
C33   H15   1.080893 S    
O1    C1    1.295566 A    
C43   H17   1.083933 S    
N2    C18   1.364854 A    
C49   H19   1.109693 S    
C43   C44   1.392086 A    
C10   N5    1.435106 S    
Zn2   O8    1.991376 S    
C32   C33   1.392377 A    
C26   H9    1.082040 S    
C41   C46   1.428568 A    
C52   H26   1.110451 S    
C12   C17   1.396398 A    
N5    O13   1.301465 A    
C50   H21   1.110572 S    
C22   C23   1.389085 A    
C19   C24   1.395438 A    
C42   N8    1.435793 S    
C47   O17   1.384209 S    
C15   H2    1.083282 S    
C25   H8    1.082849 S    
C3    C40   1.444862 S    
O8    C4    1.296400 A    
C34   C35   1.428606 A    
N7    O19   1.299674 A    
N6    O16   1.301535 A    
C21   C22   1.402676 A    
C27   C28   1.399195 A    
C14   C18   1.397797 A    
Zn1   O5    1.990523 S    
C11   H1    1.083735 S    
C20   H5    1.078773 S    
O1    Zn1   1.982163 S    
O2    Zn2   1.990522 S    
N3    C47   1.366883 A    
O6    C3    1.307909 A    
O4    Zn2   1.996602 S    
H12   C38   1.078407 S    
C5    O9    1.350428 S    
C9    C16   1.404252 A    
C51   C52   1.521687 S    
C29   C30   1.399417 A    
O2    C1    1.301929 A    
C39   C40   1.396639 A    
C49   C50   1.521094 S    
C19   C20   1.386703 A    
O17   C49   1.412389 S    
O4    C2    1.303131 A    
C16   H3    1.083371 S    
C25   C26   1.388525 A    
C51   H24   1.109531 S    
C8    C13   1.406572 A    
C52   H27   1.109434 S    
N1    C30   1.424923 S    
C50   H20   1.110302 S    
C12   C13   1.405367 A    
C46   N3    1.385460 A    
C23   H7    1.082525 S    
N6    O15   1.301708 A    
Zn2   O6    1.982165 S    
C48   N4    1.373920 A    
C2    C21   1.460808 S    
Zn2   N3    2.032670 S    
C6    O10   1.348580 S    
C11   C12   1.400039 A    
C44   N9    1.429640 S    
