data_mof_unit_64456.cif
_audit_creation_date              2012-12-10T16:44:34-0500
_audit_creation_method            fapswitch 2.2
_symmetry_space_group_name_H-M    P1
_symmetry_Int_Tables_number       1
_space_group_crystal_system       triclinic
_cell_length_a                    18.44547
_cell_length_b                    18.459464
_cell_length_c                    18.44308
_cell_angle_alpha                 119.789243
_cell_angle_beta                  119.664901
_cell_angle_gamma                 90.394944
_cell_volume                      4461.66886815

loop_
_atom_site_label
_atom_site_type_symbol
_atom_type_description
_atom_site_fract_x
_atom_site_fract_y
_atom_site_fract_z
_atom_type_partial_charge
C1    C     C_R   0.138458 0.361413 0.999655 0.512407
C2    C     C_R   0.530413 0.262343 0.848163 -0.109951
C3    C     C_R   0.583311 0.316163 0.848124 -0.110881
C4    C     C_R   0.861107 0.638194 0.999762 0.508069
C5    C     C_R   0.673893 0.330332 0.898629 -0.083759
C6    C     C_2   0.721457 0.777434 0.940235 -0.144248
C7    C     C_2   0.697092 0.809282 0.004669 -0.081099
C8    C     C_2   0.780124 0.723779 0.942836 -0.144596
C9    C     C_2   0.803204 0.690975 0.998722 -0.089116
C10   C     C_2   0.723220 0.280617 0.443140 -0.109809
C11   C     C_2   0.690597 0.192072 0.387586 -0.145889
C12   C     C_R   0.836028 0.175897 0.115465 0.245299
C13   C     C_2   0.775690 0.337572 0.555268 0.357280
C14   C     C_2   0.809119 0.305310 0.611962 -0.053188
C15   C     C_2   0.337113 0.280912 0.057276 -0.154763
C16   C     C_R   0.138222 0.637585 0.277240 0.535818
C17   C     C_2   0.304578 0.192237 0.001111 -0.087468
C18   C     C_2   0.280923 0.337090 0.059705 -0.153016
C19   C     C_2   0.192274 0.304510 0.995693 -0.090231
C20   C     C_2   0.217001 0.782461 0.944428 0.360034
C21   C     C_2   0.305016 0.800036 0.994647 -0.054837
C22   C     C_2   0.161828 0.721208 0.939554 -0.111133
C23   C     C_R   0.791875 0.210841 0.056974 0.019108
C24   C     C_2   0.195385 0.700769 0.007082 -0.148555
C25   C     C_2   0.220081 0.768739 0.557555 -0.114449
C26   C     C_2   0.308477 0.800496 0.612460 -0.132991
C27   C     C_2   0.164120 0.704882 0.445991 0.212424
C28   C     C_R   0.861651 0.361532 0.722857 0.533460
C29   C     C_2   0.193054 0.695863 0.388315 -0.062790
C30   C     C_R   0.638241 0.138328 0.276998 0.543166
C31   C     C_R   0.361791 0.860811 0.722951 0.507979
C32   C     C_R   0.639013 0.861849 0.000457 0.542436
C33   C     C_R   0.361446 0.138396 0.000195 0.505608
C34   C     C_R   0.844294 0.263894 0.052977 -0.012389
C35   C     C_R   0.360244 0.859934 0.999488 0.532293
C36   C     C_R   0.640874 0.139875 0.000972 0.557683
C37   C     C_R   0.139606 0.640341 0.000800 0.518670
C38   C     C_R   0.860099 0.360104 0.000029 0.483709
C39   C     C_R   0.936180 0.277485 0.102535 -0.089558
C40   C     C_R   0.976302 0.240536 0.155487 -0.147014
C41   C     C_R   0.926813 0.190709 0.162351 -0.060935
C42   C     C_R   0.698968 0.196337 0.003633 0.016650
C43   C     C_R   0.660103 0.236328 0.951545 -0.000482
C44   C     C_R   0.713625 0.290850 0.951039 0.017222
C45   C     C_R   0.805049 0.303877 0.001191 0.023101
C46   C     C_R   0.567874 0.222578 0.898873 -0.090993
Cl1   Cl    Cl    0.057663 0.641897 0.394215 -0.524754
Cl2   Cl    Cl    0.787081 0.116733 0.140586 -0.599891
F1    F     F_    0.790625 0.426051 0.600393 -0.588653
F2    F     F_    0.175291 0.819653 0.894254 -0.582355
H1    H     H_    0.554021 0.346837 0.808482 0.119335
H2    H     H_    0.314587 0.408108 0.115931 0.163785
H3    H     H_    0.978486 0.317189 0.101382 0.132506
H4    H     H_    0.156277 0.234568 0.936859 0.114808
H5    H     H_    0.338692 0.768137 0.031197 0.047486
H6    H     H_    0.091288 0.694087 0.879870 0.197934
H7    H     H_    0.264432 0.730254 0.070792 0.103585
H8    H     H_    0.186940 0.787415 0.595893 0.201927
H9    H     H_    0.344088 0.779213 0.577472 0.109274
H10   H     H_    0.258987 0.734907 0.422606 0.064112
H11   H     H_    0.046678 0.251703 0.192768 0.129224
H12   H     H_    0.720411 0.798779 0.064068 0.112705
H13   H     H_    0.959950 0.164039 0.205952 0.158176
H14   H     H_    0.523502 0.180981 0.895999 0.106330
H15   H     H_    0.459949 0.251164 0.808554 0.118836
H16   H     H_    0.712148 0.372223 0.895694 0.113984
H17   H     H_    0.698635 0.791782 0.883583 0.166917
H18   H     H_    0.803983 0.710157 0.895572 0.175115
H19   H     H_    0.778942 0.700790 0.044485 0.114426
H20   H     H_    0.709784 0.313832 0.405298 0.193326
H21   H     H_    0.699855 0.156422 0.421845 0.103164
H22   H     H_    0.800226 0.235616 0.577953 0.051763
H23   H     H_    0.408089 0.314600 0.104825 0.164602
H24   H     H_    0.234676 0.156221 0.954880 0.120287
O1    O     O_3   0.000000 0.500000 0.000000 -0.466627
O2    O     O_R   0.325040 0.054120 0.939900 -0.526940
O3    O     O_R   0.444330 0.884140 0.060080 -0.563478
O4    O     O_R   0.054210 0.325030 0.939940 -0.537379
O5    O     O_R   0.615830 0.175840 0.060080 -0.515266
O6    O     O_R   0.324160 0.884140 0.939910 -0.456236
O7    O     O_R   0.615850 0.055700 0.939930 -0.509998
O8    O     O_R   0.614980 0.885710 0.939940 -0.517381
O9    O     O_R   0.445830 0.174930 0.060060 -0.550494
O10   O     O_R   0.614300 0.054120 0.229160 -0.525598
O11   O     O_R   0.325070 0.885060 0.770830 -0.532961
O12   O     O_R   0.054160 0.614240 0.229150 -0.469100
O13   O     O_R   0.885070 0.614240 0.060060 -0.534262
O14   O     O_R   0.174980 0.614900 0.229170 -0.551861
O15   O     O_R   0.885740 0.445830 0.770840 -0.457187
O16   O     O_R   0.175880 0.615810 0.060090 -0.537042
O17   O     O_R   0.884210 0.324110 0.939920 -0.546175
O18   O     O_R   0.055710 0.615810 0.939920 -0.531642
O19   O     O_R   0.884190 0.444260 0.060070 -0.518135
O20   O     O_R   0.885120 0.325030 0.770840 -0.555419
O21   O     O_R   0.175010 0.445830 0.060100 -0.539084
O22   O     O_R   0.885710 0.614900 0.939900 -0.531629
O23   O     O_3   0.500040 0.999960 0.000000 -0.461610
O24   O     O_R   0.614930 0.174930 0.229160 -0.521426
O25   O     O_R   0.445880 0.885710 0.770850 -0.545891
O26   O     O_R   0.614330 0.885060 0.060100 -0.531143
Zn1   Zn    Zn3+2 0.956610 0.542450 0.085830 0.990955
Zn2   Zn    Zn3+2 0.129220 0.543380 0.085850 0.943269
Zn3   Zn    Zn3+2 0.957530 0.543380 0.914160 0.990712
Zn4   Zn    Zn3+2 0.956640 0.370790 0.914170 0.939797
Zn5   Zn    Zn3+2 0.543440 0.957510 0.914170 0.983467
Zn6   Zn    Zn3+2 0.542510 0.956570 0.085840 0.976377
Zn7   Zn    Zn3+2 0.370820 0.956570 0.914150 0.991800
Zn8   Zn    Zn3+2 0.543410 0.129170 0.085830 0.981358

loop_
_geom_bond_atom_site_label_1
_geom_bond_atom_site_label_2
_ccdc_geom_bond_type
C15   C18   S    
O1    Zn3   S    
C31   O11   A    
C27   C29   D    
C36   C42   S    
O17   Zn4   S    
C12   Cl2   S    
C2    H15   S    
C18   H2    S    
C4    O13   A    
C39   H3    S    
C2    C46   A    
C12   C23   A    
C23   C42   A    
C37   O16   A    
O3    Zn6   S    
C9    H19   S    
C11   H21   S    
C35   O6    A    
O24   Zn8   S    
O9    Zn8   S    
C28   O20   A    
C18   C19   D    
O8    Zn5   S    
O16   Zn2   S    
C38   C45   S    
C20   F2    S    
O18   Zn3   S    
C4    O22   A    
O23   Zn8   S    
C11   C30   S    
C24   H7    S    
O1    Zn2   S    
O10   Zn6   S    
C28   O15   A    
C31   O25   A    
C26   H9    S    
O21   Zn2   S    
O23   Zn5   S    
O20   Zn4   S    
C26   C31   S    
O13   Zn1   S    
C13   C14   D    
O15   Zn3   S    
C16   O12   A    
C1    O4    A    
C17   C33   S    
O25   Zn5   S    
O7    Zn5   S    
C1    C19   S    
O4    Zn4   S    
C34   C39   A    
O19   Zn1   S    
C39   C40   A    
C21   H5    S    
C3    H1    S    
C8    C9    D    
C22   H6    S    
C16   C29   S    
C38   O17   A    
C35   O3    A    
C40   H11   S    
C32   O26   A    
C46   H14   S    
C43   C44   A    
C7    H12   S    
C12   C41   A    
C33   O2    A    
O14   Zn2   S    
O6    Zn7   S    
C29   H10   S    
C36   O7    A    
C1    O21   A    
C23   C34   A    
C24   C37   S    
C34   C45   A    
C33   O9    A    
C36   O5    A    
C13   F1    S    
O23   Zn6   S    
C10   H20   S    
C19   H4    S    
C6    H17   S    
C15   H23   S    
C5    C44   A    
C20   C22   S    
C8    H18   S    
O2    Zn7   S    
O1    Zn4   S    
C22   C24   D    
C42   C43   A    
C41   H13   S    
C44   C45   A    
C16   O14   A    
C27   Cl1   S    
C15   C17   D    
C40   C41   A    
C7    C32   S    
C37   O18   A    
C14   H22   S    
C5    H16   S    
C3    C5    A    
C10   C13   S    
C6    C8    S    
C6    C7    D    
C21   C35   S    
C25   C27   S    
C32   O8    A    
C30   O24   A    
O26   Zn6   S    
C2    C3    A    
C25   C26   D    
C17   H24   S    
C38   O19   A    
O5    Zn8   S    
C30   O10   A    
C43   C46   A    
C10   C11   D    
O23   Zn7   S    
C20   C21   D    
C25   H8    S    
O22   Zn3   S    
O1    Zn1   S    
C14   C28   S    
C4    C9    S    
O11   Zn7   S    
O12   Zn1   S    
