data_mof_unit_58393.cif
_audit_creation_date              2012-12-11T14:56:41-0500
_audit_creation_method            fapswitch 2.2
_symmetry_space_group_name_H-M    P1
_symmetry_Int_Tables_number       1
_space_group_crystal_system       triclinic
_cell_length_a                    10.599242
_cell_length_b                    10.723951
_cell_length_c                    17.202415
_cell_angle_alpha                 80.396571
_cell_angle_beta                  90.26705
_cell_angle_gamma                 119.546166
_cell_volume                      1670.3351828

loop_
_atom_site_label
_atom_site_type_symbol
_atom_type_description
_atom_site_fract_x
_atom_site_fract_y
_atom_site_fract_z
_atom_type_partial_charge
C1    C     C_R   0.224045 0.855113 0.128932 0.547602
C2    C     C_1   0.635459 0.311507 0.705305 -0.072902
C3    C     C_R   0.528572 0.761958 0.779575 0.208481
C4    C     C_R   0.636410 0.280486 0.086207 0.576543
C5    C     C_R   0.533366 0.781840 0.698274 0.226454
C6    C     C_R   0.667455 0.852599 0.655239 -0.054008
C7    C     C_R   0.796315 0.930544 0.691643 -0.174281
C8    C     C_R   0.791198 0.930514 0.772426 0.194096
C9    C     C_R   0.656498 0.848287 0.816549 0.015817
C10   C     C_R   0.191176 0.956311 0.769941 -0.085172
C11   C     C_R   0.174310 0.948395 0.692307 0.198342
C12   C     C_R   0.789881 0.397296 0.268587 -0.182374
C13   C     C_R   0.133759 0.814675 0.668247 0.068484
C14   C     C_R   0.105454 0.689585 0.724388 0.276195
C15   C     C_R   0.125744 0.702706 0.803828 -0.103849
C16   C     C_R   0.642914 0.856489 0.124634 0.557714
C17   C     C_R   0.170006 0.835558 0.825404 -0.033053
C18   C     C_R   0.709933 0.773235 0.353490 0.545994
C19   C     C_R   0.687507 0.394192 0.395202 0.562556
C20   C     C_R   0.102311 0.809768 0.358876 0.555294
C21   C     C_R   0.678073 0.805427 0.582831 0.593963
C22   C     C_R   0.677041 0.378390 0.623881 0.531111
C23   C     C_R   0.783467 0.388974 0.190056 -0.185856
C24   C     C_R   0.092496 0.800502 0.588519 0.603370
C25   C     C_R   0.219510 0.861697 0.901427 0.546304
C26   C     C_R   0.613484 0.222446 0.858848 0.540221
C27   C     C_R   0.640363 0.866419 0.897129 0.585655
C28   C     C_R   0.528767 0.326007 0.200549 0.246387
C29   C     C_R   0.534100 0.329898 0.281402 0.239195
C30   C     C_R   0.665197 0.363334 0.315756 -0.006128
C31   C     C_3   0.318091 0.178574 0.621835 -0.054906
C32   C     C_3   0.979303 0.436879 0.753776 -0.068675
C33   C     C_3   0.993277 0.130159 0.798090 -0.090563
C34   C     C_R   0.651632 0.343751 0.156571 -0.011578
C35   C     C_1   0.683753 0.833148 0.202263 -0.007926
C36   C     C_1   0.701286 0.808384 0.270809 -0.011145
C37   C     C_1   0.180806 0.826002 0.211293 -0.013116
C38   C     C_1   0.150383 0.819505 0.279612 -0.002986
C39   C     C_1   0.619674 0.266978 0.775393 -0.071152
Cl1   Cl    Cl    0.367778 0.300143 0.156822 -0.479000
Cl2   Cl    Cl    0.374311 0.285674 0.338971 -0.501930
Cl3   Cl    Cl    0.369120 0.606098 0.830611 -0.549045
Cl4   Cl    Cl    0.372671 0.702436 0.650192 -0.511829
Cr1   Cr    Cr6+3 0.402240 0.783890 0.019450 1.109196
Cr2   Cr    Cr6+3 0.382360 0.097900 0.991800 1.107751
Cr3   Cr    Cr6+3 0.715380 0.118170 0.988700 1.035873
Cr4   Cr    Cr6+3 0.936650 0.882420 0.465510 1.102494
Cr5   Cr    Cr6+3 0.605770 0.565620 0.493360 1.088874
Cr6   Cr    Cr6+3 0.921340 0.550490 0.496380 1.086715
H1    H     H_    0.111287 0.612302 0.848868 0.166807
H2    H     H_    0.895924 0.451267 0.783014 0.137035
H3    H     H_    0.045651 0.413584 0.797523 0.149869
H4    H     H_    0.092283 0.166831 0.830583 0.164626
H5    H     H_    0.926056 0.169328 0.822903 0.130347
H6    H     H_    0.028606 0.178957 0.734282 0.146082
H7    H     H_    0.894705 0.431559 0.292000 0.176176
H8    H     H_    0.880453 0.409006 0.156888 0.171697
H9    H     H_    0.902015 0.980235 0.659278 0.213121
H10   H     H_    0.224547 0.061044 0.785796 0.168746
H11   H     H_    0.391017 0.138947 0.603876 0.121548
H12   H     H_    0.359250 0.239245 0.671052 0.130545
H13   H     H_    0.318081 0.255792 0.570147 0.186782
H14   H     H_    0.923055 0.343633 0.722818 0.142821
O1    O     O_R   0.521780 0.757110 0.108900 -0.474047
O2    O     O_R   0.805020 0.410040 0.421340 -0.524485
O3    O     O_R   0.049240 0.685450 0.403290 -0.509839
O4    O     O_R   0.275160 0.783810 0.101120 -0.496687
O5    O     O_R   0.077520 0.903010 0.551800 -0.468473
O6    O     O_R   0.802980 0.872780 0.546830 -0.517355
O7    O     O_R   0.578090 0.681300 0.569920 -0.435606
O8    O     O_R   0.608530 0.436370 0.586530 -0.518043
O9    O     O_R   0.798770 0.401880 0.597100 -0.489515
O10   O     O_R   0.043450 0.677890 0.566230 -0.430870
O11   O     O_3   0.821250 0.666180 0.485090 -0.320813
O12   O     O_R   0.513330 0.228330 0.898660 -0.470655
O13   O     O_R   0.237900 0.972600 0.090980 -0.465682
O14   O     O_R   0.511190 0.220540 0.061620 -0.438561
O15   O     O_R   0.736920 0.257720 0.063840 -0.515420
O16   O     O_R   0.710450 0.984050 0.081720 -0.489460
O17   O     O_R   0.524090 0.765520 0.933110 -0.449765
O18   O     O_R   0.277300 0.791600 0.938160 -0.481150
O19   O     O_R   0.240210 0.981010 0.915190 -0.527541
O20   O     O_3   0.174424 0.064750 0.643082 -0.569081
O21   O     O_3   0.069676 0.561437 0.697702 -0.479529
O22   O     O_3   0.916955 0.977156 0.811016 -0.552143
O23   O     O_R   0.739230 0.266130 0.888050 -0.547173
O24   O     O_R   0.712580 0.991850 0.918770 -0.517629
O25   O     O_3   0.499990 0.999980 0.999980 -0.308398
O26   O     O_R   0.083770 0.911170 0.376030 -0.458127
O27   O     O_R   0.808770 0.880340 0.383890 -0.484782
O28   O     O_R   0.584340 0.689460 0.394160 -0.469639
O29   O     O_R   0.614320 0.443940 0.423590 -0.474941

loop_
_geom_bond_atom_site_label_1
_geom_bond_atom_site_label_2
_ccdc_geom_bond_type
C33   H6    S    
C3    Cl3   S    
C31   H12   S    
Cr2   O19   S    
C14   O21   S    
C7    C8    A    
Cr1   O1    S    
C12   C23   A    
C37   C38   T    
Cr6   O2    S    
Cr2   O13   S    
C18   O28   A    
C20   O3    A    
C28   C29   A    
C16   C35   S    
Cr3   O16   S    
C26   C39   S    
C28   Cl1   S    
C10   C17   A    
C31   O20   S    
C15   C17   A    
C8    O22   S    
C15   H1    S    
C33   O22   S    
Cr4   O6    S    
C19   O29   A    
C2    C39   T    
C32   H3    S    
C35   C36   T    
C8    C9    A    
Cr5   O28   S    
C2    C22   S    
C7    H9    S    
C1    C37   S    
C12   C30   A    
C5    Cl4   S    
C28   C34   A    
C13   C14   A    
C25   O18   A    
Cr4   O26   S    
C31   H13   S    
C22   O9    A    
Cr3   O25   S    
C33   H4    S    
C32   O21   S    
C4    C34   S    
Cr6   O3    S    
C18   O27   A    
Cr5   O11   S    
Cr1   O17   S    
Cr2   O25   S    
Cr4   O11   S    
Cr1   O18   S    
Cr3   O15   S    
C11   O20   S    
C6    C21   S    
Cr6   O9    S    
C13   C24   S    
C21   O6    A    
C31   H11   S    
C32   H2    S    
C4    O15   A    
C29   C30   A    
C3    C9    A    
C20   C38   S    
C26   O23   A    
C23   C34   A    
C26   O12   A    
C27   O24   A    
C12   H7    S    
C27   O17   A    
C25   O19   A    
Cr4   O27   S    
Cr6   O10   S    
Cr5   O8    S    
Cr4   O5    S    
C9    C27   S    
Cr3   O24   S    
C33   H5    S    
C23   H8    S    
C29   Cl2   S    
Cr6   O11   S    
C1    O13   A    
C32   H14   S    
Cr5   O7    S    
C3    C5    A    
C6    C7    A    
C20   O26   A    
C21   O7    A    
Cr2   O12   S    
C16   O16   A    
C17   C25   S    
C10   H10   S    
C4    O14   A    
C11   C13   A    
C5    C6    A    
C1    O4    A    
C19   O2    A    
C24   O10   A    
C10   C11   A    
C24   O5    A    
Cr5   O29   S    
C22   O8    A    
C14   C15   A    
Cr1   O4    S    
Cr2   O14   S    
C16   O1    A    
Cr1   O25   S    
C19   C30   S    
C18   C36   S    
Cr3   O23   S    
