data_mof_unit_40165.cif
_audit_creation_date              2012-12-10T17:52:25-0500
_audit_creation_method            fapswitch 2.2
_symmetry_space_group_name_H-M    P1
_symmetry_Int_Tables_number       1
_space_group_crystal_system       triclinic
_cell_length_a                    18.969661
_cell_length_b                    10.627741
_cell_length_c                    9.908831
_cell_angle_alpha                 89.83493
_cell_angle_beta                  89.812006
_cell_angle_gamma                 91.883306
_cell_volume                      1996.56759903

loop_
_atom_site_label
_atom_site_type_symbol
_atom_type_description
_atom_site_fract_x
_atom_site_fract_y
_atom_site_fract_z
_atom_type_partial_charge
C1    C     C_R   0.501552 0.260689 0.500194 0.864117
C2    C     C_R   0.852392 0.415065 0.506712 0.089975
C3    C     C_R   0.620243 0.138001 0.621998 -0.172818
C4    C     C_R   0.364867 0.499035 0.500134 0.913396
C5    C     C_R   0.675936 0.075513 0.680759 -0.122616
C6    C     C_R   0.676057 0.944583 0.680514 -0.132796
C7    C     C_R   0.620543 0.875704 0.621299 -0.189658
C8    C     C_R   0.563251 0.937664 0.562432 0.095119
C9    C     C_R   0.563066 0.069553 0.562879 0.093155
C10   C     C_R   0.506222 0.128698 0.500220 -0.085952
C11   C     C_R   0.452539 0.061639 0.434137 -0.170997
C12   C     C_R   0.288123 0.476381 0.501322 -0.140173
C13   C     C_R   0.452770 0.933088 0.433569 -0.171800
C14   C     C_R   0.506631 0.872069 0.499227 -0.115558
C15   C     C_R   0.408716 0.332516 0.141031 -0.168834
C16   C     C_R   0.501942 0.739490 0.499790 0.893957
C17   C     C_R   0.365284 0.247049 0.071792 -0.204160
C18   C     C_R   0.365923 0.244013 0.931340 -0.005150
C19   C     C_R   0.409912 0.330325 0.861241 -0.224861
C20   C     C_R   0.455370 0.416711 0.928419 0.158916
C21   C     C_R   0.455130 0.417213 0.072817 0.184220
C22   C     C_R   0.542873 0.579398 0.070980 -0.112297
C23   C     C_R   0.927825 0.391309 0.509709 0.282613
C24   C     C_R   0.542792 0.579490 0.927818 -0.106547
C25   C     C_R   0.634850 0.497764 0.499861 0.823208
C26   C     C_R   0.258333 0.418189 0.616474 -0.188383
C27   C     C_R   0.188537 0.373609 0.618391 -0.007905
C28   C     C_R   0.146393 0.392632 0.503488 -0.020164
C29   C     C_R   0.175833 0.450403 0.387986 -0.200514
C30   C     C_R   0.245934 0.494769 0.385906 -0.044572
C31   C     C_2   0.320701 0.150314 0.858027 0.937823
C32   C     C_2   0.162603 0.304371 0.740270 0.937712
C33   C     C_2   0.271361 0.566414 0.265381 0.940461
C34   C     C_R   0.069644 0.376408 0.509233 0.350687
C35   C     C_R   0.816981 0.443409 0.626781 -0.160040
C36   C     C_R   0.746643 0.474654 0.623750 -0.213176
C37   C     C_R   0.710538 0.477738 0.500642 -0.032939
C38   C     C_R   0.745862 0.449938 0.380359 -0.185482
C39   C     C_R   0.816347 0.418439 0.383410 -0.155926
H1    H     H_    0.623106 0.239680 0.621775 0.153273
H2    H     H_    0.142598 0.468923 0.301799 0.185481
H3    H     H_    0.843554 0.441858 0.723303 0.154905
H4    H     H_    0.720410 0.494837 0.718135 0.157045
H5    H     H_    0.718857 0.450444 0.284228 0.158071
H6    H     H_    0.409707 0.109089 0.385279 0.149467
H7    H     H_    0.290509 0.402131 0.704326 0.193906
H8    H     H_    0.577911 0.644223 0.124330 0.146807
H9    H     H_    0.245781 0.011282 0.868444 0.365640
H10   H     H_    0.168630 0.281922 0.942244 0.368194
H11   H     H_    0.328638 0.714570 0.191321 0.349185
H12   H     H_    0.719435 0.128912 0.725452 0.145704
H13   H     H_    0.842646 0.398089 0.289185 0.153863
H14   H     H_    0.719641 0.896223 0.725091 0.142623
H15   H     H_    0.623646 0.774300 0.620361 0.139080
H16   H     H_    0.410084 0.880786 0.384404 0.189013
H17   H     H_    0.404407 0.328930 0.248008 0.199337
H18   H     H_    0.331223 0.182733 0.129093 0.193762
H19   H     H_    0.407010 0.328226 0.754346 0.223709
H20   H     H_    0.577749 0.644423 0.873543 0.142441
N1    N     N_R   0.032203 0.350100 0.395850 -0.157475
N2    N     N_R   0.962408 0.357117 0.396208 -0.169741
N3    N     N_R   0.965251 0.414941 0.623545 -0.163197
N4    N     N_R   0.034903 0.408389 0.623059 -0.136361
N5    N     N_R   0.499340 0.498800 0.142780 -0.117925
N6    N     N_R   0.499320 0.498720 0.857170 -0.114884
O1    O     O_R   0.500000 0.316780 0.614690 -0.634659
O2    O     O_R   0.273857 0.070407 0.929600 -0.791778
O3    O     O_2   0.119163 0.217372 0.729716 -0.600948
O4    O     O_R   0.189570 0.336571 0.867238 -0.775408
O5    O     O_2   0.252352 0.533546 0.152643 -0.594877
O6    O     O_R   0.314981 0.674060 0.280822 -0.797458
O7    O     O_R   0.499990 0.316750 0.385360 -0.638453
O8    O     O_R   0.398140 0.500000 0.614700 -0.627891
O9    O     O_R   0.398130 0.499970 0.385370 -0.612562
O10   O     O_R   0.500010 0.683250 0.614640 -0.608230
O11   O     O_R   0.500000 0.683220 0.385310 -0.601008
O12   O     O_R   0.601870 0.500030 0.614630 -0.634489
O13   O     O_R   0.601860 0.500000 0.385300 -0.616020
O14   O     O_2   0.324314 0.142221 0.735059 -0.652369
Zn1   Zn    Zn3+2 0.500000 0.500020 0.653130 0.946650
Zn2   Zn    Zn3+2 0.500000 0.499980 0.346870 0.955536

loop_
_geom_bond_atom_site_label_1
_geom_bond_atom_site_label_2
_ccdc_geom_bond_type
C2    C35   A    
C16   O10   A    
C19   C20   A    
C7    C8    A    
C31   O2    S    
C26   C27   A    
C37   C38   A    
C25   O12   A    
C36   C37   A    
C5    C6    A    
C18   C19   A    
C35   H3    S    
C21   N5    A    
C25   C37   S    
C2    C39   A    
C23   N3    A    
C35   C36   A    
C8    C9    A    
C4    C12   S    
C29   C30   A    
C9    C10   A    
C4    O9    A    
O7    Zn2   S    
C32   O3    D    
C29   H2    S    
C39   H13   S    
C28   C34   S    
N6    Zn1   S    
H10   O4    S    
C13   C14   A    
C34   N1    A    
C17   C18   A    
C19   H19   S    
C1    O7    A    
C25   O13   A    
C20   N6    A    
C26   H7    S    
C12   C26   A    
N1    N2    A    
H11   O6    S    
C38   H5    S    
N3    N4    A    
C3    C9    A    
C23   N2    A    
C1    O1    A    
C4    O8    A    
C32   O4    S    
C24   N6    A    
C33   O5    D    
C3    H1    S    
C14   C16   S    
C11   H6    S    
O9    Zn2   S    
C2    C23   S    
O10   Zn1   S    
O12   Zn1   S    
C15   C17   A    
C28   C29   A    
C8    C14   A    
C30   C33   S    
C12   C30   A    
C27   C32   S    
C16   O11   A    
C1    C10   S    
C3    C5    A    
O11   Zn2   S    
C31   O14   D    
C6    C7    A    
O1    Zn1   S    
C15   H17   S    
C11   C13   A    
O13   Zn2   S    
C38   C39   A    
C24   H20   S    
C34   N4    A    
O8    Zn1   S    
C22   H8    S    
C22   C24   A    
H9    O2    S    
N5    Zn2   S    
C10   C11   A    
C33   O6    S    
C22   N5    A    
C15   C21   A    
C20   C21   A    
C27   C28   A    
C5    H12   S    
C36   H4    S    
C18   C31   S    
C6    H14   S    
C7    H15   S    
C17   H18   S    
C13   H16   S    
