data_mof_unit_16117.cif
_audit_creation_date              2012-12-10T18:41:22-0500
_audit_creation_method            fapswitch 2.2
_symmetry_space_group_name_H-M    P1
_symmetry_Int_Tables_number       1
_space_group_crystal_system       triclinic
_cell_length_a                    15.135663
_cell_length_b                    13.852356
_cell_length_c                    10.852924
_cell_angle_alpha                 89.983071
_cell_angle_beta                  90.20718
_cell_angle_gamma                 90.012931
_cell_volume                      2275.45885141

loop_
_atom_site_label
_atom_site_type_symbol
_atom_type_description
_atom_site_fract_x
_atom_site_fract_y
_atom_site_fract_z
_atom_type_partial_charge
C1    C     C_R   0.329877 0.500010 0.500072 0.787901
C2    C     C_R   0.670124 0.500024 0.500027 0.788471
C3    C     C_R   0.186834 0.417525 0.463385 -0.187075
C4    C     C_R   0.813088 0.417604 0.537366 -0.187086
C5    C     C_R   0.095011 0.417854 0.462651 -0.172150
C6    C     C_R   0.904912 0.417933 0.538345 -0.172101
C7    C     C_R   0.048562 0.500341 0.500390 0.106837
C8    C     C_R   0.951444 0.500370 0.500487 0.106828
C9    C     C_R   0.535567 0.107767 0.599312 -0.287905
C10   C     C_R   0.464443 0.107743 0.400792 -0.288416
C11   C     C_R   0.535711 0.209284 0.596855 0.076556
C12   C     C_R   0.464316 0.209265 0.403157 0.075402
C13   C     C_R   0.499975 0.054519 0.500095 0.136075
C14   C     C_R   0.435619 0.891959 0.434671 -0.293370
C15   C     C_R   0.564210 0.891946 0.565705 -0.301988
C16   C     C_R   0.437262 0.790495 0.435071 0.066587
C17   C     C_R   0.562650 0.790480 0.565109 0.066226
C18   C     C_R   0.499923 0.945165 0.500178 0.148771
C19   C     C_R   0.500520 0.500073 0.262565 0.807114
C20   C     C_R   0.499624 0.500027 0.737429 0.806150
C21   C     C_R   0.500238 0.584614 0.062054 0.043675
C22   C     C_R   0.497241 0.584434 0.937762 0.043118
C23   C     C_R   0.501540 0.499563 0.130020 -0.098941
C24   C     C_R   0.499470 0.499418 0.869967 -0.098467
C25   C     C_R   0.503078 0.411593 0.064570 -0.210842
C26   C     C_R   0.502357 0.411530 0.935551 -0.210409
C27   C     C_3   0.494383 0.692146 0.928007 -0.126683
C28   C     C_3   0.495919 0.692384 0.071117 -0.128314
C29   C     C_R   0.095415 0.582741 0.538034 -0.172449
C30   C     C_R   0.904674 0.582742 0.462564 -0.172544
C31   C     C_R   0.187251 0.582841 0.537185 -0.196028
C32   C     C_R   0.812836 0.582846 0.463188 -0.195466
C33   C     C_R   0.233428 0.500113 0.500241 -0.027056
C34   C     C_R   0.766575 0.500146 0.500153 -0.027029
Cu1   Cu    Cu3+1 0.500000 0.596430 0.500000 0.915190
Cu2   Cu    Cu3+1 0.500000 0.403570 0.500000 0.935244
H1    H     H_    0.504665 0.342950 0.112336 0.156284
H2    H     H_    0.504005 0.342871 0.887899 0.155460
H3    H     H_    0.383350 0.927897 0.384342 0.122038
H4    H     H_    0.616476 0.927874 0.616053 0.124240
H5    H     H_    0.387794 0.751028 0.383503 0.117296
H6    H     H_    0.612139 0.750997 0.616619 0.118326
H7    H     H_    0.555027 0.720887 0.883277 0.156040
H8    H     H_    0.433511 0.716427 0.115588 0.154854
H9    H     H_    0.061126 0.646680 0.569557 0.124069
H10   H     H_    0.939028 0.646641 0.430949 0.124023
H11   H     H_    0.222074 0.647108 0.567020 0.144385
H12   H     H_    0.778078 0.647083 0.433128 0.144619
H13   H     H_    0.221314 0.353185 0.433497 0.145634
H14   H     H_    0.778541 0.353297 0.567326 0.145523
H15   H     H_    0.060403 0.353995 0.431144 0.125143
H16   H     H_    0.939454 0.354103 0.570083 0.125121
H17   H     H_    0.562339 0.071808 0.679629 0.122008
H18   H     H_    0.437698 0.071759 0.320490 0.122750
H19   H     H_    0.564351 0.248368 0.673381 0.114641
H20   H     H_    0.435709 0.248335 0.326576 0.115479
N1    N     N_R   0.500000 0.258690 0.500000 -0.168025
N2    N     N_R   0.500000 0.741330 0.500000 -0.170809
O1    O     O_R   0.371460 0.581430 0.500010 -0.597268
O2    O     O_R   0.628540 0.581430 0.499990 -0.596672
O3    O     O_R   0.371470 0.418560 0.500010 -0.580743
O4    O     O_R   0.628530 0.418560 0.499990 -0.581121
O5    O     O_R   0.499990 0.581450 0.319660 -0.596065
O6    O     O_R   0.500010 0.581450 0.680340 -0.595706
O7    O     O_R   0.500010 0.418580 0.319660 -0.595232
O8    O     O_R   0.499990 0.418580 0.680340 -0.594991
C35   C     C_3   0.407917 0.730336 0.871131 -0.371673
C36   C     C_3   0.407450 0.840953 0.868441 -0.360345
C37   C     C_3   0.327463 0.879398 0.797972 -0.842136
H21   H     H_    0.328996 0.854229 0.700792 0.258454
H22   H     H_    0.265362 0.854493 0.841995 0.247166
H23   H     H_    0.328626 0.959541 0.798418 0.242433
H24   H     H_    0.405922 0.869308 0.964186 0.211911
H25   H     H_    0.468363 0.867872 0.822859 0.219408
H26   H     H_    0.401776 0.703342 0.775277 0.234625
H27   H     H_    0.349810 0.703520 0.923522 0.190737
C38   C     C_3   0.579550 0.737792 0.127596 -0.370489
C39   C     C_3   0.573075 0.848234 0.127492 -0.363397
C40   C     C_3   0.649931 0.893675 0.197956 -0.839945
H28   H     H_    0.649565 0.869480 0.295576 0.261368
H29   H     H_    0.713748 0.873303 0.154952 0.246852
H30   H     H_    0.643454 0.973506 0.196028 0.242081
H31   H     H_    0.573529 0.875274 0.031066 0.212275
H32   H     H_    0.510271 0.871163 0.171566 0.217228
H33   H     H_    0.586925 0.712704 0.224146 0.235503
H34   H     H_    0.639419 0.714677 0.076219 0.190815

loop_
_geom_bond_atom_site_label_1
_geom_bond_atom_site_label_2
_ccdc_geom_bond_type
C15   C18   A    
C7    C29   A    
C14   C18   A    
Cu1   Cu2   S    
C3    H13   S    
C1    C33   S    
C7    C8    S    
C38   C39   S    
C13   C18   S    
Cu1   N2    S    
C20   O8    A    
C24   C26   A    
C1    O1    A    
Cu2   O8    S    
C3    C33   A    
C36   H25   S    
Cu1   O1    S    
C37   H22   S    
C9    C13   A    
C17   H6    S    
C25   H1    S    
C14   H3    S    
C39   H31   S    
C20   C24   S    
C19   O5    A    
C36   C37   S    
C31   C33   A    
Cu1   O6    S    
C17   N2    A    
C2    C34   S    
C38   H33   S    
C31   H11   S    
C21   C22   A    
C32   H12   S    
C2    O2    A    
Cu2   O4    S    
C4    C34   A    
C35   C36   S    
C4    C6    A    
Cu2   N1    S    
C5    C7    A    
Cu2   O7    S    
C26   H2    S    
C6    C8    A    
C25   C26   A    
C28   H8    S    
C4    H14   S    
Cu1   O2    S    
C32   C34   A    
C20   O6    A    
C37   H23   S    
C19   C23   S    
C39   H32   S    
C16   N2    A    
C28   C38   S    
C9    C11   A    
C12   H20   S    
C10   C12   A    
C12   N1    A    
C21   C28   S    
C38   H34   S    
C22   C27   S    
C21   C23   A    
C14   C16   A    
C35   H26   S    
Cu2   O3    S    
C11   H19   S    
C40   H29   S    
C15   C17   A    
C39   C40   S    
C30   H10   S    
C3    C5    A    
C10   C13   A    
C1    O3    A    
C40   H30   S    
C8    C30   A    
C36   H24   S    
C29   C31   A    
C30   C32   A    
C19   O7    A    
C22   C24   A    
C23   C25   A    
C37   H21   S    
C10   H18   S    
C15   H4    S    
C27   C35   S    
C40   H28   S    
C27   H7    S    
C9    H17   S    
C29   H9    S    
C27   C28   S    
C5    H15   S    
Cu1   O5    S    
C35   H27   S    
C6    H16   S    
C11   N1    A    
C16   H5    S    
C2    O4    A    
