data_mof_unit_55394.cif
_audit_creation_date              2012-12-10T17:08:14-0500
_audit_creation_method            fapswitch 2.2
_symmetry_space_group_name_H-M    P1
_symmetry_Int_Tables_number       1
_space_group_crystal_system       triclinic
_cell_length_a                    18.294693
_cell_length_b                    18.257841
_cell_length_c                    34.466316
_cell_angle_alpha                 90.041195
_cell_angle_beta                  90.013032
_cell_angle_gamma                 89.990719
_cell_volume                      11512.4904522

loop_
_atom_site_label
_atom_site_type_symbol
_atom_type_description
_atom_site_fract_x
_atom_site_fract_y
_atom_site_fract_z
_atom_type_partial_charge
C1    C     C_R   0.999993 0.500032 0.894104 0.809461
C2    C     C_R   0.499961 0.999979 0.894084 0.819020
C3    C     C_R   0.499996 0.000027 0.394111 0.773425
C4    C     C_R   0.999971 0.499977 0.394091 0.774934
C5    C     C_R   0.499863 0.999955 0.851613 -0.045298
C6    C     C_R   0.999983 0.500101 0.851624 -0.046989
C7    C     C_R   0.999812 0.499934 0.351633 -0.040399
C8    C     C_R   0.500015 0.000212 0.351644 -0.039224
C9    C     C_R   0.507091 0.933537 0.790739 0.053964
C10   C     C_R   0.066120 0.508727 0.790782 0.051394
C11   C     C_R   0.492527 0.066395 0.790794 0.056147
C12   C     C_R   0.933845 0.491567 0.790758 0.057359
C13   C     C_R   0.016630 0.435275 0.290762 0.044860
C14   C     C_R   0.564082 0.981669 0.290784 0.059581
C15   C     C_R   0.982531 0.564499 0.290814 0.058138
C16   C     C_R   0.436151 0.019542 0.290789 0.044252
C17   C     C_R   0.499817 0.999973 0.770312 0.077295
C18   C     C_R   0.999985 0.500142 0.770313 0.076606
C19   C     C_R   0.999541 0.499880 0.270323 0.075427
C20   C     C_R   0.500135 0.000679 0.270319 0.075278
C21   C     C_R   0.514640 0.867576 0.770602 -0.260859
C22   C     C_R   0.131795 0.517564 0.770685 -0.255784
C23   C     C_R   0.484979 0.132370 0.770717 -0.263648
C24   C     C_R   0.868173 0.482737 0.770636 -0.265371
C25   C     C_R   0.034111 0.371231 0.270624 -0.274005
C26   C     C_R   0.627512 0.962464 0.270663 -0.272944
C27   C     C_R   0.964915 0.628513 0.270727 -0.271663
C28   C     C_R   0.372840 0.039162 0.270672 -0.273803
C29   C     C_R   0.034970 0.369885 0.230064 0.432594
C30   C     C_R   0.628883 0.961770 0.230104 0.333669
C31   C     C_R   0.963990 0.629847 0.230174 0.338706
C32   C     C_R   0.371553 0.040198 0.230107 0.433667
C33   C     C_R   0.515115 0.866126 0.730054 0.336673
C34   C     C_R   0.133259 0.517994 0.730135 0.335878
C35   C     C_R   0.484566 0.133853 0.730170 0.336655
C36   C     C_R   0.866720 0.482267 0.730086 0.336991
C37   C     C_R   0.017172 0.434506 0.209185 -0.015118
C38   C     C_R   0.564887 0.981245 0.209197 -0.002770
C39   C     C_R   0.981902 0.565287 0.209238 -0.003698
C40   C     C_R   0.435457 0.020391 0.209195 -0.014990
C41   C     C_R   0.507407 0.932704 0.709193 -0.007272
C42   C     C_R   0.066998 0.508928 0.709229 -0.007377
C43   C     C_R   0.492340 0.067298 0.709250 -0.007315
C44   C     C_R   0.932992 0.491280 0.709205 -0.007437
C45   C     C_R   0.999516 0.499884 0.229550 -0.030759
C46   C     C_R   0.500161 0.000782 0.229539 -0.030411
C47   C     C_R   0.499851 0.999991 0.729553 -0.016238
C48   C     C_R   0.999991 0.500120 0.729550 -0.016222
C49   C     C_R   0.016525 0.435788 0.168556 -0.099504
C50   C     C_R   0.563568 0.981632 0.168563 -0.128430
C51   C     C_R   0.982825 0.564123 0.168607 -0.131456
C52   C     C_R   0.436675 0.019604 0.168553 -0.108330
C53   C     C_R   0.506973 0.934055 0.668584 -0.114013
C54   C     C_R   0.065691 0.508347 0.668613 -0.113890
C55   C     C_R   0.492892 0.065987 0.668637 -0.114479
C56   C     C_R   0.934317 0.491770 0.668591 -0.114269
C57   C     C_R   0.999771 0.499990 0.148394 -0.115353
C58   C     C_R   0.500072 0.000425 0.148372 -0.113189
C59   C     C_R   0.499963 0.000030 0.648408 -0.112283
C60   C     C_R   0.000008 0.500033 0.648395 -0.112209
C61   C     C_R   0.999941 0.500012 0.105903 0.901074
C62   C     C_R   0.500013 0.000088 0.105880 0.888131
C63   C     C_R   0.499997 0.000018 0.605909 0.932342
C64   C     C_R   0.000006 0.500002 0.605888 0.930977
C65   C     C_R   0.858865 0.638678 0.001018 0.940338
C66   C     C_R   0.359381 0.860795 0.999413 0.930581
C67   C     C_R   0.140531 0.360776 0.000550 0.910730
C68   C     C_R   0.638567 0.141265 0.001066 0.921642
C69   C     C_R   0.139134 0.640647 0.999505 0.926420
C70   C     C_R   0.639804 0.860028 0.999988 0.915539
C71   C     C_R   0.860416 0.359820 0.999788 0.910615
C72   C     C_R   0.360256 0.140104 0.000101 0.927193
C73   C     C_R   0.358799 0.138605 0.501086 0.920456
C74   C     C_R   0.861417 0.358773 0.501024 0.920282
C75   C     C_R   0.641195 0.861407 0.501076 0.920158
C76   C     C_R   0.138598 0.641207 0.501032 0.919887
C77   C     C_R   0.639654 0.140141 0.499841 0.911141
C78   C     C_R   0.140105 0.360316 0.499781 0.910713
C79   C     C_R   0.360332 0.859881 0.499833 0.910639
C80   C     C_R   0.859899 0.639671 0.499789 0.910270
C81   C     C_R   0.260894 0.631164 0.050631 -0.089220
C82   C     C_R   0.241919 0.134665 0.946617 -0.087912
C83   C     C_R   0.850979 0.254405 0.939169 -0.125069
C84   C     C_R   0.753492 0.859822 0.943540 -0.123849
C85   C     C_R   0.858567 0.749652 0.943017 -0.082013
C86   C     C_R   0.742643 0.147577 0.939871 -0.121066
C87   C     C_R   0.134790 0.242879 0.946624 -0.121864
C88   C     C_R   0.365660 0.741524 0.052528 -0.083143
C89   C     C_R   0.645439 0.248919 0.440822 -0.120202
C90   C     C_R   0.752416 0.646462 0.440188 -0.122898
C91   C     C_R   0.354463 0.750968 0.440798 -0.119649
C92   C     C_R   0.247543 0.353367 0.440182 -0.123363
C93   C     C_R   0.354395 0.244973 0.440865 -0.121336
C94   C     C_R   0.245788 0.644427 0.441282 -0.118029
C95   C     C_R   0.645611 0.754906 0.440839 -0.120819
C96   C     C_R   0.754214 0.355358 0.441256 -0.118407
C97   C     C_R   0.319057 0.626837 0.076625 -0.062572
C98   C     C_R   0.184335 0.131159 0.920231 -0.056298
C99   C     C_R   0.847398 0.202943 0.909386 -0.116936
C100  C     C_R   0.808202 0.859877 0.915433 -0.136830
C101  C     C_R   0.860516 0.804749 0.915097 -0.072559
C102  C     C_R   0.793315 0.149624 0.909734 -0.118647
C103  C     C_R   0.130901 0.185208 0.920209 -0.142550
C104  C     C_R   0.371131 0.682144 0.077724 -0.096569
C105  C     C_R   0.647491 0.301775 0.411724 -0.119593
C106  C     C_R   0.700059 0.648879 0.410874 -0.120438
C107  C     C_R   0.352412 0.698006 0.411713 -0.119671
C108  C     C_R   0.299903 0.350890 0.410882 -0.118108
C109  C     C_R   0.353214 0.296761 0.411212 -0.123077
C110  C     C_R   0.298140 0.644856 0.411942 -0.123784
C111  C     C_R   0.646772 0.703032 0.411188 -0.124615
C112  C     C_R   0.701813 0.354874 0.411927 -0.123843
C113  C     C_R   0.307597 0.746586 0.025424 0.029285
C114  C     C_R   0.192826 0.247523 0.973830 0.053203
C115  C     C_R   0.744933 0.199648 0.970466 0.055408
C116  C     C_R   0.803828 0.748813 0.972158 0.031380
C117  C     C_R   0.750302 0.804134 0.972169 0.044241
C118  C     C_R   0.799747 0.253640 0.970082 0.046442
C119  C     C_R   0.247053 0.192895 0.973760 0.020569
C120  C     C_R   0.254010 0.691370 0.024882 0.023929
C121  C     C_R   0.753392 0.301954 0.471166 0.054865
C122  C     C_R   0.698550 0.753759 0.470955 0.055857
C123  C     C_R   0.246610 0.697939 0.471179 0.054877
C124  C     C_R   0.301453 0.246182 0.470967 0.056035
C125  C     C_R   0.247415 0.300976 0.470572 0.046574
C126  C     C_R   0.301534 0.751835 0.470880 0.046103
C127  C     C_R   0.752566 0.698939 0.470576 0.046746
C128  C     C_R   0.698419 0.248108 0.470892 0.046044
C129  C     C_R   0.194210 0.697831 0.999260 -0.238081
C130  C     C_R   0.305095 0.197291 0.000625 -0.260477
C131  C     C_R   0.803080 0.305059 0.000615 -0.256286
C132  C     C_R   0.694654 0.802691 0.000480 -0.245163
C133  C     C_R   0.802655 0.694882 0.001534 -0.256353
C134  C     C_R   0.694695 0.197578 0.001593 -0.252033
C135  C     C_R   0.196889 0.304927 0.001229 -0.240813
C136  C     C_R   0.302686 0.805151 0.998810 -0.241787
C137  C     C_R   0.696980 0.194981 0.500586 -0.253662
C138  C     C_R   0.805184 0.697128 0.500491 -0.253876
C139  C     C_R   0.302979 0.805064 0.500564 -0.253194
C140  C     C_R   0.194800 0.302849 0.500476 -0.253823
C141  C     C_R   0.302632 0.194838 0.501626 -0.250189
C142  C     C_R   0.194751 0.697448 0.501557 -0.249395
C143  C     C_R   0.697387 0.805191 0.501612 -0.250241
C144  C     C_R   0.805295 0.302508 0.501535 -0.249749
C145  C     C_R   0.186354 0.758821 0.974049 0.265056
C146  C     C_R   0.310380 0.255374 0.027926 0.295571
C147  C     C_R   0.752621 0.304254 0.031875 0.309802
C148  C     C_R   0.690979 0.746990 0.029065 0.335941
C149  C     C_R   0.748532 0.694921 0.031163 0.232342
C150  C     C_R   0.698782 0.248093 0.033046 0.232600
C151  C     C_R   0.253753 0.308686 0.029239 0.260635
C152  C     C_R   0.243956 0.810905 0.972025 0.258397
C153  C     C_R   0.749608 0.193914 0.530823 0.306448
C154  C     C_R   0.805714 0.749348 0.530993 0.306638
C155  C     C_R   0.250403 0.806182 0.530815 0.305803
C156  C     C_R   0.194291 0.250719 0.530981 0.306993
C157  C     C_R   0.250998 0.197540 0.532503 0.235997
C158  C     C_R   0.197122 0.749562 0.532284 0.236176
C159  C     C_R   0.749026 0.802557 0.532500 0.236532
C160  C     C_R   0.802928 0.250502 0.532274 0.236994
C161  C     C_R   0.492755 0.066007 0.831287 -0.202864
C162  C     C_R   0.934216 0.491770 0.831257 -0.209494
C163  C     C_R   0.506893 0.933903 0.831235 -0.191798
C164  C     C_R   0.065747 0.508494 0.831280 -0.181190
C165  C     C_R   0.983140 0.564233 0.331323 -0.211153
C166  C     C_R   0.436356 0.018776 0.331309 -0.204182
C167  C     C_R   0.016287 0.435593 0.331273 -0.204461
C168  C     C_R   0.563751 0.981949 0.331301 -0.211696
H1    H     H_    0.221384 0.587064 0.051138 0.149419
H2    H     H_    0.282126 0.091230 0.945477 0.147389
H3    H     H_    0.894534 0.294390 0.937700 0.099091
H4    H     H_    0.713911 0.903836 0.942526 0.097038
H5    H     H_    0.900578 0.708093 0.941524 0.156723
H6    H     H_    0.702277 0.104323 0.938968 0.102262
H7    H     H_    0.091621 0.283359 0.945565 0.099560
H8    H     H_    0.407169 0.783421 0.054655 0.158186
H9    H     H_    0.601788 0.209011 0.439471 0.098867
H10   H     H_    0.792480 0.602941 0.438737 0.098396
H11   H     H_    0.398071 0.790916 0.439425 0.098791
H12   H     H_    0.207460 0.396866 0.438720 0.098753
H13   H     H_    0.397607 0.204550 0.439983 0.102127
H14   H     H_    0.205232 0.601346 0.440332 0.102468
H15   H     H_    0.602419 0.795347 0.439944 0.101952
H16   H     H_    0.794810 0.398397 0.440285 0.102421
H17   H     H_    0.323413 0.580643 0.096166 0.191072
H18   H     H_    0.181185 0.086284 0.899749 0.185108
H19   H     H_    0.886956 0.204295 0.886041 0.139448
H20   H     H_    0.809876 0.902787 0.893790 0.144526
H21   H     H_    0.902936 0.804735 0.893201 0.179060
H22   H     H_    0.790790 0.109412 0.886673 0.139633
H23   H     H_    0.086129 0.182391 0.899718 0.144518
H24   H     H_    0.415930 0.679093 0.098175 0.158218
H25   H     H_    0.606630 0.301612 0.388999 0.136935
H26   H     H_    0.700747 0.608421 0.387899 0.135845
H27   H     H_    0.393234 0.698126 0.388979 0.136065
H28   H     H_    0.299199 0.391283 0.387905 0.137461
H29   H     H_    0.394067 0.295051 0.388509 0.137415
H30   H     H_    0.296748 0.603550 0.389402 0.136431
H31   H     H_    0.605920 0.704697 0.388475 0.136007
H32   H     H_    0.703207 0.396097 0.389377 0.136378
H33   H     H_    0.487089 0.117217 0.846958 0.175450
H34   H     H_    0.883235 0.485052 0.846899 0.175066
H35   H     H_    0.512571 0.882693 0.846867 0.175792
H36   H     H_    0.116727 0.515202 0.846942 0.180133
H37   H     H_    0.969946 0.613984 0.347042 0.173485
H38   H     H_    0.387110 0.033394 0.347024 0.173247
H39   H     H_    0.029573 0.385863 0.346954 0.173769
H40   H     H_    0.612972 0.967205 0.347005 0.172753
H41   H     H_    0.520317 0.816977 0.786720 0.202146
H42   H     H_    0.182161 0.524259 0.786834 0.203353
H43   H     H_    0.479276 0.182956 0.786879 0.201770
H44   H     H_    0.817802 0.476063 0.786766 0.201541
H45   H     H_    0.047376 0.322101 0.286761 0.202910
H46   H     H_    0.676168 0.947794 0.286803 0.200555
H47   H     H_    0.951648 0.677655 0.286891 0.201079
H48   H     H_    0.324231 0.053916 0.286829 0.203235
H49   H     H_    0.029569 0.387253 0.152044 0.230783
H50   H     H_    0.611436 0.966623 0.152062 0.238450
H51   H     H_    0.969992 0.612721 0.152135 0.238583
H52   H     H_    0.388749 0.034380 0.152038 0.231587
H53   H     H_    0.512250 0.884026 0.652126 0.237380
H54   H     H_    0.115510 0.514567 0.652182 0.237421
H55   H     H_    0.487660 0.116022 0.652216 0.237503
H56   H     H_    0.884502 0.485514 0.652143 0.237617
O1    O     O_3   1.000000 0.500000 0.999990 -0.529038
O2    O     O_3   0.500000 0.000000 0.999990 -0.528826
O3    O     O_3   0.500000 0.000000 0.499990 -0.529690
O4    O     O_3   0.000000 0.500000 0.499990 -0.529592
O5    O     O_R   0.060750 0.500000 0.912560 -0.640500
O6    O     O_R   0.500000 0.060750 0.912560 -0.659991
O7    O     O_R   0.939250 0.500000 0.912560 -0.657948
O8    O     O_R   0.500000 0.939250 0.912560 -0.633393
O9    O     O_R   0.560750 0.000000 0.412560 -0.656498
O10   O     O_R   0.000000 0.560750 0.412560 -0.656548
O11   O     O_R   0.439250 0.000000 0.412560 -0.656345
O12   O     O_R   0.000000 0.439250 0.412560 -0.656983
O13   O     O_R   0.000000 0.560690 0.087420 -0.625992
O14   O     O_R   0.439310 0.000000 0.087420 -0.636523
O15   O     O_R   1.000000 0.439310 0.087420 -0.602447
O16   O     O_R   0.560690 0.000000 0.087420 -0.599296
O17   O     O_R   0.500000 0.060690 0.587420 -0.602495
O18   O     O_R   0.939310 0.500000 0.587420 -0.602020
O19   O     O_R   0.500000 0.939310 0.587420 -0.602381
O20   O     O_R   0.060690 0.500000 0.587420 -0.602107
O21   O     O_R   0.853830 0.585440 0.977070 -0.631620
O22   O     O_R   0.414560 0.853830 0.977070 -0.589578
O23   O     O_R   0.146170 0.414560 0.977070 -0.637908
O24   O     O_R   0.585440 0.146170 0.977070 -0.628101
O25   O     O_R   0.146170 0.585440 0.977070 -0.619236
O26   O     O_R   0.585440 0.853830 0.977070 -0.623974
O27   O     O_R   0.853830 0.414560 0.977070 -0.624478
O28   O     O_R   0.414560 0.146170 0.977070 -0.614338
O29   O     O_R   0.353830 0.085440 0.477070 -0.628314
O30   O     O_R   0.914560 0.353830 0.477070 -0.627280
O31   O     O_R   0.646170 0.914560 0.477070 -0.628552
O32   O     O_R   0.085440 0.646170 0.477070 -0.626972
O33   O     O_R   0.646170 0.085440 0.477070 -0.618034
O34   O     O_R   0.085440 0.353830 0.477070 -0.620052
O35   O     O_R   0.353830 0.914560 0.477070 -0.617879
O36   O     O_R   0.914560 0.646170 0.477070 -0.620213
O37   O     O_R   0.085460 0.353830 0.022910 -0.617923
O38   O     O_R   0.646170 0.085460 0.022910 -0.614522
O39   O     O_R   0.914540 0.646170 0.022910 -0.581264
O40   O     O_R   0.353830 0.914540 0.022910 -0.638671
O41   O     O_R   0.914540 0.353830 0.022910 -0.613106
O42   O     O_R   0.353830 0.085460 0.022910 -0.609857
O43   O     O_R   0.085460 0.646170 0.022910 -0.614221
O44   O     O_R   0.646170 0.914540 0.022910 -0.622196
O45   O     O_R   0.585460 0.853830 0.522910 -0.611961
O46   O     O_R   0.146170 0.585460 0.522910 -0.612072
O47   O     O_R   0.414540 0.146170 0.522910 -0.612135
O48   O     O_R   0.853830 0.414540 0.522910 -0.611962
O49   O     O_R   0.414540 0.853830 0.522910 -0.615886
O50   O     O_R   0.853830 0.585460 0.522910 -0.614836
O51   O     O_R   0.585460 0.146170 0.522910 -0.615929
O52   O     O_R   0.146170 0.414540 0.522910 -0.614888
Zn1   Zn    Zn3+2 0.000000 0.586740 0.032740 1.114854
Zn2   Zn    Zn3+2 0.413260 0.000000 0.032740 1.088196
Zn3   Zn    Zn3+2 0.000000 0.413260 0.032740 1.085846
Zn4   Zn    Zn3+2 0.586740 0.000000 0.032740 1.087844
Zn5   Zn    Zn3+2 0.500000 0.086740 0.532740 1.112169
Zn6   Zn    Zn3+2 0.913260 0.500000 0.532740 1.112660
Zn7   Zn    Zn3+2 0.500000 0.913260 0.532740 1.112077
Zn8   Zn    Zn3+2 0.086740 0.500000 0.532740 1.112708
Zn9   Zn    Zn3+2 0.913250 0.500000 0.967240 1.036358
Zn10  Zn    Zn3+2 0.500000 0.913250 0.967240 1.048626
Zn11  Zn    Zn3+2 0.086750 0.500000 0.967240 1.030018
Zn12  Zn    Zn3+2 0.500000 0.086750 0.967240 1.040433
Zn13  Zn    Zn3+2 0.413250 0.000000 0.467240 1.014665
Zn14  Zn    Zn3+2 0.000000 0.413250 0.467240 1.014612
Zn15  Zn    Zn3+2 0.586750 0.000000 0.467240 1.014048
Zn16  Zn    Zn3+2 0.000000 0.586750 0.467240 1.014522
S1    S     S_3+6 0.104582 0.768377 0.945370 0.066483
O53   O     O_2   0.118111 0.735311 0.906092 -0.246338
O54   O     O_2   0.040315 0.729798 0.963154 -0.366635
O55   O     O_3   0.080341 0.856544 0.939829 -0.428915
H57   H     H_    0.065020 0.872788 0.966026 0.365730
S2    S     S_3+6 0.386987 0.258782 0.060696 0.121234
O56   O     O_2   0.364385 0.224140 0.098389 -0.257709
O57   O     O_2   0.451908 0.217752 0.045286 -0.263672
O58   O     O_3   0.414648 0.345228 0.068868 -0.410807
H58   H     H_    0.440211 0.343707 0.094193 0.416414
S3    S     S_3+6 0.759908 0.372573 0.069641 0.119616
O59   O     O_2   0.802311 0.339983 0.102762 -0.264569
O60   O     O_2   0.799328 0.440060 0.056134 -0.273742
O61   O     O_3   0.677855 0.400368 0.085837 -0.409939
H59   H     H_    0.688449 0.429862 0.109309 0.407198
S4    S     S_3+6 0.614101 0.744347 0.061729 0.068324
O62   O     O_2   0.633682 0.786545 0.097728 -0.260915
O63   O     O_2   0.547385 0.778633 0.044017 -0.367879
O64   O     O_3   0.590962 0.658305 0.073909 -0.437623
H60   H     H_    0.557917 0.663532 0.096501 0.380131
S5    S     S_3+6 0.752026 0.628928 0.069893 0.123270
O65   O     O_2   0.702298 0.566391 0.059635 -0.159961
O66   O     O_2   0.827139 0.598419 0.076703 -0.290309
O67   O     O_3   0.724338 0.665898 0.112081 -0.442748
H61   H     H_    0.759860 0.705594 0.117409 0.393448
S6    S     S_3+6 0.634745 0.243379 0.072669 0.124474
O68   O     O_2   0.578627 0.302408 0.066961 -0.155838
O69   O     O_2   0.594984 0.171711 0.075664 -0.286597
O70   O     O_3   0.677095 0.256941 0.115353 -0.451096
H62   H     H_    0.710921 0.214875 0.118055 0.367343
S7    S     S_3+6 0.254631 0.381377 0.064705 0.073116
O71   O     O_2   0.306596 0.439651 0.051090 -0.231747
O72   O     O_2   0.181258 0.416597 0.070585 -0.351043
O73   O     O_3   0.282158 0.350726 0.108295 -0.440250
H63   H     H_    0.244025 0.315325 0.116308 0.380410
S8    S     S_3+6 0.242750 0.884242 0.937078 0.062915
O74   O     O_2   0.198479 0.946338 0.953412 -0.270872
O75   O     O_2   0.317788 0.912918 0.928021 -0.347443
O76   O     O_3   0.205600 0.857518 0.894773 -0.416814
H64   H     H_    0.240213 0.820865 0.884192 0.366730
S9    S     S_3+6 0.746232 0.122131 0.566732 0.120559
O77   O     O_2   0.704447 0.150140 0.601237 -0.261004
O78   O     O_2   0.708252 0.054887 0.551769 -0.270628
O79   O     O_3   0.830001 0.095614 0.580973 -0.406621
H65   H     H_    0.821894 0.066371 0.604784 0.412358
S10   S     S_3+6 0.876999 0.745591 0.567140 0.121285
O80   O     O_2   0.848805 0.703128 0.601356 -0.259537
O81   O     O_2   0.944362 0.707924 0.552226 -0.271109
O82   O     O_3   0.903140 0.829333 0.581879 -0.406469
H66   H     H_    0.933039 0.820773 0.605409 0.412405
S11   S     S_3+6 0.253796 0.878070 0.566718 0.121444
O83   O     O_2   0.295630 0.850177 0.601222 -0.259022
O84   O     O_2   0.291738 0.945282 0.551748 -0.270745
O85   O     O_3   0.170032 0.904596 0.580963 -0.406239
H67   H     H_    0.178154 0.933912 0.604772 0.413335
S12   S     S_3+6 0.123004 0.254553 0.567110 0.120778
O86   O     O_2   0.151172 0.297146 0.601326 -0.260476
O87   O     O_2   0.055626 0.292137 0.552170 -0.271121
O88   O     O_3   0.096903 0.170848 0.581857 -0.406501
H68   H     H_    0.067019 0.179469 0.605386 0.411882
S13   S     S_3+6 0.255468 0.132751 0.571842 0.123818
O89   O     O_2   0.199953 0.073794 0.564409 -0.154717
O90   O     O_2   0.328678 0.096576 0.576221 -0.290070
O91   O     O_3   0.236559 0.173305 0.614472 -0.450572
H69   H     H_    0.276725 0.208919 0.618434 0.382288
S14   S     S_3+6 0.131873 0.745656 0.571383 0.123601
O92   O     O_2   0.073041 0.801070 0.563492 -0.155178
O93   O     O_2   0.095865 0.672293 0.575891 -0.290446
O94   O     O_3   0.171622 0.765310 0.614112 -0.449455
H70   H     H_    0.207216 0.725214 0.618358 0.383599
S15   S     S_3+6 0.744586 0.867468 0.571832 0.123190
O95   O     O_2   0.800122 0.926382 0.564404 -0.154978
O96   O     O_2   0.671391 0.903684 0.576192 -0.290605
O97   O     O_3   0.763486 0.827040 0.614470 -0.451226
H71   H     H_    0.723298 0.791465 0.618433 0.382266
S16   S     S_3+6 0.868227 0.254496 0.571366 0.122668
O98   O     O_2   0.927017 0.199023 0.563475 -0.155371
O99   O     O_2   0.904283 0.327851 0.575862 -0.290750
O100  O     O_3   0.828517 0.234999 0.614100 -0.452588
H72   H     H_    0.792919 0.275106 0.618333 0.383375
S17   S     S_3+6 0.059110 0.286575 0.206728 0.057285
O101  O     O_2   0.077865 0.228464 0.235975 -0.231379
O102  O     O_2   0.995886 0.260825 0.182419 -0.267227
O103  O     O_3   0.131916 0.301158 0.177960 -0.541467
H73   H     H_    0.139962 0.254028 0.164358 0.402227
S18   S     S_3+6 0.711670 0.936225 0.206802 0.075914
O104  O     O_2   0.770776 0.920267 0.235911 -0.228950
O105  O     O_2   0.698553 0.868760 0.182779 -0.207919
O106  O     O_3   0.739548 0.004297 0.177481 -0.500935
H74   H     H_    0.741625 0.048213 0.194337 0.360665
S19   S     S_3+6 0.939654 0.713161 0.206927 0.075291
O107  O     O_2   0.919762 0.771164 0.236060 -0.223607
O108  O     O_2   0.003319 0.739659 0.183241 -0.228014
O109  O     O_3   0.868061 0.698942 0.177255 -0.503084
H75   H     H_    0.829588 0.677771 0.194065 0.367439
S20   S     S_3+6 0.289171 0.066877 0.206798 0.051238
O110  O     O_2   0.230698 0.084194 0.236050 -0.234761
O111  O     O_2   0.303390 0.133626 0.182419 -0.261150
O112  O     O_3   0.260297 0.998160 0.178113 -0.545037
H76   H     H_    0.218442 0.018739 0.163500 0.402685
S21   S     S_3+6 0.525872 0.780029 0.706709 0.082266
O113  O     O_2   0.536120 0.719545 0.735786 -0.226801
O114  O     O_2   0.458840 0.764167 0.682933 -0.197588
O115  O     O_3   0.598911 0.782597 0.677112 -0.512305
H77   H     H_    0.639927 0.798779 0.693809 0.362641
S22   S     S_3+6 0.218969 0.530400 0.706846 0.082953
O116  O     O_2   0.279094 0.541928 0.735961 -0.224806
O117  O     O_2   0.236151 0.463498 0.683111 -0.201726
O118  O     O_3   0.214973 0.603446 0.677215 -0.510904
H78   H     H_    0.198061 0.644276 0.693890 0.366115
S23   S     S_3+6 0.473820 0.219964 0.706901 0.080939
O119  O     O_2   0.463443 0.280413 0.736029 -0.227758
O120  O     O_2   0.540912 0.235893 0.683213 -0.200939
O121  O     O_3   0.400871 0.217374 0.677222 -0.510925
H79   H     H_    0.359826 0.201104 0.693852 0.363921
S24   S     S_3+6 0.781011 0.469871 0.706765 0.080352
O122  O     O_2   0.720866 0.458454 0.735857 -0.228534
O123  O     O_2   0.763888 0.536730 0.683032 -0.199582
O124  O     O_3   0.784968 0.396753 0.677128 -0.512624
H80   H     H_    0.801862 0.355955 0.693802 0.362359

loop_
_geom_bond_atom_site_label_1
_geom_bond_atom_site_label_2
_ccdc_geom_bond_type
C28   H48   S    
C79   C139  S    
C55   C59   A    
C130  C146  A    
C109  H29   S    
C34   C42   A    
C99   H19   S    
S3    O60   D    
S9    O77   D    
O42   Zn2   S    
C97   H17   S    
C163  H35   S    
O1    Zn11  S    
S23   O120  D    
C101  H21   S    
C153  S9    S    
C21   C33   A    
O35   Zn13  S    
C53   H53   S    
C63   O17   A    
C119  C130  A    
C108  C109  A    
C30   C38   A    
S14   O94   S    
O2    Zn2   S    
C117  C132  A    
C34   S22   S    
C74   C144  S    
C118  C131  A    
C8    C168  A    
C3    O11   A    
C93   H13   S    
C84   C117  A    
O50   Zn6   S    
O16   Zn4   S    
C168  H40   S    
O73   H63   S    
C51   C57   A    
C81   H1    S    
C144  C160  A    
C43   C47   A    
C129  C145  A    
C85   H5    S    
S4    O64   S    
C69   O25   A    
C138  C154  A    
C155  C158  A    
C82   C98   A    
C142  C158  A    
O28   Zn12  S    
C71   O27   A    
S16   O98   D    
S13   O90   D    
C25   C29   A    
S4    O62   D    
C147  S3    S    
O20   Zn8   S    
C27   C31   A    
S7    O71   D    
C61   O15   A    
C91   C107  A    
C28   C32   A    
C147  C150  A    
C121  C128  A    
C3    C8    S    
C73   O47   A    
S17   O103  S    
C74   O48   A    
C123  C126  A    
C116  C133  A    
O58   H58   S    
C49   H49   S    
O67   H61   S    
C86   H6    S    
C5    C161  A    
C40   C46   A    
C113  C120  A    
O11   Zn13  S    
C1    O7    A    
C15   C27   A    
S3    O59   D    
C16   C20   A    
C115  C118  A    
C72   O42   A    
O61   H59   S    
O26   Zn10  S    
C137  C153  A    
C14   C26   A    
C57   C61   S    
C74   O30   A    
C75   C143  S    
C140  C156  A    
C87   C103  A    
C95   C122  A    
C141  C157  A    
O55   H57   S    
C105  C112  A    
S24   O123  D    
O106  H74   S    
C107  C110  A    
C36   C44   A    
S2    O56   D    
C37   C45   A    
S19   O107  D    
O24   Zn12  S    
C66   O22   A    
S9    O79   S    
S6    O70   S    
C100  H20   S    
C4    O10   A    
C85   C116  A    
C166  H38   S    
O79   H65   S    
C69   O43   A    
C70   O44   A    
C115  C134  A    
S21   O113  D    
C59   C63   S    
C60   C64   S    
C79   O35   A    
C25   H45   S    
O39   Zn1   S    
C3    O9    A    
C155  S11   S    
C95   H15   S    
C10   C18   A    
C22   H42   S    
C11   C23   A    
S12   O86   D    
O43   Zn1   S    
C69   C129  S    
O70   H62   S    
O45   Zn7   S    
O27   Zn9   S    
O46   Zn8   S    
S18   O104  D    
O30   Zn14  S    
C159  S15   S    
C112  H32   S    
S16   O100  S    
O100  H72   S    
C167  H39   S    
C104  H24   S    
C39   C51   A    
O36   Zn16  S    
C77   O51   A    
O88   H68   S    
C78   O52   A    
C9    C21   A    
C92   C125  A    
C68   O38   A    
O118  H78   S    
C106  H26   S    
C35   S23   S    
C68   O24   A    
C24   C36   A    
C96   C121  A    
C162  H34   S    
O3    Zn15  S    
C5    C163  A    
O2    Zn12  S    
C75   O31   A    
S5    O66   D    
C49   C57   A    
C122  C127  A    
O31   Zn15  S    
C67   O23   A    
C92   C108  A    
S20   O110  D    
C131  C147  A    
C164  H36   S    
C114  C119  A    
C2    O8    A    
C39   C45   A    
C77   O33   A    
C4    O12   A    
C121  C144  A    
C122  C143  A    
C4    C7    S    
C88   C104  A    
S4    O63   D    
C106  C111  A    
C146  S2    S    
C125  C140  A    
C22   C34   A    
S21   O115  S    
C126  C139  A    
C120  C129  A    
C95   C111  A    
C151  S7    S    
O52   Zn8   S    
C51   H51   S    
S12   O88   S    
C83   H3    S    
C86   C115  A    
S7    O72   D    
S1    O53   D    
O15   Zn3   S    
C139  C155  A    
S15   O95   D    
C70   C132  S    
C41   C47   A    
C42   C48   A    
S14   O93   D    
C41   C53   A    
C8    C166  A    
C43   C55   A    
C26   C30   A    
S10   O81   D    
S11   O84   D    
S15   O97   S    
S22   O117  D    
C124  C141  A    
O22   Zn10  S    
C2    C5    S    
C103  H23   S    
C29   C37   A    
C86   C102  A    
O33   Zn15  S    
C7    C167  A    
O3    Zn13  S    
O7    Zn9   S    
C17   C47   A    
C33   S21   S    
S8    O74   D    
O14   Zn2   S    
O3    Zn7   S    
C19   C45   A    
S10   O82   S    
C87   H7    S    
C12   C24   A    
C88   H8    S    
C153  C160  A    
S19   O109  S    
C154  C159  A    
C165  H37   S    
S20   O112  S    
C80   C138  S    
C100  C101  A    
O18   Zn6   S    
C67   O37   A    
O51   Zn5   S    
C38   C46   A    
C145  C152  A    
C2    O6    A    
C12   C162  A    
C146  C151  A    
C44   C48   A    
C152  S8    S    
C89   C105  A    
O1    Zn1   S    
C15   C165  A    
C29   S17   S    
C20   C46   A    
C93   C109  A    
C58   C62   S    
C27   H47   S    
C90   H10   S    
C110  H30   S    
O64   H60   S    
S16   O99   D    
S13   O89   D    
C85   C101  A    
C73   C141  S    
C10   C22   A    
C15   C19   A    
C77   C137  S    
S1    O55   S    
S17   O102  D    
O47   Zn5   S    
C64   O18   A    
C98   C103  A    
C32   S20   S    
C62   O16   A    
C9    C163  A    
O97   H71   S    
C136  C152  A    
C76   O46   A    
C90   C127  A    
O9    Zn15  S    
C127  C138  A    
O10   Zn16  S    
C108  H28   S    
C70   O26   A    
C94   C123  A    
O34   Zn14  S    
C7    C165  A    
C79   O49   A    
C83   C99   A    
O48   Zn6   S    
C65   O39   A    
S2    O57   D    
C82   C119  A    
S8    O76   S    
C66   O40   A    
O3    Zn5   S    
S3    O61   S    
S9    O78   D    
C53   C59   A    
C13   C19   A    
C50   C58   A    
C14   C20   A    
S23   O121  S    
O115  H77   S    
C90   C106  A    
O8    Zn10  S    
C84   H4    S    
O21   Zn9   S    
C94   C110  A    
C1    C6    S    
C18   C48   A    
S2    O58   S    
C84   C100  A    
C67   C135  S    
O76   H64   S    
C93   C124  A    
S21   O114  D    
C44   C56   A    
O37   Zn3   S    
O38   Zn4   S    
S12   O87   D    
C78   O34   A    
C154  S10   S    
C73   O29   A    
C6    C164  A    
C23   C35   A    
C160  S16   S    
S18   O105  D    
S13   O91   S    
O23   Zn11  S    
C55   H55   S    
O4    Zn6   S    
C65   O21   A    
C11   C17   A    
C30   S18   S    
C78   C140  S    
C149  S5    S    
C64   O20   A    
O2    Zn10  S    
O44   Zn4   S    
C62   O14   A    
C26   H46   S    
C33   C41   A    
S18   O106  S    
C68   C134  S    
O109  H75   S    
C156  S12   S    
C42   C54   A    
S5    O65   D    
C23   H43   S    
C135  C151  A    
C123  C142  A    
C102  H22   S    
C21   H41   S    
C97   C104  A    
C54   H54   S    
C56   C60   A    
C99   C102  A    
S24   O122  D    
S20   O111  D    
O6    Zn12  S    
O124  H80   S    
O121  H79   S    
C36   S24   S    
O4    Zn14  S    
C94   H14   S    
O12   Zn14  S    
C89   C128  A    
C16   C28   A    
S11   O83   D    
C82   H2    S    
C91   C126  A    
O13   Zn1   S    
S23   O119  D    
C11   C161  A    
C157  S13   S    
C107  H27   S    
C24   H44   S    
O112  H76   S    
C148  S4    S    
C54   C60   A    
O82   H66   S    
C105  H25   S    
C96   C112  A    
C81   C120  A    
C83   C118  A    
C161  H33   S    
C156  C157  A    
C13   C167  A    
C92   H12   S    
C134  C150  A    
C88   C113  A    
C37   C49   A    
C116  C117  A    
C87   C114  A    
O19   Zn7   S    
C6    C162  A    
C16   C166  A    
C113  C136  A    
C91   H11   S    
S6    O69   D    
C114  C135  A    
C80   O36   A    
C89   H9    S    
C111  H31   S    
O4    Zn8   S    
C71   O41   A    
S15   O96   D    
S22   O118  S    
C13   C25   A    
C96   H16   S    
C76   O32   A    
O1    Zn3   S    
C52   H52   S    
O49   Zn7   S    
C133  C149  A    
C148  C149  A    
S8    O75   D    
C56   H56   S    
O41   Zn3   S    
S5    O67   S    
C75   O45   A    
C40   C52   A    
C71   C131  S    
C50   H50   S    
O1    Zn9   S    
C128  C137  A    
S19   O108  D    
S6    O68   D    
C98   H18   S    
O40   Zn2   S    
S24   O124  S    
C31   S19   S    
C63   O19   A    
C80   O50   A    
O4    Zn16  S    
O2    Zn4   S    
C72   O28   A    
C52   C58   A    
C9    C17   A    
C66   C136  S    
O32   Zn16  S    
C35   C43   A    
O103  H73   S    
C10   C164  A    
C132  C148  A    
O29   Zn13  S    
O17   Zn5   S    
C72   C130  S    
C38   C50   A    
C150  S6    S    
O94   H70   S    
S7    O73   S    
C61   O13   A    
C158  S14   S    
S1    O54   D    
C145  S1    S    
S17   O101  D    
O85   H67   S    
C81   C97   A    
O91   H69   S    
C31   C39   A    
C143  C159  A    
C32   C40   A    
S14   O92   D    
C1    O5    A    
O5    Zn11  S    
S10   O80   D    
O25   Zn11  S    
S11   O85   S    
C12   C18   A    
S22   O116  D    
C14   C168  A    
C65   C133  S    
C124  C125  A    
C76   C142  S    
