data_mof_unit_63972.cif
_audit_creation_date              2012-12-10T17:59:41-0500
_audit_creation_method            fapswitch 2.2
_symmetry_space_group_name_H-M    P1
_symmetry_Int_Tables_number       1
_space_group_crystal_system       triclinic
_cell_length_a                    18.646397
_cell_length_b                    18.684119
_cell_length_c                    18.737006
_cell_angle_alpha                 109.367672
_cell_angle_beta                  109.933584
_cell_angle_gamma                 109.299033
_cell_volume                      5013.36688009

loop_
_atom_site_label
_atom_site_type_symbol
_atom_type_description
_atom_site_fract_x
_atom_site_fract_y
_atom_site_fract_z
_atom_type_partial_charge
C1    C     C_R   0.619825 0.620296 0.499723 0.847988
C2    C     C_R   0.685579 0.686660 0.499665 -0.000986
C3    C     C_R   0.675491 0.490579 0.753085 -0.251728
C4    C     C_R   0.379836 0.500236 0.379142 0.951527
C5    C     C_R   0.738228 0.487702 0.816062 -0.198533
C6    C     C_R   0.815632 0.498851 0.815068 -0.035622
C7    C     C_R   0.829889 0.510520 0.750267 -0.255383
C8    C     C_R   0.766440 0.511644 0.685638 0.217506
C9    C     C_R   0.689285 0.501877 0.687938 -0.035004
C10   C     C_R   0.240860 0.319888 0.497270 -0.157263
C11   C     C_R   0.176338 0.254544 0.495086 -0.280068
C12   C     C_3   0.190961 0.415714 0.186803 -0.421443
C13   C     C_R   0.187069 0.185084 0.499071 -0.112134
C14   C     C_R   0.261739 0.179489 0.504084 0.489918
C15   C     C_R   0.323963 0.243127 0.501239 -0.299659
C16   C     C_R   0.379607 0.379754 0.499674 0.902137
C17   C     C_R   0.313924 0.313441 0.499700 -0.069091
C18   C     C_R   0.002392 0.619943 0.122123 0.892023
C19   C     C_R   0.124783 0.500104 0.124357 0.927688
C20   C     C_R   0.004639 0.379637 0.884357 0.892491
C21   C     C_R   0.882497 0.499657 0.882381 0.873292
C22   C     C_R   0.999527 0.878410 0.380036 0.909950
C23   C     C_3   0.216577 0.457249 0.284091 0.550203
C24   C     C_R   0.879570 0.879510 0.499604 0.841013
C25   C     C_R   0.999558 0.120288 0.619364 0.923967
C26   C     C_R   0.120423 0.119433 0.499348 0.924168
C27   C     C_R   0.925113 0.695304 0.162399 0.110999
C28   C     C_R   0.621346 0.500417 0.621188 0.882355
C29   C     C_R   0.922250 0.755691 0.227457 0.477999
C30   C     C_R   0.997024 0.809756 0.312897 -0.200221
C31   C     C_R   0.071046 0.799305 0.333796 -0.226468
C32   C     C_R   0.072142 0.736807 0.270103 -0.231618
C33   C     C_R   0.999690 0.685222 0.185392 -0.124522
C34   C     C_3   0.313977 0.500684 0.311821 -0.165131
C35   C     C_R   0.081871 0.326898 0.818075 -0.277705
C36   C     C_R   0.081191 0.263762 0.752506 0.182299
C37   C     C_R   0.000449 0.187070 0.685931 -0.085893
C38   C     C_R   0.921087 0.173846 0.684599 0.171311
C39   C     C_R   0.923295 0.237799 0.750900 -0.255166
C40   C     C_3   0.314554 0.584724 0.315833 -0.376103
C41   C     C_R   0.003347 0.313484 0.817053 -0.075341
C42   C     C_3   0.215286 0.540355 0.287641 -0.271094
C43   C     C_3   0.192104 0.500230 0.190902 -0.172193
C44   C     C_3   0.289938 0.544212 0.218925 0.480518
C45   C     C_R   0.757995 0.758150 0.579520 -0.191868
C46   C     C_3   0.289343 0.461262 0.215402 0.400488
C47   C     C_3   0.813254 0.612587 0.636281 -0.773707
C48   C     C_3   0.344990 0.131422 0.576599 0.092510
C49   C     C_3   0.400249 0.097854 0.547374 -0.338081
C50   C     C_3   0.483521 0.121335 0.625795 -0.970646
C51   C     C_3   0.856973 0.692225 0.025673 -0.732529
C52   C     C_3   0.794565 0.721872 0.232619 0.116320
C53   C     C_3   0.725477 0.627236 0.159429 -0.349788
C54   C     C_3   0.658944 0.584232 0.183014 -0.988964
C55   C     C_3   0.175393 0.310646 0.696546 -0.782660
C56   C     C_R   0.823186 0.820704 0.579462 -0.189199
C57   C     C_3   0.823019 0.023231 0.633552 -0.769228
C58   C     C_3   0.417035 0.629579 0.224308 0.096770
C59   C     C_3   0.455434 0.728904 0.269835 -0.349384
C60   C     C_3   0.555855 0.777520 0.323487 -0.957795
C61   C     C_3   0.291492 0.384086 0.090821 0.106585
C62   C     C_3   0.245623 0.284361 0.049454 -0.345028
C63   C     C_3   0.197007 0.238786 0.949515 -0.964061
C64   C     C_3   0.094728 0.383819 0.292545 0.081607
C65   C     C_3   0.083807 0.434733 0.367094 -0.342078
C66   C     C_3   0.986989 0.405356 0.337427 -0.962045
C67   C     C_R   0.813067 0.813651 0.499625 0.004255
C68   C     C_R   0.739209 0.743634 0.419901 -0.200872
C69   C     C_R   0.676142 0.678711 0.419787 -0.204120
H1    H     H_    0.181893 0.571507 0.314141 0.148095
H2    H     H_    0.128570 0.840235 0.399075 0.187283
H3    H     H_    0.129389 0.728479 0.286726 0.153042
H4    H     H_    0.143570 0.386193 0.869891 0.157979
H5    H     H_    0.862667 0.228565 0.750711 0.155539
H6    H     H_    0.138377 0.348009 0.133744 0.161469
H7    H     H_    0.764832 0.764412 0.641398 0.142709
H8    H     H_    0.880366 0.875228 0.641301 0.143085
H9    H     H_    0.731143 0.738820 0.358284 0.137259
H10   H     H_    0.817400 0.497534 0.602876 0.222380
H11   H     H_    0.880668 0.656063 0.694709 0.233427
H12   H     H_    0.619282 0.623694 0.357960 0.149338
H13   H     H_    0.769106 0.636828 0.647699 0.230352
H14   H     H_    0.815620 0.614956 0.578648 0.247754
H15   H     H_    0.324347 0.099677 0.612292 0.165528
H16   H     H_    0.386523 0.203342 0.624525 0.112778
H17   H     H_    0.360428 0.025460 0.504229 0.231269
H18   H     H_    0.419252 0.126966 0.509262 0.220415
H19   H     H_    0.525390 0.193602 0.668747 0.267245
H20   H     H_    0.521760 0.095616 0.602317 0.268178
H21   H     H_    0.466157 0.091861 0.664312 0.263063
H22   H     H_    0.837761 0.582701 0.039148 0.222723
H23   H     H_    0.615570 0.482409 0.754057 0.150964
H24   H     H_    0.913220 0.701083 0.014229 0.230694
H25   H     H_    0.864166 0.757196 0.061702 0.272179
H26   H     H_    0.794959 0.653536 0.961373 0.235280
H27   H     H_    0.759882 0.757943 0.247214 0.170185
H28   H     H_    0.832689 0.723220 0.294197 0.090979
H29   H     H_    0.689968 0.626471 0.097738 0.243801
H30   H     H_    0.758587 0.588463 0.148175 0.219657
H31   H     H_    0.692903 0.583076 0.243853 0.272407
H32   H     H_    0.610215 0.515776 0.128933 0.271278
H33   H     H_    0.623193 0.620434 0.192794 0.257306
H34   H     H_    0.727313 0.478637 0.866410 0.152618
H35   H     H_    0.216033 0.313937 0.815397 0.221273
H36   H     H_    0.184450 0.377715 0.720940 0.237310
H37   H     H_    0.118556 0.267039 0.628498 0.229527
H38   H     H_    0.235375 0.313158 0.695588 0.239388
H39   H     H_    0.786252 0.105900 0.601000 0.224350
H40   H     H_    0.814109 0.037629 0.691441 0.233242
H41   H     H_    0.878622 0.010120 0.645372 0.229543
H42   H     H_    0.762226 0.963538 0.575316 0.246364
H43   H     H_    0.437516 0.610383 0.175141 0.153405
H44   H     H_    0.445855 0.610680 0.272930 0.132093
H45   H     H_    0.890091 0.518667 0.749937 0.147938
H46   H     H_    0.434471 0.748203 0.219618 0.231474
H47   H     H_    0.429778 0.748380 0.314096 0.222652
H48   H     H_    0.577723 0.763929 0.378046 0.273798
H49   H     H_    0.581700 0.849144 0.351925 0.270639
H50   H     H_    0.583342 0.757086 0.281433 0.261026
H51   H     H_    0.342931 0.405259 0.073301 0.151079
H52   H     H_    0.243519 0.403841 0.062063 0.136778
H53   H     H_    0.295487 0.264842 0.072130 0.232117
H54   H     H_    0.197688 0.262437 0.070680 0.224923
H55   H     H_    0.144480 0.254753 0.925484 0.270614
H56   H     H_    0.233034 0.374225 0.495092 0.166083
H57   H     H_    0.165994 0.166734 0.921641 0.271668
H58   H     H_    0.243585 0.259563 0.926537 0.260417
H59   H     H_    0.060345 0.313159 0.271699 0.164513
H60   H     H_    0.061534 0.389734 0.234384 0.143546
H61   H     H_    0.112321 0.424279 0.422811 0.225988
H62   H     H_    0.119941 0.505861 0.390326 0.219374
H63   H     H_    0.957681 0.417079 0.282987 0.267055
H64   H     H_    0.981363 0.443235 0.393063 0.267457
H65   H     H_    0.949726 0.334587 0.315123 0.264650
H66   H     H_    0.118810 0.258794 0.491706 0.166187
H67   H     H_    0.380394 0.238471 0.501364 0.151178
H68   H     H_    0.366579 0.652409 0.369481 0.172411
N1    N     N_2   0.780721 0.523541 0.619448 -0.298970
N2    N     N_2   0.853238 0.646489 0.074410 -0.310322
N3    N     N_2   0.161386 0.277777 0.753263 -0.293895
N4    N     N_2   0.839511 0.096064 0.617623 -0.293717
O1    O     O_R   0.592040 0.539900 0.448690 -0.612179
O2    O     O_R   0.948580 0.908330 0.356880 -0.585672
O3    O     O_R   0.960490 0.908280 0.552000 -0.629938
O4    O     O_R   0.591220 0.643330 0.551330 -0.631370
O5    O     O_R   0.856260 0.908310 0.447800 -0.624334
O6    O     O_R   0.051420 0.091500 0.642940 -0.614169
O7    O     O_R   0.947190 0.091540 0.538750 -0.611859
O8    O     O_R   0.143740 0.091510 0.552020 -0.599239
O9    O     O_R   0.039510 0.091550 0.447830 -0.632512
O10   O     O_R   0.408100 0.448290 0.356370 -0.587439
O11   O     O_R   0.407270 0.551710 0.459000 -0.623068
O12   O     O_R   0.054890 0.643310 0.094620 -0.614582
O13   O     O_R   0.408780 0.356670 0.448670 -0.622013
O14   O     O_R   0.407960 0.460100 0.551310 -0.627557
O15   O     O_R   0.592730 0.448290 0.541000 -0.604204
O16   O     O_R   0.591900 0.551710 0.643630 -0.632997
O17   O     O_R   0.951430 0.539890 0.094630 -0.639971
O18   O     O_3   0.267762 0.106772 0.501721 -0.643149
O19   O     O_3   0.848172 0.764837 0.205055 -0.621821
O20   O     O_3   0.323898 0.587465 0.179147 -0.636645
O21   O     O_3   0.333845 0.423580 0.183266 -0.634806
O22   O     O_3   0.185115 0.411897 0.323515 -0.651354
O23   O     O_R   0.044450 0.448260 0.096050 -0.639993
O24   O     O_R   0.147910 0.551670 0.096030 -0.581278
O25   O     O_R   0.952840 0.356630 0.912840 -0.626764
O26   O     O_R   0.056290 0.460040 0.912820 -0.624439
O27   O     O_R   0.859820 0.448260 0.911420 -0.633083
O28   O     O_R   0.963280 0.551670 0.911400 -0.625329
O29   O     O_R   0.052810 0.908290 0.461080 -0.627661
Zn1   Zn    Zn3+2 0.500550 0.430940 0.431470 0.991502
Zn2   Zn    Zn3+2 0.499450 0.569060 0.568530 0.953237
Zn3   Zn    Zn3+2 0.934780 0.430920 0.003740 0.929699
Zn4   Zn    Zn3+2 0.072940 0.569020 0.003710 0.973186
Zn5   Zn    Zn3+2 0.069600 0.999890 0.569480 0.957384
Zn6   Zn    Zn3+2 0.930400 0.999940 0.430340 0.975534

loop_
_geom_bond_atom_site_label_1
_geom_bond_atom_site_label_2
_ccdc_geom_bond_type
C52   O19   S    
O9    Zn6   S    
C5    H34   S    
C27   C29   A    
C49   H18   S    
C54   H32   S    
C1    O4    A    
C35   C36   A    
C63   H55   S    
C7    C8    A    
C39   C41   A    
C53   C54   S    
C53   H30   S    
C48   H15   S    
C12   C23   S    
C37   C38   A    
C21   O27   A    
C55   H36   S    
C45   H7    S    
C3    C9    A    
C5    C6    A    
C47   H11   S    
C7    H45   S    
C8    N1    S    
C36   C37   A    
C12   C43   S    
O16   Zn2   S    
C30   C31   A    
O11   Zn2   S    
O6    Zn5   S    
C47   H13   S    
C16   C17   S    
C10   C17   A    
C52   H28   S    
C42   H1    S    
O10   Zn1   S    
C47   N1    S    
C60   H50   S    
C61   H52   S    
C1    C2    S    
C39   H5    S    
C4    O10   A    
C62   H54   S    
C1    O1    A    
O17   Zn3   S    
C24   C67   S    
C25   C37   S    
C66   H65   S    
O14   Zn2   S    
C50   H21   S    
C57   H40   S    
C57   H41   S    
C45   C56   A    
C44   C46   S    
C8    C9    A    
C64   H59   S    
O5    Zn6   S    
C22   O2    A    
C58   H44   S    
O28   Zn4   S    
C60   H49   S    
C34   C46   S    
C47   H14   S    
C2    C69   A    
C23   O22   S    
C50   H19   S    
C40   C42   S    
C65   H61   S    
O4    Zn2   S    
C59   C60   S    
C13   C14   A    
C61   H51   S    
C54   H31   S    
O2    Zn6   S    
C64   O22   S    
H39   N4    S    
C65   H62   S    
C19   C43   S    
C20   C41   S    
C29   O19   S    
C66   H63   S    
O29   Zn5   S    
C2    C45   A    
C68   H9    S    
O27   Zn3   S    
C4    O11   A    
C48   O18   S    
C4    C34   S    
C55   H37   S    
C67   C68   A    
C26   O9    A    
C38   C39   A    
C32   H3    S    
C46   O21   S    
C68   C69   A    
C15   H67   S    
C58   C59   S    
C59   H47   S    
C6    C21   S    
O12   Zn4   S    
C27   C33   A    
C56   H8    S    
C61   O21   S    
C55   H38   S    
C3    H23   S    
O8    Zn5   S    
C43   C44   S    
O23   Zn3   S    
C62   C63   S    
C18   O17   A    
C11   H66   S    
C66   H64   S    
C50   H20   S    
C23   C42   S    
C31   C32   A    
C23   C34   S    
C40   H68   S    
C16   O14   A    
C60   H48   S    
C25   O6    A    
O7    Zn6   S    
C36   N3    S    
C22   O29   A    
C18   O12   A    
C51   H24   S    
O26   Zn4   S    
H22   N2    S    
C12   C46   S    
C48   C49   S    
C49   C50   S    
C16   O13   A    
C38   N4    S    
C58   H43   S    
C13   C26   S    
C42   C43   S    
C10   H56   S    
C62   H53   S    
C52   C53   S    
C15   C17   A    
C20   O26   A    
C35   H4    S    
O25   Zn3   S    
C22   C30   S    
C14   C15   A    
C49   H17   S    
C54   H33   S    
C26   O8    A    
C3    C5    A    
C6    C7    A    
C53   H29   S    
C56   C67   A    
C20   O25   A    
O15   Zn1   S    
C57   N4    S    
C14   O18   S    
C64   C65   S    
O24   Zn4   S    
C24   O5    A    
C32   C33   A    
C11   C13   A    
C57   H42   S    
C24   O3    A    
C21   O28   A    
O3    Zn5   S    
C31   H2    S    
C28   O16   A    
O13   Zn1   S    
C52   H27   S    
C25   O7    A    
C19   O23   A    
C61   C62   S    
C35   C41   A    
C18   C33   S    
C27   N2    S    
C63   H57   S    
C69   H12   S    
C10   C11   A    
C55   N3    S    
C51   H25   S    
C29   C30   A    
H35   N3    S    
C40   C44   S    
H10   N1    S    
C64   H60   S    
C59   H46   S    
C65   C66   S    
C44   O20   S    
C12   H6    S    
C28   O15   A    
C48   H16   S    
C34   C40   S    
C19   O24   A    
C58   O20   S    
C63   H58   S    
C9    C28   S    
C51   H26   S    
O1    Zn1   S    
C51   N2    S    
