data_mof_unit_16762.cif
_audit_creation_date              2012-12-11T15:27:44-0500
_audit_creation_method            fapswitch 2.2
_symmetry_space_group_name_H-M    P1
_symmetry_Int_Tables_number       1
_space_group_crystal_system       triclinic
_cell_length_a                    23.205693
_cell_length_b                    7.296674
_cell_length_c                    15.07376
_cell_angle_alpha                 90.044548
_cell_angle_beta                  108.105814
_cell_angle_gamma                 89.957599
_cell_volume                      2425.97205351

loop_
_atom_site_label
_atom_site_type_symbol
_atom_type_description
_atom_site_fract_x
_atom_site_fract_y
_atom_site_fract_z
_atom_type_partial_charge
O1    O     O_R   0.711000 0.648610 0.341170 -0.532133
O2    O     O_R   0.289000 0.351390 0.658830 -0.529582
O3    O     O_R   0.789000 0.148610 0.158830 -0.537477
O4    O     O_R   0.211000 0.851390 0.841170 -0.529398
O5    O     O_R   0.829650 0.322030 0.336650 -0.538162
O6    O     O_R   0.170350 0.677970 0.663350 -0.536181
O7    O     O_R   0.670350 0.822030 0.163350 -0.536548
O8    O     O_R   0.329650 0.177970 0.836650 -0.536240
C1    C     C_R   0.854270 0.485791 0.356829 0.715569
C2    C     C_R   0.145716 0.514220 0.643223 0.712889
C3    C     C_R   0.645729 0.985809 0.143173 0.716870
C4    C     C_R   0.354283 0.014183 0.856787 0.712593
O9    O     O_R   0.713950 0.319280 0.352070 -0.539812
O10   O     O_R   0.286050 0.680720 0.647930 -0.542280
O11   O     O_R   0.786050 0.819280 0.147930 -0.536378
O12   O     O_R   0.213950 0.180720 0.852070 -0.542385
O13   O     O_R   0.672470 0.142870 0.174360 -0.533276
O14   O     O_R   0.327530 0.857130 0.825640 -0.532747
O15   O     O_R   0.827530 0.642870 0.325640 -0.530982
O16   O     O_R   0.172470 0.357130 0.674360 -0.532665
C5    C     C_R   0.702088 0.487574 0.376471 0.687103
C6    C     C_R   0.298096 0.512556 0.623732 0.686184
C7    C     C_R   0.797916 0.987339 0.123533 0.690752
C8    C     C_R   0.201991 0.012647 0.876366 0.686192
O17   O     O_3   0.736530 0.478650 0.191680 -0.379162
O18   O     O_3   0.263470 0.521350 0.808320 -0.377385
O19   O     O_3   0.763470 0.978650 0.308320 -0.376469
O20   O     O_3   0.236530 0.021350 0.691680 -0.377375
V1    V     V_3+5 0.752500 0.206170 0.260820 1.416906
V2    V     V_3+5 0.247500 0.793830 0.739180 1.427506
V3    V     V_3+5 0.747500 0.706170 0.239180 1.420639
V4    V     V_3+5 0.252500 0.293830 0.760820 1.427363
C9    C     C_R   0.826312 0.994413 0.049564 -0.107742
C10   C     C_R   0.173426 0.005947 0.950163 -0.123148
C11   C     C_R   0.673886 0.495679 0.450668 -0.106551
C12   C     C_R   0.326834 0.505668 0.550124 -0.122930
C13   C     C_R   0.822544 0.966229 0.888152 -0.158576
C14   C     C_R   0.176875 0.031933 0.111479 -0.159417
C15   C     C_R   0.678124 0.485111 0.612761 -0.159949
C16   C     C_R   0.323447 0.526654 0.388694 -0.159489
C17   C     C_R   0.792065 0.978204 0.954763 0.287961
C18   C     C_R   0.207633 0.015583 0.045355 0.295306
C19   C     C_R   0.708489 0.494364 0.545831 0.294177
C20   C     C_R   0.292684 0.511693 0.454850 0.295550
C21   C     C_R   0.889476 0.004022 0.075698 -0.264969
C22   C     C_R   0.110163 0.999194 0.923530 -0.210192
C23   C     C_R   0.610654 0.501343 0.424622 -0.264064
C24   C     C_R   0.390137 0.502594 0.576982 -0.211939
C25   C     C_R   0.920540 0.007688 0.008868 0.080246
C26   C     C_R   0.078880 0.997652 0.990240 0.078660
C27   C     C_R   0.579787 0.512026 0.491533 0.081054
C28   C     C_R   0.421572 0.499785 0.510451 0.078596
C29   C     C_R   0.886123 0.973475 0.914958 0.047086
C30   C     C_R   0.113248 0.029559 0.084261 0.004749
C31   C     C_R   0.614506 0.487138 0.586034 0.045483
C32   C     C_R   0.387081 0.526699 0.416015 0.004933
C33   C     C_R   0.984972 0.028776 0.033300 -0.065180
C34   C     C_R   0.014415 0.979581 0.965769 -0.008944
C35   C     C_R   0.515301 0.530524 0.466902 -0.064734
C36   C     C_R   0.486177 0.485055 0.535268 -0.008568
C37   C     C_R   0.978200 0.913042 0.876662 0.288942
C38   C     C_R   0.021243 0.096004 0.122460 0.300156
C39   C     C_R   0.522925 0.425548 0.625515 0.287625
C40   C     C_R   0.478773 0.592114 0.376794 0.299954
C41   C     C_R   0.915260 0.929525 0.850005 -0.244454
C42   C     C_R   0.084212 0.077339 0.148891 -0.179460
C43   C     C_R   0.585742 0.446575 0.651872 -0.248089
C44   C     C_R   0.415885 0.571865 0.350764 -0.179920
H1    H     H_    0.888592 0.888223 0.780204 0.121494
H2    H     H_    0.111434 0.121104 0.217805 0.130348
H3    H     H_    0.612771 0.411215 0.722445 0.127737
H4    H     H_    0.388456 0.611866 0.281306 0.130632
H5    H     H_    0.086325 0.008018 0.849802 0.161366
H6    H     H_    0.913651 0.997486 0.149178 0.150967
H7    H     H_    0.413743 0.515005 0.650621 0.161732
H8    H     H_    0.586263 0.487727 0.351420 0.150475
H9    H     H_    0.796547 0.946472 0.815411 0.125996
H10   H     H_    0.202749 0.054700 0.184029 0.125527
H11   H     H_    0.704268 0.468514 0.685651 0.126693
H12   H     H_    0.297531 0.546404 0.315921 0.126212
C45   C     C_1   0.416770 0.006913 0.918735 -0.189826
C46   C     C_1   0.583259 0.993047 0.081168 -0.197133
C47   C     C_1   0.083222 0.507018 0.581294 -0.188940
C48   C     C_1   0.916729 0.493041 0.418873 -0.195478
C49   C     C_1   0.469158 0.002334 0.969932 0.002636
C50   C     C_1   0.530877 0.997589 0.029946 -0.004162
C51   C     C_1   0.030829 0.502440 0.530114 0.003247
C52   C     C_1   0.969108 0.497648 0.470110 -0.003688
N1    N     N_2   0.272299 0.024098 0.075075 -0.520784
H13   H     H_    0.291782 0.057395 0.024407 0.242725
C53   C     C_3   0.302812 0.873388 0.133268 -0.558630
H14   H     H_    0.352549 0.896537 0.155348 0.202826
H15   H     H_    0.292530 0.742571 0.093672 0.194374
H16   H     H_    0.288791 0.863138 0.197128 0.204131
N2    N     N_2   0.727463 0.970584 0.925645 -0.524267
H17   H     H_    0.707485 0.029014 0.971114 0.239084
C54   C     C_3   0.701790 0.793932 0.891131 -0.544056
H18   H     H_    0.651534 0.803404 0.867567 0.195648
H19   H     H_    0.716086 0.689583 0.947426 0.198836
H20   H     H_    0.716221 0.750108 0.830684 0.195967
N3    N     N_2   0.228000 0.518667 0.424980 -0.520260
H21   H     H_    0.208343 0.552905 0.475356 0.242468
C55   C     C_3   0.197923 0.366553 0.367503 -0.558969
H22   H     H_    0.148161 0.389151 0.345038 0.201391
H23   H     H_    0.208370 0.236674 0.407820 0.195063
H24   H     H_    0.212125 0.354967 0.303852 0.203234
N4    N     N_2   0.773176 0.487838 0.575012 -0.519604
H25   H     H_    0.792456 0.449835 0.524723 0.242172
C56   C     C_3   0.803284 0.643295 0.629612 -0.559824
H26   H     H_    0.853155 0.622738 0.650846 0.197130
H27   H     H_    0.789993 0.658108 0.693946 0.197404
H28   H     H_    0.791784 0.770844 0.587519 0.197877
N5    N     N_2   0.003412 0.812677 0.816403 -0.540990
H29   H     H_    0.978441 0.818654 0.746623 0.253376
C57   C     C_3   0.021538 0.627416 0.846843 -0.524177
H30   H     H_    0.043558 0.563257 0.798813 0.193078
H31   H     H_    0.981230 0.544610 0.846262 0.195633
H32   H     H_    0.054587 0.627148 0.918261 0.213843
N6    N     N_2   0.997017 0.211407 0.178860 -0.527253
H33   H     H_    0.957057 0.279927 0.147163 0.264033
C58   C     C_3   0.008888 0.161817 0.276040 -0.550432
H34   H     H_    0.980528 0.247125 0.307227 0.199779
H35   H     H_    0.057035 0.187180 0.316122 0.199571
H36   H     H_    0.998029 0.015205 0.282599 0.193393
N7    N     N_2   0.498556 0.327871 0.687535 -0.540816
H37   H     H_    0.523528 0.338811 0.757144 0.255193
C59   C     C_3   0.481677 0.140360 0.660166 -0.520816
H38   H     H_    0.460198 0.078341 0.709354 0.191994
H39   H     H_    0.522514 0.058914 0.661896 0.196798
H40   H     H_    0.448548 0.134854 0.588876 0.212404
N8    N     N_2   0.502649 0.703792 0.318610 -0.527283
H41   H     H_    0.542576 0.773275 0.349090 0.264358
C60   C     C_3   0.490500 0.649176 0.222022 -0.551397
H42   H     H_    0.518707 0.731917 0.189530 0.199864
H43   H     H_    0.442285 0.673824 0.181932 0.200121
H44   H     H_    0.501376 0.501949 0.217222 0.193865

loop_
_geom_bond_atom_site_label_1
_geom_bond_atom_site_label_2
_ccdc_geom_bond_type
O17   V3    S    
C47   C51   T    
C51   C52   S    
O1    C5    A    
N3    H21   S    
O19   V1    S    
C9    C21   A    
O3    C7    A    
N2    H17   S    
C10   C18   A    
O15   V3    S    
C54   H18   S    
C25   C33   A    
C33   C38   A    
C42   H2    S    
C49   C50   S    
O7    C3    A    
C35   C40   A    
C26   C30   A    
C36   C39   A    
C40   C44   A    
O9    V1    S    
C23   H8    S    
C14   C18   A    
C56   H27   S    
O4    C8    A    
C25   C29   A    
C57   H30   S    
C2    C47   S    
O1    V3    S    
O13   V1    S    
O2    V4    S    
O3    V1    S    
C58   H36   S    
C28   C36   A    
C1    O15   A    
C15   C31   A    
C2    O16   A    
C7    C9    S    
O2    C6    A    
C60   H44   S    
N4    H25   S    
C16   H12   S    
C10   C22   A    
C20   N3    S    
N1    C53   S    
C11   C19   A    
C16   C20   A    
C43   H3    S    
C44   H4    S    
C13   C29   A    
C34   C37   A    
O11   C7    A    
C11   C23   A    
C35   C36   A    
O12   C8    A    
N4    C56   S    
C24   H7    S    
O10   V2    S    
C54   H19   S    
O5    V1    S    
N6    C58   S    
C3    C46   S    
C39   C43   A    
O7    V3    S    
C38   C42   A    
C26   C34   A    
C56   H28   S    
C53   H14   S    
O18   V4    S    
C23   C27   A    
C14   H10   S    
C16   C32   A    
C46   C50   T    
C13   H9    S    
C8    C10   S    
C21   H6    S    
O8    V4    S    
C59   H39   S    
O5    C1    A    
C53   H15   S    
C60   H42   S    
C31   C43   A    
C14   C30   A    
C40   N8    S    
C21   C25   A    
O8    C4    A    
C57   H32   S    
C38   N6    S    
O9    C5    A    
C55   H23   S    
C19   N4    S    
C58   H34   S    
C39   N7    S    
O14   V2    S    
O6    V2    S    
C37   N5    S    
N7    H37   S    
C12   C20   A    
C27   C35   A    
C59   H38   S    
C54   H20   S    
C29   C41   A    
C60   H43   S    
N5    H29   S    
O16   V4    S    
C57   H31   S    
C3    O13   A    
C48   C52   T    
N8    C60   S    
O6    C2    A    
C15   C19   A    
N6    H33   S    
N2    C54   S    
O11   V3    S    
C30   C42   A    
O12   V4    S    
C6    C12   S    
C22   C26   A    
C18   N1    S    
C9    C17   A    
O10   C6    A    
O20   V2    S    
C5    C11   S    
C59   H40   S    
C32   C44   A    
C56   H26   S    
C53   H16   S    
C33   C34   A    
C17   N2    S    
C41   H1    S    
C4    C45   S    
C12   C24   A    
C55   H24   S    
C27   C31   A    
C13   C17   A    
N8    H41   S    
O4    V2    S    
C58   H35   S    
C1    C48   S    
C37   C41   A    
C24   C28   A    
N3    C55   S    
C4    O14   A    
C55   H22   S    
N7    C59   S    
N1    H13   S    
C22   H5    S    
C45   C49   T    
C28   C32   A    
C15   H11   S    
N5    C57   S    
