data_mof_unit_64656.cif
_audit_creation_date              2012-12-10T17:37:50-0500
_audit_creation_method            fapswitch 2.2
_symmetry_space_group_name_H-M    P1
_symmetry_Int_Tables_number       1
_space_group_crystal_system       triclinic
_cell_length_a                    36.748186
_cell_length_b                    30.272251
_cell_length_c                    21.387815
_cell_angle_alpha                 89.995841
_cell_angle_beta                  54.975359
_cell_angle_gamma                 89.999223
_cell_volume                      19484.116468

loop_
_atom_site_label
_atom_site_type_symbol
_atom_type_description
_atom_site_fract_x
_atom_site_fract_y
_atom_site_fract_z
_atom_type_partial_charge
C1    C     C_R   0.086965 0.499999 0.412052 0.898872
C2    C     C_R   0.658172 0.473480 0.882104 -0.101731
C3    C     C_R   0.969863 0.156778 0.992111 -0.078103
C4    C     C_R   0.499503 0.634042 0.000882 -0.117837
C5    C     C_R   0.000510 0.134044 0.999082 -0.117801
C6    C     C_R   0.471121 0.702535 0.986578 0.030505
C7    C     C_R   0.526019 0.702812 0.018545 0.028828
C8    C     C_R   0.974032 0.202822 0.981345 0.028765
C9    C     C_R   0.028888 0.202532 0.013407 0.030509
C10   C     C_R   0.498580 0.725923 0.002377 0.042333
C11   C     C_R   0.001447 0.225926 0.997570 0.042329
C12   C     C_R   0.448815 0.725877 0.960411 -0.065263
C13   C     C_R   0.841829 0.973433 0.117993 -0.101834
C14   C     C_R   0.547520 0.726371 0.046025 -0.064075
C15   C     C_R   0.952559 0.226391 0.953818 -0.064080
C16   C     C_R   0.051176 0.225867 0.039612 -0.065279
C17   C     C_R   0.952154 0.272625 0.955110 -0.083031
C18   C     C_R   0.051427 0.272143 0.039180 -0.084938
C19   C     C_R   0.448558 0.772153 0.960863 -0.084928
C20   C     C_R   0.547916 0.772605 0.044759 -0.083062
C21   C     C_R   0.973327 0.295651 0.983703 0.025487
C22   C     C_R   0.029142 0.295602 0.012946 0.025025
C23   C     C_R   0.470857 0.795603 0.987076 0.025033
C24   C     C_R   0.157104 0.969169 0.881858 -0.105024
C25   C     C_R   0.526709 0.795643 0.016234 0.025480
C26   C     C_3   0.971475 0.468568 0.798365 0.342337
C27   C     C_3   0.020164 0.463873 0.209695 0.341548
C28   C     C_3   0.479767 0.963901 0.790384 0.341592
C29   C     C_3   0.528395 0.968483 0.201767 0.342343
C30   C     C_R   0.001338 0.272357 0.998042 0.048538
C31   C     C_R   0.498683 0.772354 0.001925 0.048543
C32   C     C_R   0.968096 0.341415 0.997492 -0.097773
C33   C     C_R   0.033124 0.341693 0.001741 -0.086185
C34   C     C_R   0.466866 0.841690 0.998309 -0.086261
C35   C     C_R   0.365103 0.501436 0.131477 -0.181164
C36   C     C_R   0.531924 0.841413 0.002475 -0.097615
C37   C     C_R   0.000290 0.364787 0.000216 -0.135126
C38   C     C_R   0.499710 0.864785 0.999801 -0.135164
C39   C     C_R   0.534304 0.342685 0.934796 -0.066642
C40   C     C_R   0.466360 0.342555 0.064670 -0.066265
C41   C     C_R   0.033663 0.842562 0.935370 -0.066276
C42   C     C_R   0.965697 0.842682 0.065217 -0.066588
C43   C     C_R   0.500280 0.365316 0.999806 -0.150890
C44   C     C_R   0.999725 0.865317 0.000211 -0.150864
C45   C     C_R   0.463121 0.296378 0.061205 0.014921
C46   C     C_R   0.634657 0.502707 0.867071 -0.187495
C47   C     C_R   0.537139 0.296334 0.937454 0.014712
C48   C     C_R   0.962867 0.796330 0.062559 0.014709
C49   C     C_R   0.036906 0.796387 0.938851 0.014923
C50   C     C_R   0.500028 0.273170 0.999210 0.004201
C51   C     C_R   0.999988 0.773173 0.000825 0.004188
C52   C     C_R   0.424236 0.272613 0.116479 0.318192
C53   C     C_R   0.575701 0.272309 0.881620 0.316273
C54   C     C_R   0.924298 0.772301 0.118372 0.316295
C55   C     C_R   0.075804 0.772630 0.883616 0.318208
C56   C     C_R   0.925751 0.726117 0.120440 -0.095201
C57   C     C_R   0.865343 0.002731 0.132915 -0.187271
C58   C     C_R   0.074786 0.726444 0.881807 -0.095884
C59   C     C_R   0.425260 0.226428 0.118291 -0.095892
C60   C     C_R   0.574245 0.226126 0.879546 -0.095186
C61   C     C_R   0.964735 0.703261 0.064376 -0.041619
C62   C     C_R   0.035801 0.703426 0.937437 -0.044958
C63   C     C_R   0.464235 0.203416 0.062621 -0.044905
C64   C     C_R   0.535267 0.203265 0.935633 -0.041639
C65   C     C_3   0.999714 0.499234 0.811681 -0.312044
C66   C     C_3   0.999734 0.500264 0.188953 -0.314338
C67   C     C_3   0.500266 0.000256 0.811047 -0.314274
C68   C     C_R   0.134898 0.001457 0.868516 -0.181186
C69   C     C_3   0.500275 0.999255 0.188331 -0.312018
C70   C     C_R   0.000170 0.726693 0.000904 -0.020380
C71   C     C_R   0.499848 0.226690 0.999131 -0.020383
C72   C     C_R   0.969255 0.657338 0.067697 0.301090
C73   C     C_R   0.031385 0.657556 0.933501 0.307781
C74   C     C_R   0.468653 0.157544 0.066534 0.307674
C75   C     C_R   0.530740 0.157345 0.932309 0.301124
C76   C     C_R   0.000153 0.634611 0.000368 -0.214392
C77   C     C_R   0.499857 0.134609 0.999643 -0.214337
C78   C     C_3   0.040753 0.490815 0.730228 -0.265891
C79   C     C_R   0.342851 0.538312 0.177553 0.329722
C80   C     C_3   0.957804 0.501163 0.271393 -0.267548
C81   C     C_3   0.542196 0.001081 0.728603 -0.267518
C82   C     C_3   0.459203 0.990991 0.269821 -0.265933
C83   C     C_3   0.028001 0.530814 0.702344 0.362454
C84   C     C_3   0.979390 0.537081 0.290827 0.377425
C85   C     C_3   0.520674 0.037037 0.709101 0.377279
C86   C     C_3   0.472112 0.030940 0.297543 0.362637
C87   C     C_3   0.986868 0.539229 0.784148 0.355288
C88   C     C_3   0.021319 0.536217 0.208094 0.341652
C89   C     C_3   0.478746 0.036246 0.791837 0.341745
C90   C     C_R   0.656161 0.536565 0.813016 0.332558
C91   C     C_3   0.513275 0.039201 0.215703 0.355127
C92   C     C_3   0.958848 0.508603 0.770090 -0.227446
C93   C     C_3   0.041705 0.499827 0.229296 -0.229754
C94   C     C_3   0.458291 0.999892 0.770712 -0.229712
C95   C     C_3   0.541180 0.008469 0.229878 -0.227430
C96   C     C_1   0.131899 0.434108 0.294381 0.235322
C97   C     C_1   0.869024 0.448035 0.721468 0.207964
C98   C     C_1   0.630993 0.947825 0.278739 0.208351
C99   C     C_1   0.368114 0.934209 0.705788 0.235098
C100  C     C_1   0.206375 0.421492 0.145895 0.325300
C101  C     C_R   0.843850 0.036690 0.186766 0.332500
C102  C     C_1   0.793401 0.448061 0.870825 0.324366
C103  C     C_1   0.706616 0.947650 0.129384 0.324359
C104  C     C_1   0.293620 0.921681 0.854288 0.325294
C105  C     C_1   0.567617 0.632679 0.997209 0.264474
C106  C     C_1   0.430300 0.631733 0.008251 0.242915
C107  C     C_1   0.069699 0.131727 0.991757 0.242841
C108  C     C_1   0.932442 0.132694 0.002607 0.264591
C109  C     C_1   0.429926 0.703156 0.925234 0.214439
C110  C     C_1   0.565377 0.703965 0.083146 0.213348
C111  C     C_1   0.934739 0.203997 0.916628 0.213352
C112  C     C_R   0.913412 0.499976 0.587159 0.913005
C113  C     C_R   0.157147 0.038314 0.822364 0.329721
C114  C     C_1   0.070050 0.203136 0.074808 0.214434
C115  C     C_1   0.934205 0.295813 0.918773 0.235759
C116  C     C_1   0.070746 0.294703 0.073748 0.245035
C117  C     C_1   0.429217 0.794722 0.926337 0.245003
C118  C     C_1   0.565898 0.795777 0.081050 0.235896
C119  C     C_1   0.928443 0.363604 0.013789 0.281518
C120  C     C_1   0.072075 0.364694 0.986920 0.289226
C121  C     C_1   0.427897 0.864684 0.013194 0.289241
C122  C     C_1   0.571576 0.863610 0.986164 0.281702
C123  C     C_1   0.564438 0.367703 0.865478 0.315576
C124  C     C_R   0.296951 0.543463 0.211082 -0.035370
C125  C     C_1   0.436897 0.367081 0.134913 0.315482
C126  C     C_1   0.063143 0.867093 0.865132 0.315428
C127  C     C_1   0.935556 0.867693 0.134530 0.315561
C128  C     C_1   0.884834 0.702687 0.174605 0.429592
C129  C     C_1   0.116033 0.703262 0.828512 0.430229
C130  C     C_1   0.384025 0.203239 0.171641 0.430241
C131  C     C_1   0.615154 0.202699 0.825348 0.429598
C132  C     C_1   0.086070 0.480890 0.706834 0.426417
C133  C     C_1   0.911353 0.502056 0.296152 0.466887
C134  C     C_1   0.588651 0.001896 0.703828 0.466374
C135  C     C_R   0.703168 0.537334 0.764985 -0.032184
C136  C     C_1   0.413845 0.981241 0.293269 0.426897
C137  C     C_1   0.914140 0.519557 0.791587 0.350581
C138  C     C_1   0.087875 0.500151 0.205750 0.353548
C139  C     C_1   0.412119 0.000307 0.794273 0.353510
C140  C     C_1   0.585932 0.019261 0.208320 0.350587
C141  C     C_1   0.366457 0.428378 0.080874 0.325952
C142  C     C_1   0.636335 0.433365 0.925023 0.321456
C143  C     C_1   0.863662 0.933266 0.075276 0.321324
C144  C     C_1   0.133555 0.928433 0.919221 0.326006
C145  C     C_1   0.294745 0.624197 0.239908 0.413532
C146  C     C_R   0.796835 0.037535 0.234698 -0.032038
C147  C     C_1   0.707045 0.591032 0.670999 0.420951
C148  C     C_1   0.792895 0.091772 0.328123 0.421248
C149  C     C_1   0.205302 0.124151 0.759632 0.413568
C150  C     C_R   0.203058 0.043458 0.788758 -0.035357
C151  C     C_R   0.273899 0.509129 0.201926 -0.016802
C152  C     C_R   0.726702 0.509718 0.784580 -0.014246
C153  C     C_R   0.773307 0.009782 0.215261 -0.014268
C154  C     C_R   0.226108 0.009154 0.797989 -0.016790
C155  C     C_R   0.297391 0.474270 0.149465 0.006537
C156  C     C_R   0.586593 0.999977 0.412833 0.912808
C157  C     C_R   0.703433 0.481098 0.848565 0.005025
C158  C     C_R   0.796577 0.981039 0.151456 0.005048
C159  C     C_R   0.202615 0.974333 0.850549 0.006525
C160  C     C_R   0.273009 0.582024 0.251559 -0.126507
C161  C     C_R   0.727586 0.565246 0.699986 -0.140357
C162  C     C_R   0.772392 0.065643 0.299435 -0.140648
C163  C     C_R   0.227016 0.081983 0.748128 -0.126610
C164  C     C_R   0.226496 0.581082 0.298231 0.380056
C165  C     C_R   0.773976 0.565645 0.656384 0.371713
C166  C     C_R   0.725999 0.065993 0.343035 0.371637
C167  C     C_R   0.413038 0.999997 0.587939 0.898964
C168  C     C_R   0.273528 0.081019 0.701415 0.379988
C169  C     C_R   0.203940 0.541958 0.303578 -0.058966
C170  C     C_R   0.796937 0.534306 0.670384 -0.057925
C171  C     C_R   0.703065 0.034483 0.329284 -0.057822
C172  C     C_R   0.296072 0.041917 0.696202 -0.058934
C173  C     C_R   0.000060 0.500007 0.621280 0.950590
C174  C     C_R   0.999908 0.500083 0.378776 0.964082
C175  C     C_R   0.500090 0.000080 0.621227 0.963876
C176  C     C_R   0.499940 0.000011 0.378719 0.950667
C177  C     C_R   0.227080 0.508868 0.247465 -0.023524
C178  C     C_3   0.999882 0.500048 0.688740 -0.320399
C179  C     C_R   0.773514 0.509332 0.738870 -0.021929
C180  C     C_R   0.726493 0.009380 0.260961 -0.021960
C181  C     C_R   0.272928 0.008883 0.752437 -0.023540
C182  C     C_R   0.203659 0.474752 0.238987 0.006219
C183  C     C_R   0.796766 0.483056 0.760654 0.009661
C184  C     C_R   0.703245 0.982956 0.239350 0.009599
C185  C     C_R   0.296345 0.974812 0.761028 0.006254
C186  C     C_R   0.227881 0.447154 0.173340 -0.115587
C187  C     C_R   0.772366 0.463601 0.834604 -0.117035
C188  C     C_R   0.727648 0.963370 0.165509 -0.117009
C189  C     C_3   0.999856 0.500538 0.311588 -0.320378
C190  C     C_R   0.272119 0.947273 0.826757 -0.115574
C191  C     C_R   0.274498 0.446802 0.129097 0.344930
C192  C     C_R   0.725966 0.461868 0.877515 0.344017
C193  C     C_R   0.774049 0.961668 0.122603 0.344041
C194  C     C_R   0.225504 0.946917 0.870994 0.344921
C195  C     C_R   0.159128 0.535134 0.362344 0.392957
C196  C     C_R   0.842456 0.526394 0.617297 0.388507
C197  C     C_R   0.657562 0.026547 0.382461 0.388574
C198  C     C_R   0.340884 0.035066 0.637464 0.392918
C199  C     C_R   0.135445 0.500883 0.356754 -0.208425
C200  C     C_3   0.500139 0.000529 0.688417 -0.320409
C201  C     C_R   0.865357 0.500606 0.638067 -0.188844
C202  C     C_R   0.634654 0.000616 0.361878 -0.189095
C203  C     C_R   0.364561 0.000874 0.643197 -0.208261
C204  C     C_R   0.157201 0.470693 0.295222 -0.105955
C205  C     C_R   0.843355 0.478314 0.708255 -0.112189
C206  C     C_R   0.656657 0.978209 0.291796 -0.112091
C207  C     C_R   0.342805 0.970745 0.704822 -0.105992
C208  C     C_R   0.000040 0.413150 0.000270 0.875749
C209  C     C_R   0.499959 0.913149 0.999739 0.875842
C210  C     C_R   0.999853 0.499504 0.878726 1.000584
C211  C     C_3   0.500115 0.000066 0.311264 -0.320447
C212  C     C_R   0.000050 0.500074 0.121404 1.007899
C213  C     C_R   0.499950 0.000071 0.878595 1.007904
C214  C     C_R   0.500145 0.999514 0.121277 1.000765
C215  C     C_R   0.000024 0.586733 0.000043 1.016772
C216  C     C_R   0.499978 0.086732 0.999956 1.016819
C217  C     C_3   0.012652 0.459969 0.716648 0.343951
C218  C     C_3   0.978124 0.464666 0.292382 0.349707
C219  C     C_3   0.521807 0.964619 0.707692 0.349585
C220  C     C_3   0.487187 0.960038 0.283520 0.343946
C221  C     C_R   0.500094 0.413333 0.999929 0.835634
C222  C     C_R   0.342902 0.469120 0.118174 -0.105051
C223  C     C_R   0.999905 0.913334 0.000077 0.835653
C224  C     C_R   0.413262 0.500102 0.086337 0.915714
C225  C     C_R   0.586663 0.500276 0.913597 0.925555
C226  C     C_R   0.913337 0.000280 0.086402 0.925634
C227  C     C_R   0.086737 0.000110 0.913663 0.915725
C228  C     C_R   0.499991 0.586394 0.000061 0.926048
C229  C     C_R   0.000009 0.086395 0.999933 0.926157
C230  C     C_R   0.530178 0.656769 0.007781 -0.078177
C231  C     C_R   0.467881 0.656375 0.996084 -0.073672
C232  C     C_R   0.032125 0.156373 0.003905 -0.073697
Cl1   Cl    Cl    0.933724 0.427391 0.862156 -0.527296
Cl2   Cl    Cl    0.869906 0.538574 0.518618 -0.458363
Cl3   Cl    Cl    0.630173 0.038891 0.481063 -0.457899
Cl4   Cl    Cl    0.364858 0.061585 0.547987 -0.411768
Cl5   Cl    Cl    0.303097 0.416186 0.042305 -0.532079
Cl6   Cl    Cl    0.696556 0.441254 0.972622 -0.535013
Cl7   Cl    Cl    0.803465 0.940899 0.027597 -0.534986
Cl8   Cl    Cl    0.196897 0.916380 0.957874 -0.532083
Cl9   Cl    Cl    0.030116 0.406724 0.673366 -0.483041
Cl10  Cl    Cl    0.948983 0.417034 0.348171 -0.469948
Cl11  Cl    Cl    0.550859 0.916935 0.652009 -0.470166
Cl12  Cl    Cl    0.046972 0.415237 0.155861 -0.543673
Cl13  Cl    Cl    0.469514 0.906863 0.327032 -0.482882
Cl14  Cl    Cl    0.371611 0.298838 0.177018 -0.553321
Cl15  Cl    Cl    0.628549 0.298013 0.820420 -0.558373
Cl16  Cl    Cl    0.871448 0.798002 0.179543 -0.558301
Cl17  Cl    Cl    0.128429 0.798866 0.823128 -0.553341
Cl18  Cl    Cl    0.941974 0.628823 0.156378 -0.515048
Cl19  Cl    Cl    0.059577 0.629416 0.844405 -0.493871
Cl20  Cl    Cl    0.440510 0.129384 0.155616 -0.494179
Cl21  Cl    Cl    0.557994 0.128843 0.843627 -0.514878
Cl22  Cl    Cl    0.064708 0.573413 0.641278 -0.364782
Cl23  Cl    Cl    0.452867 0.915314 0.844322 -0.543578
Cl24  Cl    Cl    0.952730 0.586416 0.342988 -0.358266
Cl25  Cl    Cl    0.547411 0.086331 0.656854 -0.358170
Cl26  Cl    Cl    0.435573 0.073677 0.358453 -0.364534
Cl27  Cl    Cl    0.969539 0.591547 0.830796 -0.458427
Cl28  Cl    Cl    0.049616 0.583650 0.150851 -0.463647
Cl29  Cl    Cl    0.450537 0.083726 0.848988 -0.463568
Cl30  Cl    Cl    0.530794 0.091456 0.168848 -0.458544
Cl31  Cl    Cl    0.372899 0.574367 0.198197 -0.582452
Cl32  Cl    Cl    0.622574 0.579516 0.814535 -0.607862
Cl33  Cl    Cl    0.877501 0.079594 0.185173 -0.608293
Cl34  Cl    Cl    0.565981 0.927164 0.138135 -0.527546
Cl35  Cl    Cl    0.127069 0.074353 0.801756 -0.582556
Cl36  Cl    Cl    0.197303 0.631494 0.338711 -0.445798
Cl37  Cl    Cl    0.801868 0.610691 0.592536 -0.437071
Cl38  Cl    Cl    0.698044 0.111164 0.406526 -0.437275
Cl39  Cl    Cl    0.302741 0.131399 0.660704 -0.445761
Cl40  Cl    Cl    0.135170 0.561782 0.451705 -0.411341
N1    N     N_1   0.111406 0.405041 0.294391 -0.118463
N2    N     N_1   0.400422 0.611923 0.018300 -0.157540
N3    N     N_1   0.099573 0.111914 0.981721 -0.157470
N4    N     N_1   0.902711 0.113326 0.011213 -0.129364
N5    N     N_1   0.414967 0.685400 0.896913 -0.131390
N6    N     N_1   0.579510 0.686442 0.113023 -0.129037
N7    N     N_1   0.920637 0.186484 0.886697 -0.129053
N8    N     N_1   0.084998 0.185372 0.103145 -0.131394
N9    N     N_1   0.919998 0.313939 0.889520 -0.070913
N10   N     N_1   0.086149 0.312182 0.101541 -0.075906
N11   N     N_1   0.413796 0.812209 0.898579 -0.075851
N12   N     N_1   0.889857 0.423942 0.731086 -0.104943
N13   N     N_1   0.580134 0.813887 0.110267 -0.070958
N14   N     N_1   0.896636 0.381187 0.027601 -0.092924
N15   N     N_1   0.103281 0.383007 0.974356 -0.103880
N16   N     N_1   0.396675 0.882989 0.025809 -0.103828
N17   N     N_1   0.603382 0.881200 0.972343 -0.093130
N18   N     N_1   0.588110 0.388007 0.810570 -0.120624
N19   N     N_1   0.413747 0.386946 0.190599 -0.113741
N20   N     N_1   0.086306 0.886962 0.809450 -0.113767
N21   N     N_1   0.911878 0.887992 0.189436 -0.120623
N22   N     N_1   0.852021 0.684247 0.217809 -0.080689
N23   N     N_1   0.610164 0.923650 0.269244 -0.105132
N24   N     N_1   0.149107 0.685017 0.786013 -0.078444
N25   N     N_1   0.350960 0.184988 0.214184 -0.078451
N26   N     N_1   0.647961 0.184262 0.782117 -0.080701
N27   N     N_1   0.121770 0.473074 0.688388 -0.127562
N28   N     N_1   0.874754 0.502782 0.315709 -0.113866
N29   N     N_1   0.625254 0.002562 0.684257 -0.114102
N30   N     N_1   0.378112 0.973564 0.311758 -0.127388
N31   N     N_1   0.878912 0.528506 0.808765 -0.173698
N32   N     N_1   0.124381 0.500721 0.186641 -0.180951
N33   N     N_1   0.375611 0.000952 0.813393 -0.180895
N34   N     N_1   0.388613 0.905181 0.705877 -0.118346
N35   N     N_1   0.621197 0.028084 0.191088 -0.173838
N36   N     N_1   0.385469 0.396019 0.051315 -0.114249
N37   N     N_1   0.618740 0.401418 0.958897 -0.115617
N38   N     N_1   0.881252 0.901279 0.041561 -0.115601
N39   N     N_1   0.114546 0.896078 0.948832 -0.114205
N40   N     N_1   0.311769 0.658084 0.230656 -0.106643
N41   N     N_1   0.691217 0.611681 0.646838 -0.083395
N42   N     N_1   0.808682 0.112706 0.352057 -0.083277
N43   N     N_1   0.188295 0.158034 0.768765 -0.106522
N44   N     N_1   0.189637 0.401052 0.123168 -0.099750
N45   N     N_1   0.809765 0.435754 0.900487 -0.087604
N46   N     N_1   0.690256 0.935198 0.099796 -0.087825
N47   N     N_1   0.310355 0.901298 0.877084 -0.099651
N48   N     N_1   0.597361 0.613306 0.988543 -0.129261
O1    O     O_R   0.066070 0.537300 0.433950 -0.568845
O2    O     O_R   0.566110 0.499970 0.986370 -0.615837
O3    O     O_R   0.933890 0.999970 0.013630 -0.615815
O4    O     O_R   0.066110 0.999970 0.986370 -0.621596
O5    O     O_R   0.500060 0.566050 0.052450 -0.601562
O6    O     O_R   0.499940 0.566050 0.947550 -0.596722
O7    O     O_R   0.000060 0.066050 0.052450 -0.596679
O8    O     O_R   0.999940 0.066050 0.947550 -0.601593
O9    O     O_R   0.066060 0.462690 0.433950 -0.619090
O10   O     O_R   0.933940 0.462690 0.566050 -0.608403
O11   O     O_R   0.566060 0.962690 0.433950 -0.608552
O12   O     O_R   0.933930 0.537300 0.566050 -0.583832
O13   O     O_R   0.433940 0.962690 0.566050 -0.618977
O14   O     O_R   0.999990 0.537300 0.593030 -0.583595
O15   O     O_R   0.000010 0.537300 0.406970 -0.577939
O16   O     O_R   0.499990 0.037300 0.593030 -0.577948
O17   O     O_R   0.500010 0.037300 0.406970 -0.583503
O18   O     O_R   0.999980 0.462680 0.593030 -0.580376
O19   O     O_R   0.000020 0.462680 0.406970 -0.584585
O20   O     O_R   0.499980 0.962680 0.593030 -0.584550
O21   O     O_R   0.500020 0.962680 0.406970 -0.580399
O22   O     O_R   0.962690 0.433950 0.037260 -0.620709
O23   O     O_R   0.566070 0.037300 0.433950 -0.583613
O24   O     O_R   0.037310 0.433950 0.962740 -0.626062
O25   O     O_R   0.462690 0.933950 0.037260 -0.626000
O26   O     O_R   0.537310 0.933950 0.962740 -0.620761
O27   O     O_R   0.962690 0.500030 0.944250 -0.584364
O28   O     O_R   0.037310 0.500030 0.055750 -0.583531
O29   O     O_R   0.462690 0.000030 0.944250 -0.583541
O30   O     O_R   0.537310 0.000030 0.055750 -0.584363
O31   O     O_R   0.037300 0.500060 0.869680 -0.621481
O32   O     O_R   0.962700 0.500060 0.130320 -0.628036
O33   O     O_R   0.537300 0.000060 0.869680 -0.627989
O34   O     O_R   0.433930 0.037300 0.566050 -0.568971
O35   O     O_R   0.462700 0.000060 0.130320 -0.621607
O36   O     O_R   0.962680 0.566120 0.037310 -0.586210
O37   O     O_R   0.037320 0.566120 0.962690 -0.581180
O38   O     O_R   0.462680 0.066120 0.037310 -0.581271
O39   O     O_R   0.537320 0.066120 0.962690 -0.586179
O40   O     O_R   0.499970 0.433870 0.052530 -0.619524
O41   O     O_R   0.500030 0.433870 0.947470 -0.618209
O42   O     O_R   0.999970 0.933870 0.052530 -0.618236
O43   O     O_R   0.000030 0.933870 0.947470 -0.619476
O44   O     O_R   0.433940 0.499980 0.118610 -0.566136
O45   O     O_R   0.566060 0.499980 0.881390 -0.577989
O46   O     O_R   0.933940 0.999980 0.118610 -0.577946
O47   O     O_R   0.066060 0.999980 0.881390 -0.566119
O48   O     O_R   0.433890 0.499970 0.013630 -0.621588
Zn1   Zn    Zn3+2 1.000000 0.549810 0.500000 1.175579
Zn2   Zn    Zn3+2 0.499980 0.499960 0.929910 1.080543
Zn3   Zn    Zn3+2 0.000020 0.999960 0.070090 1.080586
Zn4   Zn    Zn3+2 0.999980 0.999960 0.929910 1.089930
Zn5   Zn    Zn3+2 0.500000 0.049810 0.500000 1.175713
Zn6   Zn    Zn3+2 0.000000 0.450170 0.500000 1.123335
Zn7   Zn    Zn3+2 0.500000 0.950170 0.500000 1.123327
Zn8   Zn    Zn3+2 0.950180 0.500030 0.049790 1.100181
Zn9   Zn    Zn3+2 0.049820 0.500030 0.950210 1.103822
Zn10  Zn    Zn3+2 0.450180 0.000030 0.049790 1.103741
Zn11  Zn    Zn3+2 0.549820 0.000030 0.950210 1.100173
Zn12  Zn    Zn3+2 0.500020 0.499960 0.070090 1.089904

loop_
_geom_bond_atom_site_label_1
_geom_bond_atom_site_label_2
_ccdc_geom_bond_type
C191  Cl5   S    
C120  N15   T    
C216  O38   A    
C132  N27   T    
C159  C194  A    
C185  C207  A    
C27   Cl12  S    
C20   C118  S    
C164  C169  A    
C144  N39   T    
C81   C134  S    
C208  O24   A    
C128  N22   T    
C150  C163  A    
O19   Zn6   S    
C213  O33   A    
C26   C92   S    
C177  C182  A    
C62   C70   A    
C28   C94   S    
C89   C94   S    
C176  O21   A    
C193  Cl7   S    
C156  O11   A    
C40   C43   A    
C49   C51   A    
C84   Cl24  S    
C55   Cl17  S    
O47   Zn4   S    
C65   C78   S    
C151  C155  A    
C107  N3    T    
C47   C53   A    
C1    O9    A    
O30   Zn11  S    
O31   Zn9   S    
C153  C180  A    
C94   C139  S    
C42   C44   A    
C92   C137  S    
C41   C49   A    
C65   C87   S    
C190  C194  A    
C29   C69   S    
C158  C193  A    
C210  O27   A    
O41   Zn2   S    
C185  C190  A    
O29   Zn10  S    
C3    C8    A    
C97   N12   T    
C87   Cl27  S    
C133  N28   T    
O5    Zn12  S    
C108  N4    T    
C215  O37   A    
C213  O29   A    
C17   C21   A    
C80   C133  S    
C99   C207  S    
C23   C31   A    
C19   C23   A    
C113  Cl35  S    
C211  C220  S    
C146  C162  A    
C192  Cl6   S    
O7    Zn3   S    
C44   C223  S    
C119  N14   T    
O40   Zn12  S    
C63   C74   A    
C63   C71   A    
C199  C204  A    
C37   C208  S    
O2    Zn12  S    
C27   C93   S    
C89   Cl29  S    
C66   C212  S    
C143  N38   T    
O34   Zn5   S    
C39   C47   A    
C152  C157  A    
C167  O34   A    
C83   C178  S    
O32   Zn8   S    
C69   C214  S    
C84   C88   S    
C208  O22   A    
C223  O42   A    
C225  O45   A    
C59   C63   A    
C60   C64   A    
C148  C162  S    
C105  C230  S    
C156  O23   A    
C27   C66   S    
C76   C215  S    
C45   C50   A    
C2    C157  A    
C124  C160  A    
C56   C128  S    
C25   C36   A    
C148  N42   T    
C27   C218  S    
C215  O36   A    
C20   C25   A    
O27   Zn8   S    
C98   C206  S    
C85   Cl25  S    
O38   Zn10  S    
O46   Zn3   S    
C161  C165  A    
C180  C184  A    
C77   C216  S    
C7    C230  A    
C25   C31   A    
C178  C217  S    
C36   C122  S    
C98   N23   T    
C229  O8    A    
C184  C206  A    
C169  C195  A    
O6    Zn2   S    
C78   C217  S    
C66   C88   S    
C151  C177  A    
C13   C57   A    
C58   C129  S    
C135  C152  A    
O17   Zn5   S    
C153  C158  A    
C123  N18   T    
C78   C132  S    
C118  N13   T    
C69   C82   S    
C172  C181  A    
C74   C77   A    
C131  N26   T    
C172  C198  A    
O36   Zn8   S    
C74   Cl20  S    
C90   Cl32  S    
C127  N21   T    
C4    C228  S    
C103  N46   T    
C147  N41   T    
C135  C161  A    
O44   Zn12  S    
C10   C31   A    
C169  C177  A    
C53   C60   A    
C96   C204  S    
C47   C50   A    
C195  C199  A    
C83   Cl22  S    
C197  C202  A    
O11   Zn7   S    
C176  O17   A    
C168  Cl39  S    
C24   C68   A    
O4    Zn3   S    
C45   C52   A    
C49   C55   A    
C121  N16   T    
C85   C200  S    
C23   C34   A    
C209  O25   A    
C187  C192  A    
C84   C189  S    
C42   C48   A    
C32   C37   A    
C75   C77   A    
C65   C210  S    
C125  N19   T    
C92   C178  S    
C175  O16   A    
C126  N20   T    
C124  C151  A    
C188  C193  A    
C67   C81   S    
C167  C203  S    
C2    C142  S    
O18   Zn6   S    
C32   C119  S    
C17   C115  S    
C14   C110  S    
O16   Zn5   S    
C22   C30   A    
C18   C22   A    
C104  N47   T    
O1    Zn1   S    
C113  C150  A    
O13   Zn7   S    
C16   C114  S    
C109  N5    T    
C93   C189  S    
C3    C108  S    
C141  N36   T    
C57   C101  A    
C79   C124  A    
C102  C187  S    
C194  Cl8   S    
O42   Zn3   S    
C95   C211  S    
C163  C168  A    
C154  C159  A    
O28   Zn9   S    
C228  O5    A    
C170  C196  A    
C90   C135  A    
C145  N40   T    
C196  Cl2   S    
C173  C178  S    
C183  C205  A    
C40   C125  S    
C35   C79   A    
C64   C75   A    
C218  Cl10  S    
C138  N32   T    
C91   C95   S    
C102  N45   T    
C33   C120  S    
C201  C205  A    
C210  O31   A    
C196  C201  A    
C87   C92   S    
C227  O4    A    
C81   C85   S    
C73   Cl19  S    
C228  O6    A    
C61   C70   A    
C58   C62   A    
C7    C10   A    
C83   C87   S    
C220  Cl13  S    
C29   Cl34  S    
C79   Cl31  S    
O26   Zn11  S    
C116  N10   T    
C28   Cl23  S    
C80   C84   S    
O39   Zn11  S    
O48   Zn2   S    
C197  Cl3   S    
C24   C159  A    
C115  N9    T    
C164  Cl36  S    
C165  Cl37  S    
C9    C232  A    
C182  C204  A    
C160  C164  A    
C43   C221  S    
C86   C91   S    
C6    C12   A    
C136  N30   T    
O25   Zn10  S    
C174  O19   A    
C81   C219  S    
C154  C181  A    
C142  N37   T    
C39   C123  S    
C106  C231  S    
C182  C186  A    
C64   C71   A    
C186  C191  A    
C86   Cl26  S    
C93   C138  S    
C212  O28   A    
C162  C166  A    
C78   C83   S    
C29   C220  S    
C11   C30   A    
C226  O46   A    
C134  N29   T    
C54   Cl16  S    
C173  O18   A    
C68   C113  A    
C107  C232  S    
C26   C217  S    
C224  O48   A    
C1    C199  S    
C112  C201  S    
C60   C131  S    
C100  N44   T    
C40   C45   A    
O10   Zn6   S    
C4    C231  A    
C14   C20   A    
C147  C161  S    
C35   C222  A    
C18   C116  S    
C85   C89   S    
C214  O30   A    
C75   Cl21  S    
C82   C86   S    
C33   C37   A    
C217  Cl9   S    
C225  O2    A    
C50   C71   A    
C183  C187  A    
C5    C232  A    
C86   C211  S    
C105  N48   T    
C42   C127  S    
C61   C72   A    
C8    C15   A    
O15   Zn1   S    
C41   C44   A    
O14   Zn1   S    
C66   C80   S    
C189  C218  S    
C165  C170  A    
C15   C17   A    
C101  Cl33  S    
O9    Zn6   S    
C41   C126  S    
C103  C188  S    
C3    C5    A    
C6    C10   A    
C1    O1    A    
C229  O7    A    
C46   C90   A    
C21   C30   A    
C170  C179  A    
C176  C211  S    
C152  C179  A    
C36   C38   A    
C157  C192  A    
C227  O47   A    
O33   Zn11  S    
C198  Cl4   S    
C175  O20   A    
C146  C153  A    
C24   C144  S    
O20   Zn7   S    
C12   C19   A    
C137  N31   T    
C94   C200  S    
C13   C143  S    
O37   Zn9   S    
O43   Zn4   S    
C88   Cl28  S    
C168  C172  A    
C216  O39   A    
C82   C220  S    
C19   C117  S    
C55   C58   A    
C198  C203  A    
C200  C219  S    
C56   C61   A    
C72   Cl18  S    
C35   C224  S    
C111  N7    T    
C110  N6    T    
C59   C130  S    
C106  N2    T    
C72   C76   A    
C156  C202  S    
C53   Cl15  S    
C68   C227  S    
C2    C46   A    
C48   C54   A    
C95   C140  S    
C223  O43   A    
C9    C16   A    
O23   Zn5   S    
C80   C218  S    
C67   C89   S    
C99   N34   T    
O21   Zn7   S    
C46   C225  S    
C7    C14   A    
C149  C163  S    
C51   C70   A    
C112  O10   A    
C141  C222  S    
C166  C171  A    
C6    C231  A    
C96   N1    T    
C166  Cl38  S    
C174  C189  S    
C122  N17   T    
C195  Cl40  S    
C167  O13   A    
C12   C109  S    
C226  O3    A    
C149  N43   T    
C179  C183  A    
C48   C51   A    
C174  O15   A    
C21   C32   A    
C54   C56   A    
C101  C146  A    
C130  N25   T    
C15   C111  S    
C28   C67   S    
C212  O32   A    
C29   C95   S    
C145  C160  S    
C181  C185  A    
C39   C43   A    
C129  N24   T    
C221  O41   A    
C203  C207  A    
C184  C188  A    
C4    C230  A    
C117  N11   T    
C100  C186  S    
O3    Zn4   S    
C173  O14   A    
C52   C59   A    
C104  C190  S    
O12   Zn1   S    
C224  O44   A    
C62   C73   A    
C9    C11   A    
C91   Cl30  S    
C155  C191  A    
O45   Zn2   S    
O35   Zn10  S    
C57   C226  S    
C26   Cl1   S    
C34   C121  S    
C202  C206  A    
C5    C229  S    
C171  C180  A    
C67   C213  S    
C13   C158  A    
C22   C33   A    
C88   C93   S    
C34   C38   A    
C26   C65   S    
O24   Zn9   S    
C52   Cl14  S    
C139  N33   T    
C114  N8    T    
C28   C219  S    
O8    Zn4   S    
C171  C197  A    
C69   C91   S    
C214  O35   A    
C8    C11   A    
C97   C205  S    
C209  O26   A    
C73   C76   A    
C219  Cl11  S    
C38   C209  S    
C82   C136  S    
C175  C200  S    
C112  O12   A    
C140  N35   T    
C16   C18   A    
C150  C154  A    
C221  O40   A    
C155  C222  A    
O22   Zn8   S    
