data_mof_unit_67142.cif
_audit_creation_date              2013-03-05T15:58:56-0500
_audit_creation_method            fapswitch 2.2
_symmetry_space_group_name_H-M    P1
_symmetry_Int_Tables_number       1
_space_group_crystal_system       triclinic
_cell_length_a                    8.28526
_cell_length_b                    12.677569
_cell_length_c                    15.021485
_cell_angle_alpha                 96.547946
_cell_angle_beta                  98.037625
_cell_angle_gamma                 98.851481
_cell_volume                      1528.81787724

loop_
_atom_site_label
_atom_site_type_symbol
_atom_site_description
_atom_site_fract_x
_atom_site_fract_y
_atom_site_fract_z
_atom_type_partial_charge
P1    P     P_3+3 0.998730 0.403530 0.291970 0.468054
O1    O     O_2   0.827880 0.435260 0.277750 -0.306126
O2    O     O_3   0.100280 0.438960 0.391170 -0.421222
O3    O     O_3   0.625580 0.634130 0.333250 -0.376417
O4    O     O_2   0.696531 0.562609 0.173211 -0.355138
O5    O     O_3   0.950769 0.262117 0.271532 -0.552700
O6    O     O_3   0.638509 0.761112 0.187418 -0.511330
H1    H     H_    0.732553 0.860727 0.306732 0.127735
C1    C     C_3   0.580016 0.943911 0.218372 0.418373
H2    H     H_    0.606522 0.011295 0.275325 0.041436
P2    P     P_3+3 0.687380 0.751030 0.571310 0.460507
P3    P     P_3+3 0.104099 0.827497 0.376542 0.438104
O7    O     O_2   0.857130 0.766340 0.543890 -0.408189
O8    O     O_3   0.056550 0.691050 0.379010 -0.391310
O9    O     O_2   0.985754 0.880523 0.431143 -0.398646
O10   O     O_3   0.713198 0.780129 0.689599 -0.552143
O11   O     O_3   0.045000 0.845840 0.263902 -0.490073
C2    C     C_3   0.069476 0.754840 0.207457 0.345994
H3    H     H_    0.990683 0.680404 0.219397 0.158950
H4    H     H_    0.201289 0.744917 0.218526 0.008891
C3    C     C_3   0.018005 0.767440 0.109065 -0.653899
H5    H     H_    0.883308 0.765520 0.097511 0.340049
H6    H     H_    0.080573 0.844962 0.092996 0.276738
C4    C     C_3   0.277144 0.776925 0.649317 0.475880
H7    H     H_    0.360426 0.730932 0.615844 0.107280
H8    H     H_    0.159713 0.770849 0.602023 0.098207
C5    C     C_3   0.359137 0.895087 0.671818 -0.990934
H9    H     H_    0.315813 0.935890 0.730956 0.289831
H10   H     H_    0.494806 0.901414 0.688386 0.272951
H11   H     H_    0.330773 0.938428 0.613116 0.237164
Ba1   Ba    Ba6+2 0.843750 0.550210 0.455600 1.582850
C6    C     C_3   0.931709 0.218110 0.351863 0.398223
H12   H     H_    0.799708 0.208143 0.358277 0.093145
H13   H     H_    0.005752 0.266732 0.414249 0.118420
C7    C     C_3   0.985165 0.108302 0.345874 -0.832909
H14   H     H_    0.883745 0.045547 0.309901 0.253903
H15   H     H_    0.017222 0.086766 0.414403 0.238925
H16   H     H_    0.093740 0.107397 0.310513 0.248520
C8    C     C_3   0.868199 0.765662 0.732284 0.487755
H17   H     H_    0.927116 0.711345 0.689134 0.062596
C9    C     C_3   0.842411 0.709872 0.814878 0.211936
H18   H     H_    0.962835 0.698245 0.850934 0.013175
H19   H     H_    0.761534 0.630566 0.791881 0.067828
P4    P     P_3+3 0.190990 0.596560 0.708040 0.460885
O12   O     O_2   0.361830 0.564780 0.722310 -0.317584
O13   O     O_3   0.089430 0.561130 0.608830 -0.423366
O14   O     O_3   0.564130 0.365960 0.666760 -0.358982
O15   O     O_3   0.245204 0.737094 0.729435 -0.566106
P5    P     P_3+3 0.088180 0.168907 0.617109 0.457208
O16   O     O_3   0.601940 0.368240 0.453770 -0.369381
O17   O     O_3   0.133170 0.309040 0.621000 -0.354002
O18   O     O_2   0.209478 0.119787 0.562230 -0.384856
O19   O     O_3   0.150608 0.140377 0.726225 -0.488718
Ba2   Ba    Ba6+2 0.346090 0.449880 0.544410 1.590615
P6    P     P_3+3 0.580264 0.631266 0.215772 0.484035
C10   C     C_3   0.617209 0.840230 0.256634 0.238815
H20   H     H_    0.515079 0.811609 0.293402 -0.001860
O20   O     O_3   0.587780 0.631850 0.546230 -0.371246
C11   C     C_3   0.352776 0.271527 0.270457 0.255791
H21   H     H_    0.254158 0.279623 0.311376 0.066321
H22   H     H_    0.424759 0.353485 0.272333 0.113710
C12   C     C_3   0.267605 0.224869 0.173737 0.149566
H23   H     H_    0.157819 0.262092 0.154794 0.059015
H24   H     H_    0.223150 0.137093 0.169568 0.109712
P7    P     P_3+3 0.503906 0.233555 0.422599 0.435488
O21   O     O_2   0.332590 0.233690 0.456160 -0.381366
O22   O     O_3   0.457558 0.202666 0.304067 -0.562611
H25   H     H_    0.046553 0.700797 0.063108 0.168339
C13   C     C_3   0.038706 0.172455 0.781187 0.298283
H26   H     H_    0.024544 0.257755 0.777262 0.101442
H27   H     H_    0.917818 0.118301 0.760837 0.042580
C14   C     C_3   0.104001 0.163278 0.878808 -0.761292
H28   H     H_    0.233057 0.206832 0.895365 0.329175
H29   H     H_    0.027353 0.199195 0.925073 0.203989
H30   H     H_    0.103257 0.077615 0.888067 0.250300
P8    P     P_3+3 0.608721 0.376774 0.785143 0.488400
C15   C     C_3   0.580621 0.169411 0.770828 0.432847
H31   H     H_    0.694081 0.194844 0.741654 -0.011604
O23   O     O_2   0.507614 0.458020 0.824849 -0.345765
O24   O     O_3   0.521261 0.254858 0.816562 -0.497825
H32   H     H_    0.483462 0.127649 0.713972 0.148619
H33   H     H_    0.712103 0.132309 0.895498 0.237853
C16   C     C_3   0.617788 0.090864 0.837158 -0.919209
H34   H     H_    0.666720 0.023307 0.802989 0.226598
H35   H     H_    0.503491 0.058331 0.862800 0.314626
C17   C     C_R   0.832301 0.425042 0.828681 0.135487
C18   C     C_R   0.902823 0.431557 0.921126 0.002202
C19   C     C_R   0.042507 0.451641 0.108858 -0.023173
C20   C     C_R   0.892967 0.383742 0.073423 -0.081903
C21   C     C_R   0.820733 0.376823 0.982702 -0.192438
C22   C     C_R   0.108405 0.466235 0.203561 0.159157
H36   H     H_    0.834722 0.332710 0.115628 0.221478
H37   H     H_    0.702853 0.324712 0.961114 0.196371
C23   C     C_R   0.267244 0.525931 0.232307 -0.497347
C24   C     C_R   0.086339 0.529597 0.796069 0.215857
C25   C     C_R   0.152848 0.544454 0.890692 -0.071495
C26   C     C_R   0.062662 0.492715 0.952654 0.060616
C27   C     C_R   0.304341 0.611625 0.926140 -0.041112
C28   C     C_R   0.370200 0.622280 0.018218 -0.147070
C29   C     C_R   0.289232 0.566451 0.079107 -0.051228
C30   C     C_R   0.130915 0.504252 0.047089 0.097274
C31   C     C_R   0.361134 0.571516 0.171205 0.229265
C32   C     C_R   0.928312 0.468224 0.767263 -0.501657
H38   H     H_    0.483478 0.677177 0.042215 0.241590
H39   H     H_    0.373211 0.657458 0.883368 0.228089
H40   H     H_    0.321189 0.533668 0.303112 0.176454
H41   H     H_    0.873862 0.461146 0.696580 0.181382
C33   C     C_R   0.770069 0.180472 0.531269 -0.490628
C34   C     C_R   0.420252 0.807322 0.461116 -0.497318
C35   C     C_R   0.387561 0.985628 0.429074 -0.254858
C36   C     C_R   0.322481 0.877280 0.424609 0.213623
C37   C     C_R   0.579534 0.846386 0.509633 0.279658
C38   C     C_R   0.646032 0.958296 0.516382 -0.056813
C39   C     C_R   0.548434 0.028024 0.474739 -0.056227
C40   C     C_R   0.613106 0.139108 0.481796 0.257474
C41   C     C_R   0.870310 0.112537 0.567620 0.161079
C42   C     C_R   0.807502 0.002857 0.561870 -0.212867
H42   H     H_    0.309006 0.035923 0.397944 0.182827
H43   H     H_    0.888297 0.953821 0.591147 0.179705
H44   H     H_    0.818882 0.265584 0.536523 0.162778
H45   H     H_    0.368379 0.722748 0.455977 0.168009
C43   C     C_3   0.981554 0.875150 0.759784 -0.889446
H46   H     H_    0.910285 0.936708 0.783675 0.246619
H47   H     H_    0.085336 0.871668 0.814230 0.259221
H48   H     H_    0.034621 0.900700 0.700905 0.231383
S1    S     S_3+6 0.747622 0.782539 0.894535 0.002567
O25   O     O_2   0.595441 0.818050 0.849271 -0.253130
O26   O     O_2   0.699189 0.706691 0.959204 -0.302864
O27   O     O_3   0.884283 0.889513 0.950829 -0.505423
H49   H     H_    0.840275 0.953915 0.933622 0.370000
C44   C     C_3   0.398106 0.932541 0.179158 -0.869738
H50   H     H_    0.360146 0.857684 0.129845 0.243931
H51   H     H_    0.323709 0.931503 0.234685 0.211864
H52   H     H_    0.375412 0.001935 0.143680 0.306894
S2    S     S_3+6 0.403301 0.249942 0.093819 -0.036802
O28   O     O_2   0.572590 0.294910 0.144904 -0.261815
O29   O     O_2   0.407139 0.147183 0.034083 -0.263145
O30   O     O_3   0.340522 0.340616 0.029844 -0.573955
H53   H     H_    0.436574 0.366672 0.000868 0.383606
S3    S     S_3+6 0.700019 0.981757 0.132719 0.029136
O31   O     O_2   0.871851 0.958110 0.152603 -0.276504
O32   O     O_2   0.615040 0.921654 0.042286 -0.192975
O33   O     O_3   0.713765 0.114387 0.129250 -0.440131
H54   H     H_    0.776028 0.128595 0.078920 0.355647

loop_
_geom_bond_atom_site_label_1
_geom_bond_atom_site_label_2
_geom_bond_distance
_ccdc_geom_bond_type
S2    O30   1.676800 S    
O5    C6    1.404277 S    
S1    O25   1.503170 D    
C5    H10   1.105140 S    
C2    C3    1.513410 S    
P7    C40   1.842325 S    
C9    H18   1.105854 S    
C33   H44   1.082326 S    
C24   C25   1.430878 A    
C4    C5    1.525413 S    
O6    P6    1.759806 S    
O8    Ba1   2.772575 S    
C44   H52   1.105964 S    
O19   C13   1.400041 S    
H1    C10   1.106788 S    
C39   C40   1.414015 A    
S2    O28   1.494761 D    
C8    C9    1.520833 S    
C15   H31   1.110785 S    
C10   H20   1.111137 S    
P6    C31   1.854570 S    
O16   Ba2   2.929067 S    
C27   H39   1.077793 S    
C33   C40   1.396243 A    
C7    H15   1.102138 S    
C4    H8    1.108347 S    
O14   P8    1.750056 S    
C38   C39   1.425214 A    
C42   H43   1.065858 S    
O2    Ba2   2.827573 S    
C15   C16   1.521199 S    
O33   H54   0.990788 S    
P1    Ba1   3.423927 S    
C41   C42   1.396091 A    
C2    H3    1.109326 S    
C13   H27   1.105827 S    
O7    Ba1   2.883654 S    
C35   C36   1.386696 A    
C12   H24   1.108777 S    
C11   O22   1.407787 S    
C7    H14   1.095573 S    
C24   C32   1.399334 A    
P5    O17   1.750682 S    
Ba1   O13   2.826822 S    
C25   C27   1.401731 A    
P3    O11   1.746376 S    
S3    O33   1.674997 S    
P2    O20   1.582813 S    
C1    H2    1.110388 S    
C35   C39   1.405609 A    
C28   H38   1.068793 S    
P2    Ba1   3.437562 S    
C11   H21   1.099008 S    
P1    C22   1.891362 S    
C3    H5    1.101214 S    
C5    H11   1.107693 S    
C9    H19   1.108113 S    
C35   H42   1.076762 S    
O6    C10   1.409316 S    
C14   H30   1.109691 S    
C17   C32   1.403595 A    
C37   C38   1.427485 A    
P4    O13   1.584637 S    
P5    C41   1.851580 S    
C19   C30   1.422376 A    
C1    C44   1.518169 S    
C11   H22   1.110849 S    
P1    O5    1.757068 S    
C4    O15   1.399985 S    
C6    C7    1.521355 S    
C7    H16   1.107661 S    
S3    O31   1.496258 D    
C14   H29   1.110788 S    
C34   C37   1.401992 A    
C8    H17   1.105766 S    
C17   C18   1.417282 A    
S1    O27   1.683584 S    
P7    O22   1.753448 S    
O1    Ba1   2.869342 S    
P1    O2    1.584482 S    
C6    H13   1.107077 S    
C12   S2    1.777831 S    
C13   C14   1.514265 S    
C12   H23   1.105162 S    
P2    O10   1.749013 S    
C16   H34   1.107295 S    
C19   C22   1.431004 A    
C15   H32   1.109591 S    
P5    O18   1.544210 D    
C25   C26   1.427513 A    
O13   Ba2   2.938490 S    
C29   C31   1.417899 A    
O11   C2    1.409949 S    
C1    C10   1.549328 S    
C4    H7    1.105853 S    
C20   H36   1.066020 S    
O2    Ba1   2.937638 S    
C8    C43   1.529346 S    
O14   Ba2   2.807517 S    
C38   C42   1.414053 A    
C16   H35   1.110526 S    
P3    O8    1.719831 S    
O12   Ba2   2.869920 S    
H33   C16   1.109865 S    
P3    O9    1.545328 D    
C3    H6    1.106876 S    
O3    P6    1.747094 S    
Ba1   O16   2.807906 S    
C43   H47   1.110615 S    
C44   H50   1.109463 S    
P8    C17   1.858686 S    
P4    O12   1.523855 D    
Ba1   O20   2.929825 S    
C21   H37   1.076793 S    
O27   H49   0.989829 S    
Ba2   O20   2.807351 S    
C15   O24   1.405707 S    
S2    O29   1.502466 D    
C23   H40   1.081849 S    
C11   C12   1.532169 S    
S1    O26   1.494188 D    
P2    C37   1.864005 S    
C9    S1    1.769540 S    
O4    P6    1.548433 D    
P8    O24   1.747578 S    
S3    O32   1.501004 D    
C14   H28   1.105753 S    
C44   H51   1.104361 S    
Ba2   O21   2.883953 S    
C28   C29   1.400221 A    
O17   Ba2   2.773165 S    
C6    H12   1.100486 S    
C33   C41   1.389327 A    
C43   H48   1.100337 S    
C34   C36   1.396890 A    
C20   C21   1.396961 A    
C3    H25   1.104736 S    
P4    C24   1.889743 S    
C22   C23   1.396845 A    
P2    O7    1.510487 D    
C34   H45   1.081804 S    
P5    O19   1.743744 S    
P1    O1    1.523634 D    
C29   C30   1.411537 A    
C1    S3    1.796081 S    
C2    H4    1.110152 S    
P7    O21   1.571465 D    
Ba1   Ba2   4.550817 S    
C13   H26   1.112793 S    
O16   P7    1.754694 S    
O3    Ba1   2.808173 S    
O30   H53   0.990271 S    
O10   C8    1.401086 S    
P4    Ba2   3.424483 S    
P8    O23   1.543858 D    
C19   C20   1.393638 A    
C23   C31   1.401367 A    
C27   C28   1.397412 A    
C18   C21   1.405955 A    
C5    H9    1.107731 S    
C32   H41   1.082016 S    
C43   H46   1.106204 S    
P3    C36   1.836500 S    
C26   C30   1.434011 A    
P4    O15   1.749860 S    
C18   C26   1.415662 A    
