data_mof_unit_63219.cif
_audit_creation_date              2012-12-10T19:35:13-0500
_audit_creation_method            fapswitch 2.2
_symmetry_space_group_name_H-M    P1
_symmetry_Int_Tables_number       1
_space_group_crystal_system       triclinic
_cell_length_a                    30.543253
_cell_length_b                    31.826658
_cell_length_c                    21.642567
_cell_angle_alpha                 90.29664
_cell_angle_beta                  134.851356
_cell_angle_gamma                 89.940632
_cell_volume                      14914.7201175

loop_
_atom_site_label
_atom_site_type_symbol
_atom_type_description
_atom_site_fract_x
_atom_site_fract_y
_atom_site_fract_z
_atom_type_partial_charge
C1    C     C_R   0.500292 0.999293 0.380202 0.915328
C2    C     C_R   0.000290 0.499302 0.380202 0.915614
C3    C     C_3   0.474335 0.736110 0.528216 -0.172062
C4    C     C_3   0.471252 0.264198 0.522307 -0.170680
C5    C     C_3   0.966840 0.236069 0.516497 -0.171719
C6    C     C_3   0.963924 0.764130 0.510184 -0.170887
C7    C     C_3   0.499323 0.708843 0.499973 0.165611
C8    C     C_3   0.499332 0.291174 0.498648 0.165793
C9    C     C_3   0.999340 0.208843 0.499963 0.165739
C10   C     C_3   0.999282 0.791173 0.498501 0.165634
C11   C     C_3   0.532779 0.764228 0.581350 -0.207710
C12   C     C_3   0.530009 0.236470 0.579494 -0.205735
C13   C     C_3   0.025379 0.264230 0.578341 -0.207626
C14   C     C_3   0.022252 0.736449 0.575600 -0.205879
C15   C     C_3   0.557764 0.736100 0.553234 -0.154242
C16   C     C_3   0.558078 0.264300 0.555948 -0.153870
C17   C     C_3   0.057859 0.236142 0.561912 -0.154253
C18   C     C_3   0.057581 0.764346 0.564009 -0.153274
C19   C     C_1   0.499636 0.836674 0.499889 -0.065571
C20   C     C_1   0.500205 0.163337 0.499910 -0.065653
C21   C     C_1   0.999642 0.336675 0.499909 -0.065767
C22   C     C_1   0.000196 0.663337 0.499825 -0.065723
C23   C     C_1   0.499514 0.663363 0.500140 -0.068005
C24   C     C_1   0.499421 0.336650 0.498764 -0.064500
C25   C     C_1   0.999531 0.163364 0.500145 -0.068087
C26   C     C_1   0.999355 0.836649 0.498647 -0.064917
C27   C     C_R   0.468141 0.029629 0.250644 -0.035312
C28   C     C_R   0.968408 0.529770 0.250920 -0.035458
C29   C     C_R   0.502038 0.999557 0.316051 -0.081709
C30   C     C_R   0.002028 0.499555 0.316049 -0.081390
C31   C     C_R   0.542373 0.972685 0.323659 0.086969
C32   C     C_R   0.042135 0.472528 0.323438 0.086859
C33   C     C_R   0.542124 0.973287 0.258921 -0.274415
C34   C     C_R   0.041892 0.473127 0.258704 -0.274014
C35   C     C_R   0.499923 0.918741 0.499897 0.908782
C36   C     C_R   0.500116 0.081263 0.500115 0.901291
C37   C     C_R   0.999923 0.418740 0.499896 0.907706
C38   C     C_R   0.000116 0.581263 0.500097 0.903156
C39   C     C_R   0.502599 0.000701 0.188520 -0.126643
C40   C     C_R   0.002608 0.500703 0.188537 -0.126952
C41   C     C_R   0.468220 0.030081 0.187272 0.126417
C42   C     C_R   0.968508 0.530236 0.187571 0.126632
C43   C     C_3   0.400640 0.040595 0.117139 0.350444
C44   C     C_3   0.901044 0.541092 0.117543 0.350565
C45   C     C_3   0.401217 0.040756 0.188398 -0.455181
C46   C     C_3   0.901599 0.541201 0.188783 -0.455683
C47   C     C_R   0.475029 0.033662 0.693047 0.119464
C48   C     C_R   0.996485 0.537241 0.714194 0.097142
C49   C     C_R   0.498194 0.999716 0.683173 -0.087111
C50   C     C_R   0.000795 0.499844 0.685765 -0.084149
C51   C     C_R   0.512886 0.962429 0.727739 -0.276574
C52   C     C_R   0.016045 0.462645 0.730948 -0.274116
C53   C     C_R   0.512485 0.961127 0.791703 0.098719
C54   C     C_R   0.017722 0.461712 0.796992 0.097250
C55   C     C_R   0.497957 0.998220 0.810897 -0.127955
C56   C     C_R   0.005214 0.499138 0.818124 -0.129350
C57   C     C_R   0.475880 0.033167 0.757271 0.095704
C58   C     C_R   0.998416 0.536858 0.779466 0.114894
C59   C     C_R   0.499750 0.001049 0.619518 0.887951
C60   C     C_R   0.999940 0.500528 0.619701 0.889465
C61   C     C_3   0.494680 0.078325 0.780057 -0.436442
C62   C     C_3   0.949177 0.569495 0.735718 -0.454504
C63   C     C_3   0.493546 0.078836 0.708807 -0.528437
C64   C     C_3   0.947082 0.569780 0.663543 -0.507747
C65   C     C_R   0.380098 0.500239 0.380252 0.926483
C66   C     C_R   0.880064 0.000288 0.380215 0.925128
C67   C     C_R   0.499904 0.581289 0.500045 0.910998
C68   C     C_R   0.499916 0.418716 0.499761 0.898264
C69   C     C_R   0.999908 0.081289 0.500049 0.910471
C70   C     C_R   0.999864 0.918715 0.499707 0.899304
C71   C     C_R   0.620011 0.500311 0.619914 0.882963
C72   C     C_R   0.120021 0.000287 0.619923 0.883119
C73   C     C_R   0.620119 0.000059 0.119918 0.912714
C74   C     C_R   0.120153 0.500051 0.120039 0.913618
C75   C     C_R   0.499933 0.000120 0.120171 0.901583
C76   C     C_R   0.999926 0.500120 0.120167 0.901764
C77   C     C_R   0.379732 0.999909 0.879263 0.881850
C78   C     C_R   0.879721 0.499904 0.879277 0.880842
C79   C     C_R   0.500960 0.999669 0.880310 0.882899
C80   C     C_R   0.000840 0.499743 0.880186 0.882807
C81   C     C_R   0.281480 0.473524 0.245803 -0.024679
C82   C     C_R   0.781371 0.974917 0.243545 -0.022724
C83   C     C_3   0.465937 0.735623 0.418333 -0.170419
C84   C     C_3   0.469094 0.263726 0.418310 -0.172408
C85   C     C_3   0.973384 0.235623 0.421353 -0.170771
C86   C     C_3   0.976803 0.763744 0.421949 -0.172656
C87   C     C_R   0.314668 0.501362 0.315397 -0.097026
C88   C     C_R   0.814570 0.001427 0.315281 -0.100044
C89   C     C_R   0.282181 0.530137 0.320784 0.086599
C90   C     C_R   0.781989 0.028911 0.322603 0.087964
C91   C     C_R   0.717130 0.028555 0.257153 -0.269807
C92   C     C_R   0.217317 0.529795 0.255363 -0.268165
C93   C     C_R   0.685492 0.000333 0.186714 -0.113613
C94   C     C_R   0.185591 0.500297 0.186948 -0.115986
C95   C     C_R   0.719273 0.973497 0.183113 0.023707
C96   C     C_R   0.219384 0.472127 0.185503 0.025833
C97   C     C_3   0.714051 0.940919 0.127916 0.342986
C98   C     C_3   0.214328 0.437727 0.133107 0.344126
C99   C     C_3   0.287245 0.438607 0.205035 0.342958
C100  C     C_3   0.786976 0.941667 0.199967 0.345793
C101  C     C_R   0.717952 0.469063 0.686129 0.008476
C102  C     C_R   0.218010 0.969505 0.685153 0.010143
C103  C     C_R   0.685815 0.499831 0.686607 -0.068517
C104  C     C_R   0.185840 0.999760 0.686629 -0.069827
C105  C     C_R   0.717690 0.527458 0.757796 -0.207213
C106  C     C_R   0.217721 0.026884 0.758572 -0.206744
C107  C     C_3   0.524398 0.763735 0.471737 -0.204438
C108  C     C_3   0.527860 0.235988 0.475755 -0.206256
C109  C     C_3   0.031904 0.263776 0.483428 -0.204713
C110  C     C_3   0.035103 0.736054 0.487585 -0.206231
C111  C     C_R   0.281961 0.027199 0.822396 -0.227501
C112  C     C_R   0.781940 0.527714 0.821692 -0.226941
C113  C     C_R   0.313895 0.999340 0.815454 -0.106030
C114  C     C_R   0.813869 0.499315 0.815578 -0.106872
C115  C     C_R   0.281513 0.969200 0.749163 0.129918
C116  C     C_R   0.781441 0.468672 0.750242 0.130627
C117  C     C_3   0.285092 0.957403 0.685422 0.340406
C118  C     C_3   0.785070 0.455662 0.687026 0.351103
C119  C     C_3   0.714361 0.456070 0.616179 -0.472070
C120  C     C_3   0.214388 0.957583 0.614739 -0.470387
C121  C     C_1   0.499733 0.874218 0.499839 -0.185283
C122  C     C_1   0.500285 0.125791 0.500151 -0.186379
C123  C     C_1   0.999735 0.374218 0.499850 -0.185156
C124  C     C_1   0.000281 0.625791 0.500094 -0.186364
C125  C     C_1   0.499701 0.625816 0.500170 -0.184184
C126  C     C_1   0.499633 0.374194 0.499151 -0.189035
C127  C     C_1   0.999714 0.125816 0.500179 -0.184499
C128  C     C_1   0.999565 0.874194 0.499064 -0.188648
C129  C     C_3   0.441819 0.763579 0.447365 0.248016
C130  C     C_3   0.441890 0.236062 0.442826 0.249145
C131  C     C_3   0.941755 0.263538 0.438806 0.248110
C132  C     C_3   0.942314 0.736012 0.434610 0.249406
C133  C     C_3   0.499492 0.791168 0.499922 0.190646
C134  C     C_3   0.499875 0.208849 0.499389 0.190162
C135  C     C_3   0.999504 0.291168 0.499937 0.190692
C136  C     C_3   0.999857 0.708847 0.499274 0.190199
H1    H     H_    0.545032 0.775741 0.448828 0.141616
H2    H     H_    0.551177 0.223746 0.456929 0.141901
H3    H     H_    0.058665 0.275816 0.470108 0.141771
H4    H     H_    0.064371 0.723868 0.478569 0.142271
H5    H     H_    0.373122 0.015424 0.181983 0.202892
H6    H     H_    0.394598 0.072260 0.203216 0.188142
H7    H     H_    0.873251 0.515980 0.182068 0.202996
H8    H     H_    0.895284 0.572721 0.203949 0.188202
H9    H     H_    0.526315 0.934867 0.714745 0.143234
H10   H     H_    0.024087 0.434090 0.712641 0.140870
H11   H     H_    0.541736 0.082694 0.846564 0.206588
H12   H     H_    0.458163 0.098137 0.764985 0.202941
H13   H     H_    0.966999 0.599353 0.773627 0.206227
H14   H     H_    0.906083 0.557313 0.714309 0.202497
H15   H     H_    0.539868 0.083559 0.733791 0.205883
H16   H     H_    0.456291 0.098847 0.652525 0.206361
H17   H     H_    0.963692 0.599781 0.659795 0.200982
H18   H     H_    0.902843 0.557646 0.600194 0.215722
H19   H     H_    0.691829 0.049890 0.261753 0.157758
H20   H     H_    0.192092 0.552139 0.258454 0.159115
H21   H     H_    0.693054 0.550026 0.761582 0.151999
H22   H     H_    0.193089 0.049060 0.763035 0.152606
H23   H     H_    0.438203 0.723282 0.351448 0.137768
H24   H     H_    0.443758 0.275531 0.352145 0.136354
H25   H     H_    0.951701 0.223283 0.356852 0.137720
H26   H     H_    0.957774 0.775562 0.358777 0.136627
H27   H     H_    0.306487 0.049570 0.875722 0.164230
H28   H     H_    0.806481 0.550446 0.874411 0.164480
H29   H     H_    0.692569 0.424574 0.589051 0.187578
H30   H     H_    0.693629 0.480808 0.566006 0.203953
H31   H     H_    0.192814 0.926106 0.586772 0.188107
H32   H     H_    0.193411 0.982718 0.565233 0.203622
H33   H     H_    0.605607 0.723963 0.596930 0.138108
H34   H     H_    0.606018 0.276756 0.602618 0.138387
H35   H     H_    0.105766 0.224039 0.612717 0.137927
H36   H     H_    0.105142 0.776841 0.617393 0.138789
H37   H     H_    0.560272 0.776637 0.648112 0.140283
H38   H     H_    0.555085 0.224622 0.645526 0.142331
H39   H     H_    0.046809 0.276640 0.642667 0.139850
H40   H     H_    0.041010 0.724584 0.638584 0.141692
H41   H     H_    0.453447 0.724166 0.550791 0.136702
H42   H     H_    0.447680 0.276377 0.540783 0.137299
H43   H     H_    0.939838 0.224091 0.529461 0.136400
H44   H     H_    0.934418 0.776255 0.518828 0.137002
H45   H     H_    0.571283 0.951717 0.262379 0.159207
H46   H     H_    0.070863 0.451436 0.261982 0.159317
O1    O     O_R   0.448310 0.000000 0.356640 -0.634625
O2    O     O_R   0.948310 0.500000 0.356640 -0.634383
O3    O     O_R   0.500000 0.561620 0.551710 -0.616129
O4    O     O_R   0.500000 0.438380 0.551710 -0.614700
O5    O     O_R   0.000000 0.061620 0.551710 -0.616134
O6    O     O_R   0.000000 0.938380 0.551710 -0.614768
O7    O     O_R   0.591480 0.500000 0.539730 -0.625136
O8    O     O_R   0.091480 0.000000 0.539730 -0.625055
O9    O     O_R   0.591580 0.500000 0.643270 -0.624337
O10   O     O_R   0.091580 0.000000 0.643270 -0.624534
O11   O     O_R   0.591630 0.965220 0.091680 -0.628953
O12   O     O_R   0.591630 0.034780 0.091680 -0.626952
O13   O     O_R   0.091630 0.465220 0.091680 -0.629478
O14   O     O_R   0.091630 0.534780 0.091680 -0.625861
O15   O     O_R   0.500040 0.965230 0.091630 -0.622604
O16   O     O_R   0.500040 0.034770 0.091630 -0.627650
O17   O     O_R   0.000040 0.465230 0.091630 -0.622784
O18   O     O_R   0.000040 0.534770 0.091630 -0.627752
O19   O     O_R   0.408450 0.965250 0.908360 -0.622829
O20   O     O_R   0.408450 0.034750 0.908360 -0.626454
O21   O     O_R   0.908450 0.465250 0.908360 -0.622860
O22   O     O_R   0.908450 0.534750 0.908360 -0.627752
O23   O     O_R   0.500040 0.965230 0.908410 -0.603885
O24   O     O_R   0.500040 0.034770 0.908410 -0.626537
O25   O     O_R   0.000040 0.465230 0.908410 -0.604117
O26   O     O_R   0.000040 0.534770 0.908410 -0.623844
O27   O     O_R   0.551720 1.000000 0.460130 -0.605141
O28   O     O_R   0.051720 0.500000 0.460130 -0.605410
O29   O     O_R   0.448310 0.938390 0.448250 -0.617568
O30   O     O_R   0.448310 0.061610 0.448250 -0.618749
O31   O     O_R   0.948310 0.438390 0.448250 -0.617901
O32   O     O_R   0.948310 0.561610 0.448250 -0.619387
O33   O     O_R   0.551720 0.938410 0.551740 -0.615249
O34   O     O_R   0.551720 0.061590 0.551740 -0.620400
O35   O     O_R   0.051720 0.438410 0.551740 -0.615438
O36   O     O_R   0.051720 0.561590 0.551740 -0.618903
O37   O     O_R   0.448310 1.000000 0.539870 -0.621479
O38   O     O_R   0.948310 0.500000 0.539870 -0.625225
O39   O     O_R   0.551720 1.000000 0.643360 -0.624242
O40   O     O_R   0.051720 0.500000 0.643360 -0.622571
O41   O     O_R   0.408300 0.500000 0.356580 -0.634468
O42   O     O_R   0.908300 0.000000 0.356580 -0.634869
O43   O     O_R   0.408400 0.500000 0.460120 -0.607741
O44   O     O_R   0.908400 0.000000 0.460120 -0.606592
O45   O     O_R   0.499900 0.561630 0.448170 -0.618028
O46   O     O_R   0.499900 0.438370 0.448170 -0.625918
O47   O     O_R   0.999900 0.061630 0.448170 -0.618159
O48   O     O_R   0.999900 0.938370 0.448170 -0.626081
Zn1   Zn    Zn3+2 0.430960 1.000000 0.430900 0.951475
Zn2   Zn    Zn3+2 0.930960 0.500000 0.430900 0.947961
Zn3   Zn    Zn3+2 0.569060 1.000000 0.569100 0.960940
Zn4   Zn    Zn3+2 0.069060 0.500000 0.569100 0.963563
Zn5   Zn    Zn3+2 0.499870 0.500000 0.430790 0.938460
Zn6   Zn    Zn3+2 0.999870 0.000000 0.430790 0.937347
Zn7   Zn    Zn3+2 0.500010 0.500000 0.569060 0.961854
Zn8   Zn    Zn3+2 0.000010 0.000000 0.569060 0.961881
Zn9   Zn    Zn3+2 0.500030 0.953570 0.000010 0.939538
Zn10  Zn    Zn3+2 0.500030 0.046430 0.000010 0.935188
Zn11  Zn    Zn3+2 0.000030 0.453570 0.000010 0.938319
Zn12  Zn    Zn3+2 0.000030 0.546430 0.000010 0.937043
N1    N     N_3   0.529515 0.922929 0.838935 -0.435383
H47   H     H_    0.498101 0.899568 0.794313 0.183940
H48   H     H_    0.573148 0.913988 0.866470 0.179750
N2    N     N_3   0.029460 0.422628 0.839028 -0.435226
H49   H     H_    0.995087 0.401266 0.791516 0.184407
H50   H     H_    0.071726 0.411048 0.865205 0.179340
N3    N     N_3   0.314595 0.560180 0.390543 -0.444101
H51   H     H_    0.300857 0.555894 0.422716 0.188173
H52   H     H_    0.300797 0.590223 0.363372 0.178630
N4    N     N_3   0.814281 0.057738 0.394349 -0.442063
H53   H     H_    0.800409 0.088177 0.369248 0.178163
H54   H     H_    0.800521 0.051929 0.426122 0.187825
C137  C     C_3   0.681316 0.958706 0.037935 -0.897611
H55   H     H_    0.698907 0.990362 0.043101 0.228578
H56   H     H_    0.687464 0.937115 0.004111 0.241165
H57   H     H_    0.631210 0.962105 0.997430 0.249337
C138  C     C_3   0.683462 0.899890 0.119796 -0.849286
H58   H     H_    0.696305 0.873593 0.101304 0.229996
H59   H     H_    0.697341 0.892094 0.181568 0.225005
H60   H     H_    0.632391 0.902648 0.068294 0.260557
C139  C     C_3   0.181471 0.453238 0.041658 -0.894563
H61   H     H_    0.198804 0.484446 0.044047 0.228801
H62   H     H_    0.187770 0.430222 0.009764 0.240665
H63   H     H_    0.131350 0.456789 0.000899 0.253596
C140  C     C_3   0.184041 0.397485 0.128550 -0.848882
H64   H     H_    0.197217 0.370104 0.112631 0.229945
H65   H     H_    0.197863 0.391590 0.190883 0.224571
H66   H     H_    0.132949 0.399952 0.076654 0.259595
C141  C     C_3   0.317637 0.452880 0.174408 -0.839821
H67   H     H_    0.304053 0.485361 0.148464 0.226665
H68   H     H_    0.368724 0.452404 0.229179 0.257197
H69   H     H_    0.304368 0.431103 0.123201 0.230454
C142  C     C_3   0.320281 0.400170 0.265493 -0.893248
H70   H     H_    0.312960 0.372249 0.228106 0.243237
H71   H     H_    0.370680 0.406291 0.318976 0.241046
H72   H     H_    0.303699 0.393041 0.296329 0.227287
C143  C     C_3   0.817405 0.957971 0.170506 -0.839231
H73   H     H_    0.804244 0.990960 0.147651 0.225983
H74   H     H_    0.868491 0.956995 0.224976 0.256937
H75   H     H_    0.803714 0.937710 0.117256 0.229948
C144  C     C_3   0.819786 0.902205 0.257204 -0.893898
H76   H     H_    0.812292 0.875403 0.217558 0.243294
H77   H     H_    0.870230 0.908056 0.311205 0.243235
H78   H     H_    0.803138 0.893454 0.287351 0.226686
C145  C     C_3   0.313390 0.913789 0.703316 -0.853054
H79   H     H_    0.292419 0.890239 0.713953 0.222024
H80   H     H_    0.305524 0.903412 0.647045 0.236939
H81   H     H_    0.363912 0.914957 0.762390 0.253337
C146  C     C_3   0.313980 0.991402 0.672867 -0.857950
H82   H     H_    0.364631 0.992963 0.730781 0.229474
H83   H     H_    0.305226 0.983794 0.614787 0.242166
H84   H     H_    0.294074 0.022800 0.663413 0.228553
C147  C     C_3   0.813016 0.411770 0.706332 -0.853497
H85   H     H_    0.791795 0.388884 0.717589 0.221300
H86   H     H_    0.805136 0.400555 0.650455 0.236364
H87   H     H_    0.863530 0.412891 0.765444 0.253133
C148  C     C_3   0.814339 0.488776 0.673599 -0.878542
H88   H     H_    0.865038 0.490076 0.731380 0.228389
H89   H     H_    0.805348 0.480435 0.615581 0.243835
H90   H     H_    0.794939 0.520470 0.663582 0.227532
C149  C     C_3   0.376001 0.779615 0.387266 -0.944118
H91   H     H_    0.343585 0.752604 0.357751 0.242910
H92   H     H_    0.371440 0.799216 0.425020 0.246963
H93   H     H_    0.364535 0.798809 0.334791 0.248427
C150  C     C_3   0.375920 0.219618 0.378586 -0.947076
H94   H     H_    0.343306 0.246431 0.346713 0.243275
H95   H     H_    0.367078 0.199964 0.328200 0.246952
H96   H     H_    0.368822 0.200381 0.413560 0.247239
C151  C     C_3   0.875847 0.279527 0.368919 -0.944162
H97   H     H_    0.843389 0.252492 0.334585 0.243018
H98   H     H_    0.865138 0.299105 0.399429 0.247210
H99   H     H_    0.870505 0.298730 0.321304 0.248168
C152  C     C_3   0.876869 0.719513 0.361129 -0.947266
H100  H     H_    0.844499 0.746298 0.324716 0.243270
H101  H     H_    0.874272 0.699890 0.316084 0.246485
H102  H     H_    0.863671 0.700226 0.388504 0.247673
N5    N     N_3   0.580425 0.943190 0.393582 -0.444238
H103  H     H_    0.626312 0.948744 0.426569 0.188508
H104  H     H_    0.568473 0.912977 0.366591 0.177167
N6    N     N_3   0.079938 0.442891 0.393124 -0.444485
H105  H     H_    0.125871 0.448267 0.426157 0.188597
H106  H     H_    0.067739 0.412721 0.365893 0.177235
C153  C     C_3   0.360138 0.005524 0.048899 -0.865431
H107  H     H_    0.310568 0.012817 0.006984 0.243046
H108  H     H_    0.368782 0.002716 0.007159 0.228205
H109  H     H_    0.370394 0.974727 0.080742 0.231723
C154  C     C_3   0.388771 0.083807 0.076662 -0.871112
H110  H     H_    0.419560 0.108137 0.127919 0.226615
H111  H     H_    0.397399 0.082547 0.034690 0.247780
H112  H     H_    0.340053 0.093175 0.036148 0.235245
C155  C     C_3   0.860162 0.506256 0.048846 -0.865112
H113  H     H_    0.870163 0.475369 0.080279 0.231568
H114  H     H_    0.810679 0.513754 0.007144 0.243104
H115  H     H_    0.868675 0.503526 0.006942 0.228340
C156  C     C_3   0.889647 0.584387 0.077610 -0.870313
H116  H     H_    0.841055 0.594016 0.037309 0.235244
H117  H     H_    0.920751 0.608537 0.129167 0.226527
H118  H     H_    0.898175 0.583112 0.035522 0.247817

loop_
_geom_bond_atom_site_label_1
_geom_bond_atom_site_label_2
_ccdc_geom_bond_type
O9    Zn7   S    
N6    H106  S    
C137  H56   S    
O43   Zn7   S    
C38   O36   A    
C146  H82   S    
O33   Zn3   S    
C73   C93   S    
C77   O20   A    
C156  H116  S    
C39   C41   A    
C155  H113  S    
C86   C110  S    
C67   C125  S    
C155  H115  S    
C51   H9    S    
C141  H67   S    
C139  H62   S    
C61   C63   S    
C5    H43   S    
C62   C64   S    
C11   C15   S    
C12   C16   S    
C49   C51   A    
C50   C52   A    
C145  H80   S    
O48   Zn6   S    
C4    C12   S    
C5    C13   S    
C49   C59   S    
C48   C50   A    
C8    C16   S    
C73   O12   A    
O34   Zn3   S    
C41   C43   S    
C130  C134  S    
C42   C44   S    
C38   O32   A    
C77   C113  S    
C44   C46   S    
C65   C87   S    
C74   O14   A    
C112  H28   S    
C2    O28   A    
C149  H92   S    
C4    C130  S    
C81   C99   S    
C131  C151  S    
C40   C76   S    
C32   C34   A    
C21   C123  T    
O10   Zn8   S    
C149  H91   S    
C92   C94   A    
C65   O43   A    
C111  C113  A    
C94   C96   A    
O2    Zn2   S    
O29   Zn1   S    
C36   O30   A    
C129  C133  S    
C105  C112  A    
N3    H52   S    
C87   C89   A    
C45   H6    S    
O28   Zn4   S    
O18   Zn12  S    
C156  H118  S    
C120  H32   S    
C12   H38   S    
C75   O16   A    
C13   H39   S    
O40   Zn4   S    
C52   H10   S    
C62   H14   S    
C3    C129  S    
C138  H59   S    
C17   C109  S    
C95   C97   S    
C57   C61   S    
C3    C7    S    
O47   Zn6   S    
O25   Zn11  S    
C85   C131  S    
O15   Zn9   S    
C10   C86   S    
C10   C18   S    
C84   C130  S    
C116  C118  S    
C143  H74   S    
C25   C127  T    
C63   H16   S    
C3    C11   S    
C43   C153  S    
C98   C99   S    
C20   C134  S    
C21   C135  S    
C67   O3    A    
N4    H53   S    
C113  C115  A    
C7    C83   S    
N5    H104  S    
C109  C135  S    
C110  C136  S    
C86   C132  S    
C112  C114  A    
C1    O1    A    
C110  H4    S    
C147  H86   S    
C28   C46   S    
N3    H51   S    
C146  H83   S    
C61   H12   S    
C83   C129  S    
C66   C88   S    
C140  H66   S    
C6    C14   S    
C32   N6    S    
C153  H108  S    
C9    C85   S    
C37   C123  S    
O11   Zn9   S    
C96   C98   S    
C39   C75   S    
C119  H29   S    
C20   C122  T    
C70   O6    A    
C40   C42   A    
C68   O4    A    
C93   C95   A    
C12   C134  S    
C144  H78   S    
C24   C126  T    
C154  H111  S    
C72   O8    A    
C106  C111  A    
C1    O27   A    
C142  H72   S    
C78   O21   A    
C46   H8    S    
C79   O23   A    
C64   H17   S    
C51   C53   A    
O12   Zn10  S    
C5    C9    S    
C69   O47   A    
C47   C57   A    
O4    Zn7   S    
C67   O45   A    
C132  C136  S    
C103  C105  A    
C43   C45   S    
O16   Zn10  S    
C44   C155  S    
C80   O26   A    
C151  H98   S    
C100  C143  S    
O1    Zn1   S    
C97   C100  S    
C71   C103  S    
N2    H49   S    
C19   C121  T    
C152  H102  S    
C82   C95   A    
O39   Zn3   S    
C53   N1    S    
C4    H42   S    
C76   O17   A    
C77   O19   A    
C114  C116  A    
C140  H64   S    
C56   C80   S    
C13   C17   S    
C2    C30   S    
C150  H96   S    
C50   C60   S    
C36   O34   A    
C7    C23   S    
C7    C15   S    
C8    C24   S    
C56   C58   A    
O7    Zn5   S    
C148  H90   S    
C101  C103  A    
C44   C156  S    
C144  H76   S    
C71   O9    A    
C35   O33   A    
C72   O10   A    
C38   C124  S    
C138  H58   S    
C58   C62   S    
C141  H69   S    
C73   O11   A    
C85   H25   S    
C74   C94   S    
C142  H70   S    
C37   O35   A    
O32   Zn2   S    
O5    Zn8   S    
C104  C106  A    
C84   H24   S    
C9    C25   S    
C139  H61   S    
C89   N3    S    
O26   Zn12  S    
C85   C109  S    
C60   O38   A    
C47   C63   S    
C48   C64   S    
C27   C29   A    
C130  C150  S    
N1    H47   S    
C15   C107  S    
O46   Zn5   S    
C14   H40   S    
C102  C115  A    
C74   O13   A    
C105  H21   S    
C115  C117  S    
C143  H73   S    
O19   Zn9   S    
C117  C145  S    
C97   C137  S    
C6    H44   S    
C27   C45   S    
C155  H114  S    
N6    H105  S    
O13   Zn11  S    
C137  H57   S    
C152  H100  S    
C117  C146  S    
C45   H5    S    
C78   C114  S    
C37   O31   A    
C156  H117  S    
C149  H93   S    
C75   O15   A    
C150  H94   S    
C35   C121  S    
C117  C120  S    
O37   Zn1   S    
C147  H85   S    
O30   Zn1   S    
C99   C142  S    
C72   C104  S    
C22   C136  S    
C107  H1    S    
C148  H88   S    
C108  C134  S    
C91   C93   A    
C55   C79   S    
O22   Zn12  S    
C145  H79   S    
C66   O44   A    
C145  H81   S    
C2    O2    A    
C71   O7    A    
C63   H15   S    
C81   C87   A    
C6    C132  S    
C88   C90   A    
C33   H45   S    
O8    Zn6   S    
C65   O41   A    
C102  C120  S    
O17   Zn11  S    
N4    H54   S    
C81   C96   A    
C129  C149  S    
C8    C84   S    
C18   C110  S    
C60   O40   A    
O35   Zn4   S    
C6    C10   S    
C48   C58   A    
C152  H101  S    
C19   C133  S    
C61   H11   S    
C107  C133  S    
O20   Zn10  S    
C140  H65   S    
C90   C91   A    
C14   C136  S    
C100  C144  S    
C28   C30   A    
C84   C108  S    
C54   N2    S    
C153  H107  S    
O3    Zn7   S    
N5    H103  S    
C16   H34   S    
C5    C131  S    
C13   C135  S    
C69   C127  S    
O14   Zn12  S    
C101  C116  A    
C120  H31   S    
C139  H63   S    
C151  H97   S    
C43   C154  S    
O44   Zn8   S    
C62   H13   S    
C144  H77   S    
C154  H110  S    
C14   C18   S    
C4    C8    S    
C138  H60   S    
C47   C49   A    
C33   C39   A    
C118  C148  S    
C34   C40   A    
C132  C152  S    
C142  H71   S    
C78   O22   A    
C131  C135  S    
C11   C133  S    
C82   C88   A    
C64   H18   S    
C15   H33   S    
C143  H75   S    
C99   C141  S    
O23   Zn9   S    
C35   O29   A    
C118  C119  S    
C59   O39   A    
C98   C139  S    
N1    H48   S    
C31   C33   A    
C86   H26   S    
C23   C125  T    
C10   C26   S    
C1    C29   S    
C52   C54   A    
C147  H87   S    
C53   C55   A    
N2    H50   S    
C11   H37   S    
O38   Zn2   S    
C101  C119  S    
C118  C147  S    
C146  H84   S    
C111  H27   S    
O36   Zn4   S    
C66   O42   A    
C76   O18   A    
C16   C108  S    
C68   O46   A    
C106  H22   S    
C90   N4    S    
C150  H95   S    
C153  H109  S    
C36   C122  S    
C70   O48   A    
C91   H19   S    
C27   C41   A    
C98   C140  S    
C92   H20   S    
C26   C128  T    
C89   C92   A    
C102  C104  A    
C148  H89   S    
C119  H30   S    
O31   Zn2   S    
O41   Zn5   S    
C9    C17   S    
C154  H112  S    
C137  H55   S    
C68   C126  S    
C97   C138  S    
C70   C128  S    
C141  H68   S    
C69   O5    A    
C82   C100  S    
C17   H35   S    
C54   C56   A    
C22   C124  T    
C46   H7    S    
O21   Zn11  S    
C18   H36   S    
C79   O24   A    
O45   Zn5   S    
C109  H3    S    
C55   C57   A    
C3    H41   S    
C29   C31   A    
C59   O37   A    
C30   C32   A    
C28   C42   A    
C83   C107  S    
C34   H46   S    
O27   Zn3   S    
O6    Zn8   S    
O42   Zn6   S    
C31   N5    S    
C80   O25   A    
C83   H23   S    
C151  H99   S    
O24   Zn10  S    
C108  H2    S    
