data_mof_unit_36245.cif
_audit_creation_date              2012-12-11T14:06:38-0500
_audit_creation_method            fapswitch 2.2
_symmetry_space_group_name_H-M    P1
_symmetry_Int_Tables_number       1
_space_group_crystal_system       triclinic
_cell_length_a                    11.80606
_cell_length_b                    11.878497
_cell_length_c                    19.306768
_cell_angle_alpha                 89.978873
_cell_angle_beta                  90.030643
_cell_angle_gamma                 118.95329
_cell_volume                      2369.1432285

loop_
_atom_site_label
_atom_site_type_symbol
_atom_type_description
_atom_site_fract_x
_atom_site_fract_y
_atom_site_fract_z
_atom_type_partial_charge
C1    C     C_R   0.553069 0.475688 0.597261 0.531097
C2    C     C_R   0.410316 0.851397 0.135160 0.573849
C3    C     C_R   0.069907 0.524134 0.121475 0.564448
C4    C     C_R   0.476300 0.546895 0.121477 0.604629
C5    C     C_R   0.549424 0.478138 0.405340 0.555080
C6    C     C_R   0.519707 0.067570 0.407051 0.577064
C7    C     C_R   0.853652 0.409227 0.397019 0.577929
C8    C     C_1   0.034153 0.515879 0.859068 0.007399
C9    C     C_1   0.486328 0.520200 0.859134 0.009340
C10   C     C_1   0.435353 0.888451 0.847845 0.000762
C11   C     C_1   0.994268 0.494993 0.726537 -0.025164
C12   C     C_R   0.523316 0.074308 0.596797 0.540203
C13   C     C_1   0.505156 0.498926 0.726626 -0.024455
C14   C     C_1   0.478745 0.963121 0.718889 -0.018423
C15   C     C_1   0.013424 0.507436 0.798123 -0.030422
C16   C     C_1   0.494221 0.507102 0.798228 -0.030010
C17   C     C_1   0.455741 0.920443 0.788044 -0.026044
C18   C     C_1   0.970553 0.477863 0.666007 0.020868
C19   C     C_1   0.521351 0.491510 0.666032 0.021388
C20   C     C_1   0.498627 0.007907 0.661469 0.022471
C21   C     C_2   0.852439 0.420149 0.321465 -0.041394
C22   C     C_2   0.489524 0.507076 0.347605 -0.036576
C23   C     C_R   0.923028 0.446580 0.597332 0.551378
C24   C     C_2   0.481401 0.971029 0.352752 -0.035288
C25   C     C_2   0.020617 0.502260 0.191553 0.206435
C26   C     C_2   0.492122 0.519474 0.192185 0.222800
C27   C     C_2   0.445925 0.910514 0.202646 0.204707
C28   C     C_2   0.903445 0.401875 0.203976 -0.099052
C29   C     C_2   0.494612 0.604066 0.239487 -0.096949
C30   C     C_2   0.352562 0.866385 0.250730 -0.115867
C31   C     C_2   0.873272 0.348630 0.274119 0.240133
C32   C     C_2   0.547133 0.612545 0.308074 0.192991
C33   C     C_2   0.365250 0.918608 0.320579 0.224228
C34   C     C_R   0.409033 0.851182 0.918984 0.559770
C35   C     C_R   0.075252 0.527974 0.928969 0.544856
C36   C     C_R   0.473021 0.548844 0.928922 0.550596
Cl1   Cl    Cl    0.139427 0.557877 0.257668 -0.575037
Cl2   Cl    Cl    0.537105 0.400268 0.209027 -0.581210
Cl3   Cl    Cl    0.591365 0.058615 0.209196 -0.564825
Cr1   Cr    Cr6+3 0.468420 0.238090 0.499960 1.125874
Cr2   Cr    Cr6+3 0.761910 0.230330 0.499960 1.129586
Cr3   Cr    Cr6+3 0.769670 0.531580 0.499960 1.148592
Cr4   Cr    Cr6+3 0.515700 0.760130 0.026360 1.066921
Cr5   Cr    Cr6+3 0.239870 0.755570 0.026360 1.056006
Cr6   Cr    Cr6+3 0.244430 0.484300 0.026360 1.084188
H1    H     H_    0.837940 0.349725 0.161783 0.135444
H2    H     H_    0.475332 0.681263 0.224141 0.118174
H3    H     H_    0.256521 0.797113 0.234318 0.166727
H4    H     H_    0.838341 0.498972 0.302619 0.141968
H5    H     H_    0.397480 0.427909 0.330241 0.164174
H6    H     H_    0.557187 0.953564 0.332674 0.199892
H7    H     H_    0.854452 0.128109 0.194282 0.369310
H8    H     H_    0.740770 0.848082 0.228241 0.355484
H9    H     H_    0.072014 0.820223 0.280136 0.362615
O1    O     O_R   0.434830 0.101190 0.575190 -0.486546
O2    O     O_R   0.664850 0.560590 0.424150 -0.433172
O3    O     O_R   0.484380 0.363570 0.430280 -0.488513
O4    O     O_R   0.636430 0.120810 0.430280 -0.484025
O5    O     O_R   0.879190 0.515620 0.430280 -0.437068
O6    O     O_3   0.666667 0.333333 0.499980 -0.359786
O7    O     O_R   0.548200 0.655360 0.951320 -0.516163
O8    O     O_R   0.344640 0.892840 0.951320 -0.477739
O9    O     O_R   0.107160 0.451800 0.951320 -0.501373
O10   O     O_R   0.505020 0.871000 0.955840 -0.469961
O11   O     O_R   0.129000 0.634020 0.955840 -0.523929
O12   O     O_R   0.898810 0.333640 0.575190 -0.497596
O13   O     O_R   0.365980 0.494980 0.955840 -0.495813
O14   O     O_R   0.543640 0.655270 0.102360 -0.541960
O15   O     O_R   0.344730 0.888370 0.102360 -0.463938
O16   O     O_R   0.111630 0.456360 0.102360 -0.462574
O17   O     O_R   0.500790 0.870920 0.095850 -0.436559
O18   O     O_R   0.129080 0.629870 0.095850 -0.516673
O19   O     O_R   0.370130 0.499210 0.095850 -0.467465
O20   O     O_2   0.038410 0.282731 0.333740 -0.155318
O21   O     O_2   0.809697 0.120385 0.334513 -0.191374
O22   O     O_3   0.938076 0.165359 0.219159 -0.454173
O23   O     O_R   0.666360 0.565170 0.575190 -0.493440
O24   O     O_2   0.675965 0.801973 0.400089 -0.218715
O25   O     O_2   0.804940 0.737139 0.327542 -0.220141
O26   O     O_3   0.710864 0.871849 0.270949 -0.468283
O27   O     O_2   0.218006 0.871707 0.435033 -0.216931
O28   O     O_2   0.214936 0.024642 0.350874 -0.204765
O29   O     O_3   0.088924 0.781378 0.321570 -0.448673
O30   O     O_3   0.333333 0.666667 0.026340 -0.298169
O31   O     O_R   0.480130 0.360720 0.570290 -0.498913
O32   O     O_R   0.639280 0.119410 0.570290 -0.501513
O33   O     O_R   0.880590 0.519870 0.570290 -0.487587
O34   O     O_R   0.439410 0.104260 0.424150 -0.426800
O35   O     O_R   0.895740 0.335150 0.424150 -0.416721
S1    S     S_3+6 0.914454 0.226335 0.293002 0.149982
S2    S     S_3+6 0.688878 0.757603 0.329087 0.074940
S3    S     S_3+6 0.220560 0.901545 0.359188 0.108787

loop_
_geom_bond_atom_site_label_1
_geom_bond_atom_site_label_2
_ccdc_geom_bond_type
Cr2   O35   S    
C11   C18   T    
Cr1   O6    S    
C1    O23   A    
C6    O4    A    
C5    O2    A    
C21   H4    S    
C36   O13   A    
C6    O34   A    
C25   C28   D    
Cr2   O32   S    
C21   C31   D    
C28   H1    S    
C22   C32   D    
C29   H2    S    
C23   O12   A    
C30   H3    S    
C9    C16   T    
Cr2   O4    S    
C29   C32   S    
C32   S2    S    
C35   O11   A    
C10   C17   T    
C7    O35   A    
C34   O8    A    
O28   S3    D    
Cr6   O19   S    
O21   S1    D    
C25   Cl1   S    
O27   S3    D    
C11   C15   S    
C5    C22   S    
C27   Cl3   S    
Cr4   O14   S    
Cr6   O13   S    
C9    C36   S    
C2    C27   S    
C2    O15   A    
O25   S2    D    
C22   H5    S    
Cr3   O2    S    
C31   S1    S    
C24   H6    S    
C23   O33   A    
C27   C30   D    
Cr4   O30   S    
C14   C17   S    
Cr5   O11   S    
C7    O5    A    
H9    O29   S    
Cr4   O10   S    
C1    O31   A    
C1    C19   S    
C13   C19   T    
C18   C23   S    
C14   C20   T    
C3    C25   S    
C3    O16   A    
C33   S3    S    
Cr3   O6    S    
C4    O14   A    
H8    O26   S    
C26   Cl2   S    
Cr5   O8    S    
C7    C21   S    
Cr6   O9    S    
C8    C35   S    
Cr1   O31   S    
O29   S3    S    
Cr1   O1    S    
C6    C24   S    
C12   C20   S    
C34   O10   A    
Cr5   O15   S    
C10   C34   S    
C4    O19   A    
Cr3   O23   S    
C8    C15   T    
H7    O22   S    
Cr6   O30   S    
C36   O7    A    
Cr4   O7    S    
Cr4   O17   S    
Cr1   O3    S    
C30   C33   S    
Cr6   O16   S    
C28   C31   S    
Cr2   O6    S    
Cr5   O30   S    
Cr3   O5    S    
C4    C26   S    
Cr2   O12   S    
C12   O32   A    
O24   S2    D    
C24   C33   D    
C5    O3    A    
Cr1   O34   S    
O26   S2    S    
C3    O18   A    
O20   S1    D    
Cr5   O18   S    
C12   O1    A    
C26   C29   D    
C13   C16   S    
C35   O9    A    
Cr3   O33   S    
C2    O17   A    
O22   S1    S    
