data_mof_unit_39397.cif
_audit_creation_date              2012-12-11T14:07:44-0500
_audit_creation_method            fapswitch 2.2
_symmetry_space_group_name_H-M    P1
_symmetry_Int_Tables_number       1
_space_group_crystal_system       triclinic
_cell_length_a                    19.890398
_cell_length_b                    17.059675
_cell_length_c                    15.53588
_cell_angle_alpha                 89.982
_cell_angle_beta                  52.91609
_cell_angle_gamma                 89.987687
_cell_volume                      4205.50998241

loop_
_atom_site_label
_atom_site_type_symbol
_atom_type_description
_atom_site_fract_x
_atom_site_fract_y
_atom_site_fract_z
_atom_type_partial_charge
C1    C     C_R   0.373870 0.197412 0.996014 -0.025994
C2    C     C_R   0.711965 0.852839 0.972208 0.132519
C3    C     C_R   0.212197 0.646852 0.971406 0.131312
C4    C     C_R   0.211965 0.352839 0.972209 0.132519
C5    C     C_R   0.611977 0.817505 0.695787 -0.026278
C6    C     C_R   0.611742 0.182669 0.696001 -0.021837
C7    C     C_R   0.111977 0.317505 0.695787 -0.026279
C8    C     C_R   0.111742 0.682669 0.696001 -0.021837
C9    C     C_3   0.201333 0.131992 0.522110 -0.396016
C10   C     C_3   0.201727 0.868290 0.522499 -0.397999
C11   C     C_3   0.701333 0.631992 0.522110 -0.396017
C12   C     C_R   0.373623 0.802684 0.996478 -0.027325
C13   C     C_3   0.701727 0.368291 0.522500 -0.397998
C14   C     C_3   0.147648 0.180074 0.626540 -0.404134
C15   C     C_3   0.148135 0.820154 0.626909 -0.401090
C16   C     C_3   0.647648 0.680074 0.626540 -0.404134
C17   C     C_3   0.648135 0.320154 0.626910 -0.401088
C18   C     C_3   0.309688 0.241805 0.440252 -0.393641
C19   C     C_3   0.309450 0.757939 0.440066 -0.393121
C20   C     C_3   0.809688 0.741805 0.440252 -0.393641
C21   C     C_3   0.809450 0.257939 0.440066 -0.393118
C22   C     C_3   0.694095 0.739056 0.417092 -0.400380
C23   C     C_R   0.873870 0.697412 0.996014 -0.025995
C24   C     C_3   0.693386 0.261838 0.417784 -0.402052
C25   C     C_3   0.194095 0.239056 0.417091 -0.400380
C26   C     C_3   0.193386 0.761837 0.417784 -0.402052
C27   C     C_3   0.255524 0.188084 0.423837 0.391840
C28   C     C_3   0.255366 0.812215 0.424108 0.393474
C29   C     C_3   0.755524 0.688084 0.423837 0.391840
C30   C     C_3   0.755365 0.312215 0.424108 0.393474
C31   C     C_3   0.659856 0.768898 0.599046 0.399678
C32   C     C_3   0.659627 0.231364 0.599323 0.397108
C33   C     C_3   0.159856 0.268898 0.599046 0.399679
C34   C     C_R   0.873624 0.302683 0.996478 -0.027325
C35   C     C_3   0.159627 0.731364 0.599323 0.397108
C36   C     C_3   0.753337 0.791323 0.540947 -0.398825
C37   C     C_3   0.753033 0.208308 0.540646 -0.398560
C38   C     C_3   0.253337 0.291323 0.540947 -0.398825
C39   C     C_3   0.253033 0.708307 0.540646 -0.398558
C40   C     C_R   0.351764 0.826654 0.222162 -0.129184
C41   C     C_R   0.351875 0.173464 0.221908 -0.134337
C42   C     C_R   0.851763 0.326654 0.222162 -0.129181
C43   C     C_R   0.851875 0.673464 0.221908 -0.134336
C44   C     C_3   0.634961 0.784552 0.522916 -0.404299
C45   C     C_R   0.669743 0.913221 0.048494 -0.134971
C46   C     C_3   0.634118 0.216447 0.523721 -0.403467
C47   C     C_3   0.134961 0.284552 0.522915 -0.404299
C48   C     C_3   0.134118 0.716447 0.523721 -0.403469
C49   C     C_2   0.288808 0.686448 0.937474 -0.159618
C50   C     C_2   0.289077 0.314015 0.938003 -0.158552
C51   C     C_2   0.788808 0.186448 0.937474 -0.159618
C52   C     C_2   0.789077 0.814014 0.938004 -0.158550
C53   C     C_2   0.792169 0.264236 0.924492 -0.212611
C54   C     C_2   0.794882 0.736680 0.920590 -0.212910
C55   C     C_2   0.292168 0.764237 0.924492 -0.212612
C56   C     C_R   0.669979 0.086611 0.047997 -0.133947
C57   C     C_2   0.294883 0.236680 0.920588 -0.212911
C58   C     C_R   0.361226 0.891375 0.902815 -0.152303
C59   C     C_R   0.361892 0.108859 0.901972 -0.154084
C60   C     C_R   0.861226 0.391375 0.902815 -0.152303
C61   C     C_R   0.861892 0.608859 0.901973 -0.154085
C62   C     C_R   0.366281 0.086799 0.316661 -0.126727
C63   C     C_R   0.366303 0.913309 0.316679 -0.127185
C64   C     C_R   0.866281 0.586799 0.316661 -0.126726
C65   C     C_R   0.866303 0.413310 0.316679 -0.127185
C66   C     C_R   0.343043 0.185042 0.937732 0.066485
C67   C     C_R   0.169743 0.413221 0.048494 -0.134972
C68   C     C_R   0.342117 0.815274 0.939017 0.061352
C69   C     C_R   0.843042 0.685041 0.937733 0.066485
C70   C     C_R   0.842117 0.315274 0.939017 0.061352
C71   C     C_R   0.314737 0.855685 0.324608 -0.026429
C72   C     C_R   0.314837 0.144548 0.324426 -0.022686
C73   C     C_R   0.814737 0.355686 0.324608 -0.026431
C74   C     C_R   0.814837 0.644548 0.324426 -0.022687
C75   C     C_R   0.661618 0.174609 0.946005 -0.106260
C76   C     C_R   0.661428 0.825018 0.946674 -0.102504
C77   C     C_R   0.161618 0.674609 0.946005 -0.106260
C78   C     C_R   0.169979 0.586611 0.047997 -0.133948
C79   C     C_R   0.161428 0.325017 0.946675 -0.102501
C80   C     C_R   0.602685 0.801992 0.789674 -0.118609
C81   C     C_R   0.602459 0.198087 0.789876 -0.124853
C82   C     C_R   0.102685 0.301992 0.789674 -0.118609
C83   C     C_R   0.102459 0.698087 0.789876 -0.124854
C84   C     C_R   0.594804 0.104639 0.695570 -0.140722
C85   C     C_R   0.594882 0.895497 0.695508 -0.141025
C86   C     C_R   0.094805 0.604639 0.695570 -0.140722
C87   C     C_R   0.094882 0.395497 0.695508 -0.141025
C88   C     C_2   0.390087 0.273536 0.025642 0.900844
C89   C     C_R   0.712197 0.146852 0.971406 0.131312
C90   C     C_2   0.389383 0.726724 0.027167 0.902290
C91   C     C_2   0.890086 0.773536 0.025643 0.900844
C92   C     C_2   0.889383 0.226724 0.027167 0.902289
H1    H     H_    0.159814 0.095649 0.512443 0.156902
H2    H     H_    0.169035 0.834637 0.677169 0.151044
H3    H     H_    0.667983 0.665058 0.677283 0.149191
H4    H     H_    0.669035 0.334637 0.677170 0.151043
H5    H     H_    0.352344 0.206083 0.448610 0.156409
H6    H     H_    0.352376 0.793270 0.448304 0.156421
H7    H     H_    0.852344 0.706083 0.448609 0.156409
H8    H     H_    0.852377 0.293270 0.448303 0.156421
H9    H     H_    0.771771 0.782308 0.595227 0.154105
H10   H     H_    0.771835 0.216685 0.594629 0.154454
H11   H     H_    0.271770 0.282309 0.595227 0.154105
H12   H     H_    0.160178 0.904994 0.513240 0.157258
H13   H     H_    0.271835 0.716685 0.594629 0.154454
H14   H     H_    0.729102 0.782476 0.350529 0.172339
H15   H     H_    0.727935 0.218364 0.351264 0.174000
H16   H     H_    0.229102 0.282476 0.350529 0.172339
H17   H     H_    0.227936 0.718364 0.351264 0.174000
H18   H     H_    0.656708 0.701554 0.401508 0.161219
H19   H     H_    0.656116 0.299753 0.402404 0.159942
H20   H     H_    0.156708 0.201555 0.401508 0.161219
H21   H     H_    0.156116 0.799752 0.402403 0.159942
H22   H     H_    0.568487 0.766465 0.562959 0.158763
H23   H     H_    0.659814 0.595649 0.512443 0.156902
H24   H     H_    0.567762 0.235150 0.564140 0.158711
H25   H     H_    0.068487 0.266466 0.562959 0.158763
H26   H     H_    0.067763 0.735149 0.564139 0.158711
H27   H     H_    0.640206 0.847610 0.502136 0.149737
H28   H     H_    0.638640 0.153443 0.503087 0.150306
H29   H     H_    0.140206 0.347610 0.502136 0.149737
H30   H     H_    0.138640 0.653443 0.503087 0.150306
H31   H     H_    0.350073 0.281047 0.369246 0.164487
H32   H     H_    0.349552 0.718764 0.368927 0.164189
H33   H     H_    0.850073 0.781047 0.369246 0.164488
H34   H     H_    0.660178 0.404995 0.513240 0.157258
H35   H     H_    0.849552 0.218764 0.368926 0.164189
H36   H     H_    0.330583 0.776909 0.203718 0.129412
H37   H     H_    0.330867 0.223099 0.202981 0.132498
H38   H     H_    0.830582 0.276909 0.203718 0.129410
H39   H     H_    0.830867 0.723099 0.202981 0.132497
H40   H     H_    0.763463 0.854447 0.517872 0.161471
H41   H     H_    0.762688 0.145250 0.517340 0.161730
H42   H     H_    0.263463 0.354447 0.517872 0.161471
H43   H     H_    0.262688 0.645250 0.517340 0.161730
H44   H     H_    0.336926 0.653575 0.933551 0.159864
H45   H     H_    0.580044 0.663748 0.672187 0.159261
H46   H     H_    0.335119 0.346808 0.938561 0.159076
H47   H     H_    0.836927 0.153575 0.933550 0.159865
H48   H     H_    0.835120 0.846808 0.938559 0.159075
H49   H     H_    0.746255 0.295358 0.921170 0.138438
H50   H     H_    0.751513 0.705817 0.912220 0.134359
H51   H     H_    0.246254 0.795358 0.921170 0.138438
H52   H     H_    0.251516 0.205818 0.912214 0.134358
H53   H     H_    0.353014 0.919321 0.847184 0.102014
H54   H     H_    0.354330 0.081083 0.845680 0.101250
H55   H     H_    0.853014 0.419321 0.847184 0.102014
H56   H     H_    0.580602 0.336924 0.673083 0.160774
H57   H     H_    0.854329 0.581082 0.845681 0.101251
H58   H     H_    0.365530 0.061878 0.380825 0.081064
H59   H     H_    0.365683 0.938240 0.380717 0.081578
H60   H     H_    0.865530 0.561878 0.380825 0.081064
H61   H     H_    0.865683 0.438240 0.380717 0.081579
H62   H     H_    0.674564 0.220519 0.890217 0.094022
H63   H     H_    0.674255 0.779157 0.890955 0.092314
H64   H     H_    0.174565 0.720519 0.890217 0.094022
H65   H     H_    0.174255 0.279156 0.890955 0.092314
H66   H     H_    0.607022 0.745810 0.817831 0.134651
H67   H     H_    0.080044 0.163748 0.672187 0.159261
H68   H     H_    0.606393 0.254275 0.818389 0.136345
H69   H     H_    0.107022 0.245810 0.817831 0.134650
H70   H     H_    0.106393 0.754275 0.818389 0.136344
H71   H     H_    0.591566 0.073115 0.637942 0.087505
H72   H     H_    0.591504 0.927080 0.638014 0.087935
H73   H     H_    0.091566 0.573115 0.637943 0.087505
H74   H     H_    0.091504 0.427080 0.638014 0.087935
H75   H     H_    0.689751 0.938584 0.093081 0.119938
H76   H     H_    0.690065 0.061370 0.092575 0.121763
H77   H     H_    0.189751 0.438584 0.093081 0.119937
H78   H     H_    0.080603 0.836924 0.673082 0.160774
H79   H     H_    0.190065 0.561370 0.092575 0.121763
H80   H     H_    0.240792 0.091051 0.529835 0.143463
H81   H     H_    0.241537 0.908890 0.529971 0.143644
H82   H     H_    0.740792 0.591051 0.529836 0.143463
H83   H     H_    0.741537 0.408890 0.529971 0.143644
H84   H     H_    0.341860 0.373088 0.112982 0.319943
H85   H     H_    0.471380 0.658698 0.029069 0.317633
H86   H     H_    0.841860 0.873089 0.112982 0.319944
H87   H     H_    0.971381 0.158699 0.029071 0.317633
H88   H     H_    0.167982 0.165058 0.677283 0.149190
N1    N     N_R   0.408680 0.130160 0.995800 -0.068327
N2    N     N_R   0.403730 0.078230 0.935950 -0.048234
N3    N     N_R   0.903730 0.421770 0.935950 -0.048234
N4    N     N_R   0.903730 0.578230 0.935950 -0.048233
N5    N     N_R   0.426630 0.075970 0.212960 -0.038117
N6    N     N_R   0.426630 0.924030 0.212960 -0.038144
N7    N     N_R   0.926630 0.575970 0.212960 -0.038117
N8    N     N_R   0.926630 0.424030 0.212960 -0.038145
N9    N     N_R   0.591320 0.134600 0.004200 -0.038470
N10   N     N_R   0.591320 0.865400 0.004200 -0.034963
N11   N     N_R   0.091320 0.634600 0.004200 -0.038470
N12   N     N_R   0.408680 0.869840 0.995800 -0.064556
N13   N     N_R   0.091320 0.365400 0.004200 -0.034962
N14   N     N_R   0.578320 0.867660 0.846880 -0.031432
N15   N     N_R   0.578320 0.132340 0.846880 -0.035158
N16   N     N_R   0.078320 0.367660 0.846880 -0.031432
N17   N     N_R   0.078320 0.632340 0.846880 -0.035158
N18   N     N_R   0.573370 0.074390 0.787040 -0.038830
N19   N     N_R   0.573370 0.925610 0.787040 -0.038992
N20   N     N_R   0.073370 0.574390 0.787040 -0.038830
N21   N     N_R   0.073370 0.425610 0.787040 -0.038992
N22   N     N_R   0.596270 0.927870 0.064040 -0.053775
N23   N     N_R   0.908680 0.630160 0.995800 -0.068327
N24   N     N_R   0.596270 0.072130 0.064040 -0.053946
N25   N     N_R   0.096270 0.427870 0.064040 -0.053775
N26   N     N_R   0.096270 0.572130 0.064040 -0.053946
N27   N     N_R   0.908680 0.369840 0.995800 -0.064556
N28   N     N_R   0.421680 0.867580 0.153120 -0.029236
N29   N     N_R   0.421680 0.132420 0.153120 -0.033255
N30   N     N_R   0.921680 0.367580 0.153120 -0.029235
N31   N     N_R   0.921680 0.632420 0.153120 -0.033255
N32   N     N_R   0.403730 0.921770 0.935950 -0.048234
Ni1   Ni    Ni4+2 0.500000 0.131190 0.000000 0.263097
Ni2   Ni    Ni4+2 0.500000 0.868810 0.000000 0.256909
Ni3   Ni    Ni4+2 0.000000 0.631190 0.000000 0.263097
Ni4   Ni    Ni4+2 0.000000 0.368810 0.000000 0.256909
Ni5   Ni    Ni4+2 0.488650 0.000000 0.862740 0.199480
Ni6   Ni    Ni4+2 0.988650 0.500000 0.862740 0.199480
Ni7   Ni    Ni4+2 0.511350 0.000000 0.137260 0.211559
Ni8   Ni    Ni4+2 0.011350 0.500000 0.137260 0.211559
O1    O     O_2   0.461140 0.289605 0.995311 -0.672373
O2    O     O_R   0.322997 0.323976 0.096276 -0.832790
O3    O     O_2   0.331375 0.680868 0.084336 -0.677942
O4    O     O_R   0.468839 0.711116 0.000391 -0.828064
O5    O     O_2   0.961140 0.789604 0.995312 -0.672373
O6    O     O_R   0.822997 0.823976 0.096276 -0.832789
O7    O     O_2   0.831376 0.180868 0.084334 -0.677941
O8    O     O_R   0.968839 0.211118 0.000392 -0.828064

loop_
_geom_bond_atom_site_label_1
_geom_bond_atom_site_label_2
_ccdc_geom_bond_type
N5    N29   A    
N31   Ni3   S    
C40   N28   A    
N25   Ni8   S    
N5    Ni7   S    
H85   O4    S    
C85   H72   S    
C40   C71   A    
C59   N2    A    
C8    C83   A    
N20   Ni6   S    
C23   C69   A    
C6    C32   S    
C16   H45   S    
N19   Ni5   S    
C57   C66   S    
C14   C33   S    
C55   C68   S    
C3    C49   S    
C58   H53   S    
C39   H43   S    
N1    N2    A    
C67   H77   S    
C16   C31   S    
C12   C68   A    
H84   O2    S    
C64   H60   S    
N23   Ni3   S    
C22   C29   S    
N21   Ni6   S    
C10   C15   S    
C36   H40   S    
C77   H64   S    
C48   H30   S    
C37   H10   S    
N16   Ni4   S    
C8    C35   S    
C47   H29   S    
C87   H74   S    
N32   Ni5   S    
C53   C70   S    
C61   C69   A    
C40   H36   S    
C79   N13   A    
C65   C73   A    
C13   H83   S    
C15   C35   S    
H87   O8    S    
C88   O1    D    
C86   H73   S    
N12   N32   A    
C65   H61   S    
C25   H20   S    
N11   Ni3   S    
C52   H48   S    
C47   H25   S    
N8    N30   A    
C85   N19   A    
C7    C87   A    
C92   O7    D    
C45   N22   A    
C22   H18   S    
C25   H16   S    
C18   H5    S    
C21   H35   S    
C11   H23   S    
C34   C70   A    
C53   H49   S    
C67   N25   A    
C26   C48   S    
C18   H31   S    
N7    Ni8   S    
N15   N18   A    
C41   N29   A    
C60   N3    A    
N4    Ni6   S    
C65   N8    A    
C44   H22   S    
C2    C45   A    
C6    C81   A    
C91   O5    D    
C7    C33   S    
C24   H19   S    
C15   H2    S    
C35   C48   S    
N4    N23   A    
N12   Ni2   S    
C19   H6    S    
C52   C54   D    
C24   C30   S    
C20   C29   S    
N8    Ni8   S    
N9    N24   A    
C12   N12   A    
C22   C44   S    
C19   H32   S    
C11   H82   S    
C55   H51   S    
C31   C44   S    
N24   Ni7   S    
C62   C72   A    
C77   N11   A    
C13   C30   S    
C17   H56   S    
C6    C84   A    
C4    C79   A    
N27   Ni4   S    
C17   H4    S    
C30   C73   S    
C1    N1    A    
N10   N22   A    
C48   H26   S    
C29   C74   S    
C1    C88   S    
C84   N18   A    
C49   C55   D    
N29   Ni1   S    
C15   H78   S    
C23   N23   A    
C36   H9    S    
C51   C53   D    
N11   N26   A    
C20   C36   S    
N22   Ni7   S    
N17   N20   A    
C35   C39   S    
C9    C14   S    
C78   N26   A    
C90   O4    S    
C38   H11   S    
C2    C52   S    
C81   N15   A    
C45   H75   S    
C11   C16   S    
C80   H66   S    
N14   N19   A    
C54   H50   S    
C60   C70   A    
N9    Ni1   S    
C63   N6    A    
N3    N27   A    
C56   H76   S    
C1    C66   A    
C46   H28   S    
C42   H38   S    
C24   H15   S    
C32   C37   S    
C5    C80   A    
C19   C28   S    
N10   Ni2   S    
C26   H17   S    
C63   H59   S    
C84   H71   S    
C19   C39   S    
N2    Ni5   S    
C62   N5    A    
C13   H34   S    
C58   C68   A    
C56   C89   A    
C60   H55   S    
C83   H70   S    
N7    N31   A    
N3    Ni6   S    
C41   C72   A    
C91   O6    S    
C33   C47   S    
C23   C91   S    
C28   C71   S    
C83   N17   A    
C3    C77   A    
C9    H1    S    
C88   O2    S    
C2    C76   A    
C9    C27   S    
N13   Ni4   S    
N6    Ni7   S    
C10   C28   S    
C39   H13   S    
C25   C47   S    
C54   C69   S    
C61   N4    A    
N28   Ni2   S    
C62   H58   S    
C57   H52   S    
C75   N9    A    
C21   H8    S    
C50   C57   D    
C32   C46   S    
C49   H44   S    
C18   C27   S    
C63   C71   A    
C9    H80   S    
N17   Ni3   S    
C12   C90   S    
C4    C67   A    
C50   H46   S    
C82   N16   A    
C56   N24   A    
C82   H69   S    
C58   N32   A    
C34   N27   A    
C25   C27   S    
C79   H65   S    
C80   N14   A    
C21   C30   S    
C76   H63   S    
C26   C28   S    
C33   C38   S    
C44   H27   S    
N6    N28   A    
C14   H67   S    
N26   Ni8   S    
C10   H12   S    
C42   N30   A    
C18   C38   S    
C26   H21   S    
C5    C85   A    
C20   H33   S    
C59   C66   A    
C22   H14   S    
C51   C89   S    
C11   C29   S    
C41   H37   S    
C16   H3    S    
C75   H62   S    
C20   H7    S    
C43   C74   A    
N30   Ni4   S    
C43   H39   S    
C78   H79   S    
C42   C73   A    
C8    C86   A    
C38   H42   S    
C10   H81   S    
C37   H41   S    
C34   C92   S    
C43   N31   A    
H86   O6    S    
C64   N7    A    
C76   N10   A    
C75   C89   A    
C13   C17   S    
N18   Ni5   S    
C59   H54   S    
C90   O3    D    
C7    C82   A    
C21   C37   S    
C92   O8    S    
N13   N25   A    
N14   Ni2   S    
C4    C50   S    
C81   H68   S    
C17   C32   S    
C64   C74   A    
C31   C36   S    
C46   H24   S    
N1    Ni1   S    
N16   N21   A    
C3    C78   A    
C61   H57   S    
C87   N21   A    
C14   H88   S    
C27   C72   S    
N15   Ni1   S    
C86   N20   A    
C24   C46   S    
C5    C31   S    
C51   H47   S    
