data_mof_unit_15387.cif
_audit_creation_date              2012-12-10T19:34:13-0500
_audit_creation_method            fapswitch 2.2
_symmetry_space_group_name_H-M    P1
_symmetry_Int_Tables_number       1
_space_group_crystal_system       triclinic
_cell_length_a                    12.992518
_cell_length_b                    15.86398
_cell_length_c                    17.062457
_cell_angle_alpha                 94.885088
_cell_angle_beta                  92.649948
_cell_angle_gamma                 87.97867
_cell_volume                      3498.53810515

loop_
_atom_site_label
_atom_site_type_symbol
_atom_type_description
_atom_site_fract_x
_atom_site_fract_y
_atom_site_fract_z
_atom_type_partial_charge
C1    C     C_R   0.508675 0.490524 0.348820 0.795416
C2    C     C_R   0.492684 0.509241 0.651967 0.790305
C3    C     C_R   0.594686 0.566118 0.155143 0.052463
C4    C     C_R   0.432350 0.437127 0.856230 0.052460
C5    C     C_R   0.529735 0.518138 0.101974 0.290905
C6    C     C_R   0.449296 0.512376 0.903066 0.287239
C7    C     C_R   0.478307 0.450118 0.127582 -0.232643
C8    C     C_R   0.468230 0.586631 0.869495 -0.202666
C9    C     C_R   0.482963 0.432484 0.206191 0.014109
C10   C     C_R   0.472380 0.588850 0.787694 0.014184
C11   C     C_R   0.437833 0.757051 0.471117 -0.021381
C12   C     C_R   0.564871 0.243418 0.526574 -0.007976
C13   C     C_R   0.442070 0.845981 0.471188 -0.284440
C14   C     C_R   0.563951 0.154098 0.524545 -0.296939
C15   C     C_R   0.525152 0.889094 0.510701 0.351735
C16   C     C_R   0.481875 0.109972 0.484848 0.354722
C17   C     C_R   0.599786 0.841648 0.549063 -0.309806
C18   C     C_R   0.404560 0.156727 0.448813 -0.322580
C19   C     C_R   0.592869 0.753554 0.551053 0.275755
C20   C     C_R   0.406480 0.245511 0.450750 0.258164
C21   C     C_R   0.301606 0.515154 0.500113 0.807306
C22   C     C_R   0.698390 0.484915 0.500200 0.800184
C23   C     C_R   0.810210 0.476310 0.502955 -0.078948
C24   C     C_R   0.189777 0.524129 0.497899 -0.077281
C25   C     C_R   0.033541 0.606988 0.468737 0.096900
C26   C     C_R   0.966497 0.393878 0.532674 0.096832
C27   C     C_R   0.141213 0.597842 0.473199 -0.199486
C28   C     C_R   0.858848 0.402480 0.527306 -0.198999
C29   C     C_R   0.132284 0.458838 0.520087 -0.301359
C30   C     C_R   0.867600 0.542360 0.482055 -0.303529
C31   C     C_R   0.024873 0.463070 0.513845 0.107637
C32   C     C_R   0.975048 0.537985 0.487901 0.110368
C33   C     C_R   0.529661 0.490854 0.263371 -0.122440
C34   C     C_R   0.472971 0.510418 0.738872 -0.149554
C35   C     C_R   0.592712 0.554930 0.237142 0.019821
C36   C     C_R   0.449789 0.433343 0.774244 0.023327
Cu1   Cu    Cu3+1 0.494970 0.415610 0.496200 0.910438
Cu2   Cu    Cu3+1 0.505030 0.584390 0.503800 0.906916
H1    H     H_    0.664118 0.875202 0.577452 0.142013
H2    H     H_    0.341387 0.121884 0.420297 0.147349
H3    H     H_    0.438625 0.407265 0.084598 0.165150
H4    H     H_    0.476489 0.643181 0.908968 0.152260
N1    N     N_2   0.528157 0.531061 0.020522 -0.258334
N2    N     N_2   0.444920 0.512044 0.985499 -0.261536
N3    N     N_R   0.512580 0.711160 0.509520 -0.178372
N4    N     N_R   0.487420 0.288840 0.490480 -0.172927
N5    N     N_2   0.538695 0.978884 0.514868 -0.243499
N6    N     N_2   0.469967 0.020006 0.480029 -0.241489
O1    O     O_R   0.495300 0.420890 0.382510 -0.591831
O2    O     O_R   0.504700 0.579110 0.617490 -0.607494
O3    O     O_R   0.503790 0.563430 0.388930 -0.582321
O4    O     O_R   0.496210 0.436570 0.611070 -0.579931
O5    O     O_R   0.345440 0.440310 0.497300 -0.616030
O6    O     O_R   0.654560 0.559690 0.502700 -0.610653
O7    O     O_R   0.353930 0.582840 0.503720 -0.587501
O8    O     O_R   0.646070 0.417160 0.496280 -0.589532
H5    H     H_    0.826892 0.596763 0.460499 0.141914
H6    H     H_    0.172813 0.405156 0.543019 0.139045
C37   C     C_3   0.680699 0.707889 0.594344 -0.368335
C38   C     C_3   0.731233 0.758233 0.666500 -0.454078
C39   C     C_3   0.798583 0.700436 0.716275 -0.836662
H7    H     H_    0.750911 0.652881 0.740564 0.248327
H8    H     H_    0.858977 0.667209 0.680084 0.261099
H9    H     H_    0.836670 0.738784 0.766135 0.245992
H10   H     H_    0.781692 0.806839 0.647039 0.224100
H11   H     H_    0.671385 0.790136 0.703857 0.230106
H12   H     H_    0.653169 0.650373 0.616352 0.257034
H13   H     H_    0.741933 0.690477 0.552313 0.187848
C40   C     C_3   0.312686 0.291102 0.415652 -0.351144
C41   C     C_3   0.245918 0.241114 0.351956 -0.464477
C42   C     C_3   0.165378 0.299310 0.314124 -0.838966
H14   H     H_    0.115037 0.330757 0.359542 0.262477
H15   H     H_    0.203374 0.348372 0.283938 0.245858
H16   H     H_    0.116679 0.261582 0.269937 0.245473
H17   H     H_    0.294683 0.210431 0.305302 0.234928
H18   H     H_    0.203594 0.191880 0.378691 0.224884
H19   H     H_    0.261756 0.310507 0.464564 0.200807
H20   H     H_    0.337949 0.346639 0.388611 0.246498
H21   H     H_    0.811397 0.352477 0.542926 0.141152
H22   H     H_    0.188767 0.647410 0.456813 0.141908
C43   C     C_3   0.980159 0.688682 0.443916 -0.422605
C44   C     C_3   0.050808 0.761350 0.430250 -0.357975
C45   C     C_3   0.987975 0.840191 0.409641 -0.844809
H23   H     H_    0.941677 0.826773 0.353919 0.251189
H24   H     H_    0.935649 0.861523 0.457603 0.255335
H25   H     H_    0.040825 0.892024 0.401747 0.239520
H26   H     H_    0.099122 0.777895 0.484507 0.221476
H27   H     H_    0.101561 0.741836 0.380772 0.213316
H28   H     H_    0.933503 0.673244 0.388602 0.198404
H29   H     H_    0.927282 0.712564 0.490844 0.198828
C46   C     C_3   0.020124 0.312460 0.557855 -0.426677
C47   C     C_3   0.949976 0.239677 0.572007 -0.357428
C48   C     C_3   0.013571 0.161526 0.593508 -0.850883
H30   H     H_    0.064747 0.139147 0.545100 0.253170
H31   H     H_    0.061292 0.176312 0.648350 0.254727
H32   H     H_    0.961211 0.109954 0.603290 0.240789
H33   H     H_    0.898911 0.259469 0.621225 0.213163
H34   H     H_    0.901990 0.222279 0.517776 0.221798
H35   H     H_    0.073208 0.288510 0.511093 0.199969
H36   H     H_    0.066530 0.328364 0.613202 0.197812
C49   C     C_3   0.438525 0.347056 0.727121 -0.347324
C50   C     C_3   0.331929 0.340226 0.684349 -0.333565
C51   C     C_3   0.312513 0.249811 0.650286 -0.862904
H37   H     H_    0.377072 0.225150 0.613884 0.272901
H38   H     H_    0.304765 0.208016 0.698562 0.248673
H39   H     H_    0.240303 0.248450 0.612896 0.236744
H40   H     H_    0.270697 0.359890 0.726145 0.201476
H41   H     H_    0.325010 0.382977 0.636260 0.243558
H42   H     H_    0.503006 0.330642 0.688075 0.206921
H43   H     H_    0.448846 0.294002 0.764819 0.185705
C52   C     C_3   0.665558 0.605378 0.294560 -0.376055
C53   C     C_3   0.625064 0.697006 0.313653 -0.304083
C54   C     C_3   0.707301 0.751091 0.357771 -0.867168
H44   H     H_    0.733132 0.723467 0.413179 0.250772
H45   H     H_    0.774425 0.755205 0.320471 0.244484
H46   H     H_    0.675137 0.815973 0.372549 0.253423
H47   H     H_    0.599055 0.727211 0.259610 0.198047
H48   H     H_    0.556988 0.697680 0.350090 0.250435
H49   H     H_    0.679975 0.574215 0.349861 0.200386
H50   H     H_    0.743218 0.604829 0.269874 0.183896
C55   C     C_3   0.397016 0.361494 0.896883 -0.397815
C56   C     C_3   0.489435 0.309636 0.928930 -0.339548
C57   C     C_3   0.454036 0.235032 0.970537 -0.870989
H51   H     H_    0.405609 0.257722 0.020502 0.247738
H52   H     H_    0.409014 0.191602 0.928634 0.254915
H53   H     H_    0.522292 0.199507 0.993881 0.244822
H54   H     H_    0.539404 0.285242 0.880490 0.207881
H55   H     H_    0.537186 0.350386 0.971315 0.234283
H56   H     H_    0.347364 0.383700 0.946326 0.201784
H57   H     H_    0.344921 0.321022 0.857860 0.192080
C58   C     C_3   0.667677 0.625785 0.121421 -0.405417
C59   C     C_3   0.760508 0.576191 0.086125 -0.337409
C60   C     C_3   0.833156 0.634858 0.050878 -0.855503
H58   H     H_    0.792263 0.667767 0.003030 0.255763
H59   H     H_    0.863067 0.682592 0.096978 0.250697
H60   H     H_    0.899397 0.597230 0.025902 0.242304
H61   H     H_    0.803614 0.542972 0.132841 0.210316
H62   H     H_    0.734215 0.527872 0.039179 0.233558
H63   H     H_    0.625635 0.660991 0.075541 0.206142
H64   H     H_    0.697089 0.675287 0.165291 0.201857
C61   C     C_3   0.448380 0.346231 0.223578 -0.377323
C62   C     C_3   0.543003 0.286752 0.234366 -0.304968
C63   C     C_3   0.512766 0.196388 0.244051 -0.857504
H65   H     H_    0.473740 0.193832 0.299986 0.263265
H66   H     H_    0.461058 0.172440 0.194021 0.247760
H67   H     H_    0.583111 0.154641 0.245814 0.242794
H68   H     H_    0.590579 0.285728 0.181707 0.212661
H69   H     H_    0.591306 0.309998 0.286658 0.234575
H70   H     H_    0.399645 0.350895 0.274625 0.207578
H71   H     H_    0.398533 0.318221 0.174002 0.181843
C64   C     C_3   0.472453 0.674616 0.752871 -0.347126
C65   C     C_3   0.450632 0.753681 0.809193 -0.402172
C66   C     C_3   0.435141 0.832868 0.764360 -0.830892
H72   H     H_    0.504180 0.843296 0.730984 0.251303
H73   H     H_    0.367069 0.826621 0.722663 0.255170
H74   H     H_    0.421866 0.888943 0.806638 0.240699
H75   H     H_    0.379358 0.745546 0.841042 0.226765
H76   H     H_    0.516597 0.763529 0.852492 0.218988
H77   H     H_    0.548396 0.681817 0.727750 0.216317
H78   H     H_    0.410763 0.674590 0.705491 0.227976
H79   H     H_    0.627627 0.276279 0.558161 0.128600
H80   H     H_    0.375071 0.724725 0.438961 0.131559
H81   H     H_    0.626226 0.120563 0.554199 0.156020
H82   H     H_    0.381603 0.879987 0.440023 0.154947

loop_
_geom_bond_atom_site_label_1
_geom_bond_atom_site_label_2
_ccdc_geom_bond_type
C63   H67   S    
C25   C43   S    
C4    C36   A    
C49   C50   S    
C40   H19   S    
C52   C53   S    
C24   C27   A    
C15   N5    S    
C55   H57   S    
C16   N6    S    
C43   C44   S    
C61   H70   S    
C57   H51   S    
C22   O6    A    
C66   H72   S    
C48   H30   S    
C3    C58   S    
C8    H4    S    
C53   H47   S    
C10   C64   S    
C57   H52   S    
C59   H62   S    
C63   H65   S    
C30   H5    S    
C14   H81   S    
C52   H49   S    
C17   H1    S    
C56   H54   S    
C39   H8    S    
C28   H21   S    
C18   H2    S    
C24   C29   A    
Cu2   N3    S    
C58   H64   S    
C2    O2    A    
C37   H12   S    
C12   H79   S    
Cu1   O8    S    
Cu2   O7    S    
N5    N6    D    
C59   C60   S    
C61   H71   S    
C60   H60   S    
C64   C65   S    
C50   H41   S    
C41   C42   S    
C46   H36   S    
C66   H73   S    
C18   C20   A    
C39   H7    S    
C36   C49   S    
C54   H46   S    
C43   H28   S    
C2    C34   S    
C25   C32   A    
C5    N1    S    
C49   H42   S    
C38   H11   S    
C26   C31   A    
C48   H31   S    
C6    N2    S    
C9    C33   A    
C40   H20   S    
C40   C41   S    
C53   C54   S    
C47   H33   S    
C56   C57   S    
C65   H76   S    
C1    C33   S    
C10   C34   A    
C23   C30   A    
C62   H69   S    
C4    C6    A    
C27   H22   S    
C46   C47   S    
C5    C7    A    
Cu1   O4    S    
C9    C61   S    
C17   C19   A    
C57   H53   S    
C22   O8    A    
Cu2   O3    S    
C19   C37   S    
C26   C46   S    
C11   H80   S    
C52   H50   S    
C64   H77   S    
C39   H9    S    
N1    N2    D    
Cu1   Cu2   S    
C37   H13   S    
C21   O5    A    
Cu1   O1    S    
C45   H23   S    
Cu2   O6    S    
C3    C35   A    
C50   H40   S    
C51   H38   S    
C16   C18   A    
C23   C28   A    
C65   C66   S    
C66   H74   S    
C1    O3    A    
C55   C56   S    
C2    O4    A    
C43   H29   S    
C12   N4    A    
C45   H24   S    
C12   C14   A    
C38   H10   S    
C48   H32   S    
C13   C15   A    
C41   H18   S    
C60   H58   S    
C14   C16   A    
C20   C40   S    
C11   N3    A    
C58   C59   S    
C41   H17   S    
C35   C52   S    
C13   H82   S    
C42   H15   S    
C54   H44   S    
C63   H66   S    
C65   H75   S    
C21   O7    A    
C62   C63   S    
C62   H68   S    
C31   C32   A    
C55   H56   S    
C3    C5    A    
C42   H16   S    
C6    C8    A    
C19   N3    A    
C15   C17   A    
Cu2   O2    S    
C25   C27   A    
C26   C28   A    
C64   H78   S    
C49   H43   S    
Cu1   O5    S    
C42   H14   S    
C29   C31   A    
C61   C62   S    
C30   C32   A    
C11   C13   A    
C44   H27   S    
C47   C48   S    
C33   C35   A    
C4    C55   S    
C51   H39   S    
C34   C36   A    
C7    H3    S    
C56   H55   S    
C50   C51   S    
C58   H63   S    
C47   H34   S    
C7    C9    A    
C37   C38   S    
C45   H25   S    
C29   H6    S    
C8    C10   A    
C44   C45   S    
C21   C24   S    
C51   H37   S    
C60   H59   S    
C53   H48   S    
C22   C23   S    
C38   C39   S    
C59   H61   S    
C46   H35   S    
Cu1   N4    S    
C1    O1    A    
C20   N4    A    
C44   H26   S    
C54   H45   S    
