data_mof_unit_50789.cif
_audit_creation_date              2012-12-11T14:12:26-0500
_audit_creation_method            fapswitch 2.2
_symmetry_space_group_name_H-M    P1
_symmetry_Int_Tables_number       1
_space_group_crystal_system       triclinic
_cell_length_a                    14.654632
_cell_length_b                    16.273278
_cell_length_c                    6.943941
_cell_angle_alpha                 89.898553
_cell_angle_beta                  98.587944
_cell_angle_gamma                 89.974102
_cell_volume                      1637.41324095

loop_
_atom_site_label
_atom_site_type_symbol
_atom_type_description
_atom_site_fract_x
_atom_site_fract_y
_atom_site_fract_z
_atom_type_partial_charge
O1    O     O_R   0.584460 0.414130 0.534110 -0.537131
O2    O     O_R   0.584460 0.585870 0.534110 -0.535632
O3    O     O_R   0.595580 0.585780 0.208030 -0.550265
O4    O     O_R   0.595580 0.414220 0.208030 -0.549124
O5    O     O_R   0.415540 0.585790 0.977250 -0.547021
O6    O     O_R   0.415540 0.414210 0.977250 -0.547476
C1    C     C_R   0.615089 0.615129 0.383190 0.731428
C2    C     C_R   0.619436 0.388247 0.385455 0.740302
O7    O     O_3   0.440930 0.500000 0.319360 -0.365339
V1    V     V_3+5 0.510960 0.500000 0.068030 1.515609
O8    O     O_R   0.404420 0.414140 0.643900 -0.517918
O9    O     O_R   0.404420 0.585860 0.643900 -0.521634
C3    C     C_R   0.384087 0.384901 0.807268 0.746456
C4    C     C_R   0.381280 0.613025 0.806491 0.753710
V2    V     V_3+5 0.489040 0.500000 0.560660 1.593464
O10   O     O_3   0.559070 0.500000 0.859200 -0.380339
H1    H     H_    0.169538 0.785783 0.824310 0.163743
H2    H     H_    0.228346 0.170558 0.841996 0.151104
H3    H     H_    0.356595 0.724249 0.069685 0.218251
H4    H     H_    0.266797 0.343868 0.045440 0.214673
C5    C     C_2   0.306330 0.674927 0.798288 -0.262864
C6    C     C_2   0.325593 0.310291 0.802765 -0.231807
C7    C     C_2   0.300626 0.725679 0.948962 -0.053589
C8    C     C_2   0.272720 0.295451 0.941540 -0.029559
C9    C     C_2   0.209117 0.829156 0.111425 0.286845
C10   C     C_2   0.176322 0.195518 0.103499 0.259211
C11   C     C_2   0.221039 0.782651 0.954164 -0.217611
C12   C     C_2   0.223952 0.215456 0.955997 -0.171534
H5    H     H_    0.252905 0.676174 0.672096 0.197364
H6    H     H_    0.331888 0.263800 0.693989 0.198951
C13   C     C_2   0.790729 0.786624 0.336211 -0.236169
C14   C     C_2   0.799028 0.220124 0.339965 -0.229787
C15   C     C_2   0.840653 0.807368 0.509976 0.299297
C16   C     C_2   0.808281 0.166460 0.491567 0.300006
H7    H     H_    0.793214 0.826317 0.211218 0.166343
H8    H     H_    0.850137 0.219805 0.241592 0.143279
C17   C     C_2   0.732751 0.712092 0.297293 -0.033333
C18   C     C_2   0.722995 0.280185 0.291469 -0.027427
C19   C     C_2   0.674729 0.687697 0.417821 -0.194837
C20   C     C_2   0.694156 0.327731 0.427640 -0.215066
H9    H     H_    0.733369 0.680410 0.160058 0.183203
H10   H     H_    0.695206 0.289282 0.139064 0.178223
H11   H     H_    0.669834 0.722737 0.548366 0.195632
H12   H     H_    0.726549 0.322167 0.577968 0.189193
O11   O     O_R   0.925070 0.912130 0.373190 -0.567330
O12   O     O_R   0.925070 0.087870 0.373190 -0.566707
O13   O     O_R   0.914170 0.083600 0.699490 -0.505931
O14   O     O_R   0.914170 0.916400 0.699490 -0.495516
O15   O     O_R   0.094290 0.084740 0.929940 -0.555032
O16   O     O_R   0.094290 0.915260 0.929940 -0.545483
C21   C     C_R   0.888792 0.110736 0.523586 0.639376
C22   C     C_R   0.895466 0.883986 0.527321 0.680373
O17   O     O_3   0.068710 1.000000 0.587750 -0.360455
V3    V     V_3+5 0.998820 1.000000 0.839270 1.618377
O18   O     O_R   0.105520 0.913050 0.263180 -0.505301
O19   O     O_R   0.105520 0.086950 0.263180 -0.514778
C23   C     C_R   0.130354 0.888149 0.100535 0.667399
C24   C     C_R   0.123326 0.117020 0.098808 0.627552
V4    V     V_3+5 0.020980 0.000000 0.346670 1.595102
O20   O     O_3   0.950820 0.000000 0.048230 -0.364664
S1    S     S_3+6 0.291853 0.827458 0.327330 -0.016391
O21   O     O_2   0.311178 0.740041 0.389800 -0.367162
O22   O     O_2   0.379580 0.866072 0.283207 -0.322897
O23   O     O_3   0.255288 0.879276 0.510876 -0.496280
H13   H     H_    0.305861 0.873737 0.621950 0.366162
S2    S     S_3+6 0.162904 0.267649 0.289697 -0.000489
O24   O     O_2   0.255331 0.302140 0.372452 -0.340969
O25   O     O_2   0.102702 0.336977 0.201605 -0.325667
O26   O     O_3   0.114980 0.225218 0.471883 -0.493049
H14   H     H_    0.047491 0.230990 0.432231 0.329812
S3    S     S_3+6 0.856768 0.740582 0.716011 -0.007809
O27   O     O_2   0.783392 0.757877 0.840224 -0.372537
O28   O     O_2   0.852114 0.651947 0.654740 -0.315851
O29   O     O_3   0.960751 0.758242 0.848284 -0.516960
H15   H     H_    0.959538 0.728822 0.972887 0.357510
S4    S     S_3+6 0.721057 0.149605 0.640627 0.006599
O30   O     O_2   0.738578 0.204434 0.816143 -0.368911
O31   O     O_2   0.626654 0.166646 0.530315 -0.312827
O32   O     O_3   0.725175 0.051135 0.715790 -0.495172
H16   H     H_    0.681561 0.048017 0.811656 0.375087

loop_
_geom_bond_atom_site_label_1
_geom_bond_atom_site_label_2
_ccdc_geom_bond_type
S2    O25   D    
O18   V4    S    
O12   V4    S    
O1    C2    A    
O2    C1    A    
S4    O32   S    
O4    C2    A    
O17   V4    S    
V3    O20   S    
O17   V3    S    
C15   C22   S    
O14   V3    S    
C16   C21   S    
O16   V3    S    
C14   H8    S    
C4    C5    S    
S4    O31   D    
C18   H10   S    
O3    C1    A    
S2    O26   S    
O15   V3    S    
S1    O22   D    
O8    V2    S    
H4    C8    S    
C13   C15   D    
O1    V2    S    
C7    C11   S    
O7    V1    S    
H1    C11   S    
S2    O24   D    
V4    O20   S    
S1    O21   D    
C9    C23   S    
O29   H15   S    
C10   S2    S    
H2    C12   S    
S4    O30   D    
S3    O28   D    
C19   H11   S    
O11   C22   A    
C5    H5    S    
O12   C21   A    
O15   C24   A    
C13   C17   S    
C14   C16   D    
S1    O23   S    
H3    C7    S    
O9    V2    S    
C20   H12   S    
C9    S1    S    
O2    V2    S    
C10   C24   S    
O5    C4    A    
O13   V3    S    
O9    C4    A    
C14   C18   S    
C5    C7    D    
C6    C8    D    
O4    V1    S    
O11   V4    S    
C6    H6    S    
O16   C23   A    
C8    C12   S    
O6    V1    S    
S3    O29   S    
O13   C21   A    
C9    C11   D    
C10   C12   D    
O19   V4    S    
O23   H13   S    
O18   C23   A    
O7    V2    S    
O5    V1    S    
C17   C19   D    
O3    V1    S    
V1    O10   S    
O6    C3    A    
C18   C20   D    
O8    C3    A    
O19   C24   A    
C3    C6    S    
C13   H7    S    
C17   H9    S    
O26   H14   S    
C15   S3    S    
O32   H16   S    
O14   C22   A    
S3    O27   D    
C1    C19   S    
C2    C20   S    
V2    O10   S    
C16   S4    S    
