data_mof_unit_11422.cif
_audit_creation_date              2012-12-10T18:45:03-0500
_audit_creation_method            fapswitch 2.2
_symmetry_space_group_name_H-M    P1
_symmetry_Int_Tables_number       1
_space_group_crystal_system       triclinic
_cell_length_a                    10.732231
_cell_length_b                    10.013552
_cell_length_c                    10.801892
_cell_angle_alpha                 90.952857
_cell_angle_beta                  93.045213
_cell_angle_gamma                 91.033456
_cell_volume                      1158.84744084

loop_
_atom_site_label
_atom_site_type_symbol
_atom_type_description
_atom_site_fract_x
_atom_site_fract_y
_atom_site_fract_z
_atom_type_partial_charge
C1    C     C_R   0.261328 0.499483 0.507382 0.939997
C2    C     C_R   0.739961 0.501870 0.496083 0.879279
C3    C     C_R   0.943628 0.626800 0.527015 0.090415
C4    C     C_R   0.070776 0.618264 0.553480 0.177808
C5    C     C_R   0.572313 0.073899 0.586087 0.226699
C6    C     C_R   0.424287 0.068737 0.416651 0.183649
C7    C     C_R   0.566276 0.931063 0.590393 0.224649
C8    C     C_R   0.425505 0.925484 0.415296 0.219110
C9    C     C_R   0.501743 0.498883 0.261028 0.925951
C10   C     C_R   0.503904 0.501083 0.739754 0.927756
C11   C     C_R   0.733540 0.544648 0.144010 0.148577
C12   C     C_R   0.732397 0.589305 0.895984 0.131299
C13   C     C_R   0.822090 0.636069 0.101590 0.204254
C14   C     C_R   0.818948 0.662773 0.974374 0.179330
C15   C     C_R   0.619293 0.541151 0.944908 -0.024860
C16   C     C_R   0.618653 0.529441 0.074067 -0.027201
C17   C     C_R   0.506612 0.495260 0.128964 -0.144725
C18   C     C_R   0.509042 0.501424 0.873129 -0.164507
C19   C     C_R   0.396342 0.465798 0.058311 0.093126
C20   C     C_R   0.399162 0.461874 0.929745 0.142397
C21   C     C_R   0.061863 0.382550 0.491237 -0.168403
C22   C     C_R   0.934560 0.384555 0.488620 -0.218996
C23   C     C_R   0.874241 0.506349 0.501194 -0.123055
C24   C     C_R   0.129876 0.499652 0.520259 -0.096359
H1    H     H_    0.106671 0.289464 0.469872 0.191251
H2    H     H_    0.883658 0.291508 0.468964 0.197216
N1    N     N_R   0.500000 0.857200 0.500000 -0.108794
N2    N     N_R   0.500000 0.142810 0.500000 -0.116706
O1    O     O_R   0.316770 0.614620 0.499990 -0.606614
O2    O     O_R   0.683230 0.614620 0.500010 -0.597792
O3    O     O_R   0.316800 0.385290 0.500000 -0.621839
O4    O     O_R   0.683200 0.385290 0.500000 -0.650323
O5    O     O_R   0.500010 0.614690 0.316770 -0.617270
O6    O     O_R   0.499990 0.614690 0.683230 -0.610730
O7    O     O_R   0.500040 0.385360 0.316770 -0.628404
O8    O     O_R   0.499960 0.385360 0.683230 -0.612052
Zn1   Zn    Zn3+2 0.500000 0.653120 0.500000 0.977723
Zn2   Zn    Zn3+2 0.500000 0.346880 0.500000 0.953446
I1    I     I_    0.224056 0.435425 0.147577 -0.423411
I2    I     I_    0.235008 0.397475 0.821773 -0.293706
C25   C     C_3   0.784257 0.420213 0.203817 -0.868348
H3    H     H_    0.794311 0.342505 0.130610 0.251900
H4    H     H_    0.878143 0.436696 0.249213 0.258203
H5    H     H_    0.721645 0.378568 0.271191 0.254454
C26   C     C_3   0.783716 0.529791 0.782292 -0.858760
H6    H     H_    0.730537 0.441263 0.747752 0.223486
H7    H     H_    0.880085 0.494483 0.803098 0.269274
H8    H     H_    0.788438 0.607141 0.712600 0.241225
C27   C     C_3   0.927035 0.690613 0.187012 -0.832516
H9    H     H_    0.917418 0.656945 0.282618 0.259676
H10   H     H_    0.018122 0.656651 0.155707 0.265676
H11   H     H_    0.925916 0.801420 0.188808 0.251307
C28   C     C_3   0.918874 0.750224 0.921474 -0.827633
H12   H     H_    0.898414 0.770758 0.822021 0.264002
H13   H     H_    0.924088 0.848569 0.970540 0.242340
H14   H     H_    0.010764 0.701279 0.931777 0.275356
I3    I     I_    0.873389 0.826048 0.506726 -0.411835
I4    I     I_    0.166374 0.777676 0.659808 -0.304347
C29   C     C_3   0.659711 0.146650 0.678692 -0.806177
H15   H     H_    0.667075 0.252079 0.662735 0.282318
H16   H     H_    0.628214 0.133552 0.774101 0.230766
H17   H     H_    0.756037 0.109660 0.671516 0.232321
C30   C     C_3   0.335760 0.136535 0.325715 -0.769140
H18   H     H_    0.238036 0.105113 0.339998 0.219617
H19   H     H_    0.336686 0.244064 0.336143 0.301522
H20   H     H_    0.359536 0.112582 0.229181 0.234898
C31   C     C_3   0.623471 0.860712 0.701102 -0.763908
H21   H     H_    0.700714 0.915596 0.752322 0.216781
H22   H     H_    0.550470 0.839927 0.767510 0.248152
H23   H     H_    0.665342 0.768563 0.670266 0.281560
C32   C     C_3   0.338014 0.851961 0.321774 -0.758073
H24   H     H_    0.240471 0.883086 0.332340 0.226802
H25   H     H_    0.365567 0.872651 0.226262 0.219709
H26   H     H_    0.333650 0.744530 0.331551 0.291205

loop_
_geom_bond_atom_site_label_1
_geom_bond_atom_site_label_2
_ccdc_geom_bond_type
C6    C30   S    
C32   H26   S    
C6    C8    A    
C31   H21   S    
C30   H19   S    
C27   H10   S    
O4    Zn2   S    
C15   C18   A    
O6    Zn1   S    
C25   H4    S    
C11   C16   A    
C3    C23   A    
C19   C20   A    
O3    Zn2   S    
N2    Zn2   S    
C2    O2    A    
C27   H11   S    
O7    Zn2   S    
C8    C32   S    
C1    O1    A    
C30   H20   S    
C32   H24   S    
C10   O6    A    
C28   H12   S    
C28   H14   S    
C9    O5    A    
C11   C13   A    
C19   I1    S    
N1    Zn1   S    
C13   C27   S    
C3    I3    S    
C2    O4    A    
C9    C17   S    
C17   C19   A    
C10   C18   S    
C11   C25   S    
C12   C15   A    
C18   C20   A    
C28   H13   S    
C1    O3    A    
C22   H2    S    
C4    C24   A    
C25   H5    S    
C6    N2    A    
C21   C24   A    
C29   H16   S    
C5    C29   S    
C30   H18   S    
C7    C31   S    
O8    Zn2   S    
C5    N2    A    
C26   H6    S    
C32   H25   S    
C29   H15   S    
C14   C28   S    
C7    N1    A    
C1    C24   S    
C5    C7    A    
C27   H9    S    
C25   H3    S    
C26   H7    S    
O1    Zn1   S    
C2    C23   S    
C9    O7    A    
C8    N1    A    
C21   H1    S    
C22   C23   A    
C16   C17   A    
C29   H17   S    
C10   O8    A    
C26   H8    S    
C31   H23   S    
C4    I4    S    
C21   C22   A    
C20   I2    S    
O5    Zn1   S    
C3    C4    A    
C15   C16   A    
O2    Zn1   S    
C12   C14   A    
C12   C26   S    
C31   H22   S    
C13   C14   A    
