data_mof_unit_20258.cif
_audit_creation_date              2012-10-26T20:31:59-0400
_audit_creation_method            fapswitch 2.2
_symmetry_space_group_name_H-M    P1
_symmetry_Int_Tables_number       1
_space_group_crystal_system       triclinic
_cell_length_a                    10.642694
_cell_length_b                    10.824619
_cell_length_c                    9.550691
_cell_angle_alpha                 89.943884
_cell_angle_beta                  89.713171
_cell_angle_gamma                 90.008197
_cell_volume                      1100.254957

loop_
_atom_site_label
_atom_site_type_symbol
_atom_type_description
_atom_site_fract_x
_atom_site_fract_y
_atom_site_fract_z
_atom_type_partial_charge
C1    C     C_R   0.502764 0.262337 0.499882 0.581344
C2    C     C_R   0.503025 0.936459 0.625607 0.000336
C3    C     C_3   0.403303 0.930627 0.736100 -0.243217
C4    C     C_R   0.259504 0.499956 0.500427 0.579001
C5    C     C_3   0.403971 0.070900 0.735589 -0.250957
C6    C     C_R   0.604590 0.535218 0.072859 0.172787
C7    C     C_R   0.401885 0.452508 0.074944 0.030033
C8    C     C_R   0.401868 0.452531 0.926183 -0.001314
C9    C     C_R   0.604637 0.535006 0.925636 0.184242
C10   C     C_3   0.669521 0.656796 0.918409 -0.268610
C11   C     C_3   0.668774 0.657562 0.077479 -0.272490
C12   C     C_3   0.959757 0.499271 0.365316 -0.144051
C13   C     C_R   0.501993 0.737629 0.500024 0.560687
C14   C     C_R   0.740507 0.500065 0.499591 0.584514
C15   C     C_3   0.039670 0.500168 0.634328 -0.153192
C16   C     C_3   0.957453 0.399832 0.565871 0.381558
C17   C     C_3   0.876965 0.500340 0.498429 -0.015375
C18   C     C_3   0.957425 0.602138 0.565937 -0.154982
C19   C     C_3   0.041932 0.599377 0.434350 0.377083
C20   C     C_1   0.089231 0.287381 0.365869 0.248806
C21   C     C_3   0.041357 0.398929 0.435089 -0.059254
C22   C     C_3   0.122937 0.499165 0.501608 -0.021949
C23   C     C_R   0.503513 0.063612 0.625089 -0.009675
C24   C     C_R   0.515383 0.129159 0.499801 0.031540
C25   C     C_R   0.544442 0.063780 0.376123 0.374551
C26   C     C_R   0.543290 0.935057 0.376997 -0.094135
C27   C     C_R   0.514020 0.870675 0.500627 -0.040574
Cu1   Cu    Cu3+1 0.499990 0.499980 0.640670 0.983909
Cu2   Cu    Cu3+1 0.500010 0.500020 0.359330 1.035754
F1    F     F_    0.910469 0.296223 0.632873 -0.595990
F2    F     F_    0.088971 0.702708 0.366924 -0.600483
F3    F     F_    0.568006 0.122921 0.253319 -0.603658
H1    H     H_    0.438564 0.890410 0.835542 0.152087
H2    H     H_    0.073889 0.499263 0.743950 0.141797
H3    H     H_    0.920348 0.686311 0.618047 0.139040
H4    H     H_    0.925783 0.499619 0.255585 0.141010
H5    H     H_    0.560072 0.886653 0.279826 0.150682
H6    H     H_    0.313985 0.890089 0.697287 0.166973
H7    H     H_    0.315018 0.112088 0.696535 0.153897
H8    H     H_    0.439911 0.111407 0.834538 0.179621
H9    H     H_    0.321624 0.415482 0.130681 0.138282
H10   H     H_    0.321604 0.415598 0.871338 0.123225
H11   H     H_    0.765441 0.648916 0.872662 0.141345
H12   H     H_    0.610093 0.730359 0.871805 0.153672
H13   H     H_    0.764281 0.651266 0.123495 0.148310
H14   H     H_    0.608007 0.730980 0.122094 0.149773
N1    N     N_R   0.500800 0.500930 0.147930 -0.232140
N2    N     N_R   0.500800 0.500890 0.852020 -0.239671
N3    N     N_1   0.127245 0.199492 0.311361 -0.244210
O1    O     O_R   0.500000 0.319640 0.618810 -0.504881
O2    O     O_R   0.500010 0.319680 0.381230 -0.431979
O3    O     O_R   0.316850 0.499950 0.618770 -0.526033
O4    O     O_R   0.316860 0.499990 0.381190 -0.491041
O5    O     O_R   0.499990 0.680320 0.618770 -0.509478
O6    O     O_R   0.500000 0.680360 0.381190 -0.506807
O7    O     O_R   0.683140 0.500010 0.618810 -0.480686
O8    O     O_R   0.683150 0.500050 0.381230 -0.509024

loop_
_geom_bond_atom_site_label_1
_geom_bond_atom_site_label_2
_ccdc_geom_bond_type
C12   C17   S    
C15   C18   S    
C14   O7    A    
C23   C24   A    
C8    N2    A    
C26   H5    S    
C16   C21   S    
C4    O4    A    
C12   H4    S    
C1    O2    A    
C9    C10   S    
C13   O5    A    
C15   H2    S    
C5    C23   S    
C2    C27   A    
C19   F2    S    
C19   C22   S    
C25   F3    S    
C7    H9    S    
C2    C3    S    
Cu1   O7    S    
C7    C8    A    
C21   C22   S    
C24   C25   A    
Cu1   O3    S    
C14   C17   S    
C26   C27   A    
C20   N3    T    
Cu2   O4    S    
Cu2   N1    S    
Cu1   O1    S    
C12   C19   S    
Cu1   Cu2   S    
C25   C26   A    
Cu2   O8    S    
C17   C18   S    
C4    O3    A    
C5    H7    S    
Cu2   O2    S    
C11   H13   S    
C10   C11   S    
C3    H1    S    
C10   H12   S    
C15   C16   S    
C6    N1    A    
C9    N2    A    
C6    C11   S    
C6    C9    A    
C4    C22   S    
C20   C21   S    
C18   H3    S    
C1    C24   S    
C18   C19   S    
C1    O1    A    
C5    H8    S    
C2    C23   A    
C14   O8    A    
Cu1   O5    S    
Cu1   N2    S    
C11   H14   S    
Cu2   O6    S    
C3    C5    S    
C10   H11   S    
C16   F1    S    
C12   C21   S    
C15   C22   S    
C13   C27   S    
C3    H6    S    
C8    H10   S    
C16   C17   S    
C13   O6    A    
C7    N1    A    
