data_mof_unit_6288.cif
_audit_creation_date              2013-03-05T16:06:01-0500
_audit_creation_method            fapswitch 2.2
_symmetry_space_group_name_H-M    P1
_symmetry_Int_Tables_number       1
_space_group_crystal_system       triclinic
_cell_length_a                    8.256386
_cell_length_b                    15.157693
_cell_length_c                    17.445382
_cell_angle_alpha                 100.990524
_cell_angle_beta                  97.352612
_cell_angle_gamma                 98.70705
_cell_volume                      2090.65209136

loop_
_atom_site_label
_atom_site_type_symbol
_atom_site_description
_atom_site_fract_x
_atom_site_fract_y
_atom_site_fract_z
_atom_type_partial_charge
P1    P     P_3+3 0.993950 0.412000 0.316970 0.497088
O1    O     O_2   0.823670 0.438410 0.305690 -0.347292
O2    O     O_3   0.097540 0.445020 0.403910 -0.447172
O3    O     O_3   0.626660 0.608370 0.360070 -0.325017
O4    O     O_2   0.638709 0.505618 0.219649 -0.349673
O5    O     O_3   0.947418 0.292130 0.294981 -0.528114
O6    O     O_3   0.673775 0.681561 0.226580 -0.486188
H1    H     H_    0.570695 0.770282 0.305268 0.082044
C1    C     C_3   0.681942 0.839686 0.223393 -0.841700
H2    H     H_    0.802024 0.863065 0.263995 0.282134
H3    H     H_    0.704797 0.825650 0.161246 0.253866
P2    P     P_3+3 0.694070 0.714570 0.569730 0.509688
P3    P     P_3+3 0.107868 0.776835 0.408834 0.494011
O7    O     O_2   0.863840 0.726690 0.546510 -0.302665
O8    O     O_3   0.059500 0.657930 0.401470 -0.383349
O9    O     O_2   0.987383 0.821959 0.457968 -0.355994
O10   O     O_3   0.746501 0.746409 0.672823 -0.543991
O11   O     O_3   0.051673 0.796276 0.314287 -0.533225
C2    C     C_3   0.119616 0.736720 0.260715 0.499969
H4    H     H_    0.054675 0.665126 0.253879 0.120540
H5    H     H_    0.254563 0.741978 0.280815 -0.024897
C3    C     C_3   0.097019 0.762185 0.180332 -0.976255
H6    H     H_    0.962901 0.754715 0.157311 0.287594
H7    H     H_    0.158690 0.833942 0.185494 0.261682
C4    C     C_3   0.381589 0.754158 0.721964 0.478931
H8    H     H_    0.468312 0.715411 0.693827 0.084454
C5    C     C_3   0.425114 0.772120 0.812228 -1.067642
H9    H     H_    0.441388 0.707741 0.830905 0.252702
H10   H     H_    0.543220 0.821606 0.833903 0.262080
H11   H     H_    0.324910 0.800053 0.840313 0.264300
Ba1   Ba    Ba6+2 0.844370 0.541120 0.463210 1.629162
C6    C     C_3   0.929576 0.257585 0.362995 0.351416
H12   H     H_    0.807713 0.266541 0.379254 0.086162
H13   H     H_    0.028056 0.291637 0.413783 0.137896
C7    C     C_3   0.941939 0.156217 0.345322 -0.877108
H14   H     H_    0.935954 0.128505 0.399518 0.178000
H15   H     H_    0.064932 0.149399 0.327811 0.192913
C8    C     C_3   0.788275 0.672349 0.703194 0.430529
H16   H     H_    0.883060 0.642986 0.672436 0.117944
H17   H     H_    0.676888 0.618702 0.696535 0.101723
C9    C     C_3   0.857960 0.706308 0.790837 -0.973140
H18   H     H_    0.980881 0.751216 0.798436 0.277299
H19   H     H_    0.871773 0.648178 0.819492 0.222961
H20   H     H_    0.772777 0.745462 0.821073 0.266607
P4    P     P_3+3 0.195760 0.588070 0.683040 0.500447
O12   O     O_2   0.366040 0.561620 0.694360 -0.387390
O13   O     O_3   0.092170 0.555060 0.596100 -0.377954
O14   O     O_3   0.563060 0.391710 0.639940 -0.361546
O15   O     O_3   0.216991 0.707848 0.697479 -0.537362
P5    P     P_3+3 0.088666 0.225175 0.595766 0.458618
O16   O     O_3   0.598320 0.387100 0.455790 -0.396430
O17   O     O_3   0.130210 0.342150 0.598540 -0.398913
O18   O     O_2   0.209517 0.180151 0.546997 -0.378710
O19   O     O_3   0.145509 0.208063 0.691196 -0.506334
Ba2   Ba    Ba6+2 0.345470 0.458960 0.536800 1.575964
P6    P     P_3+3 0.567832 0.588981 0.257568 0.511202
C10   C     C_3   0.586919 0.754342 0.241945 0.363389
H21   H     H_    0.464204 0.737375 0.202993 0.039570
H22   H     H_    0.607813 0.895122 0.231276 0.238167
O20   O     O_3   0.591400 0.612970 0.544220 -0.418651
C11   C     C_3   0.405788 0.299224 0.291820 0.407399
H23   H     H_    0.291872 0.315199 0.314836 0.082591
H24   H     H_    0.502180 0.361870 0.302772 0.119306
C12   C     C_3   0.360184 0.262777 0.202974 -0.899517
H25   H     H_    0.260022 0.201659 0.190171 0.256822
H26   H     H_    0.315792 0.315923 0.174164 0.217501
H27   H     H_    0.470422 0.243731 0.178168 0.270338
P7    P     P_3+3 0.503153 0.271313 0.429661 0.441314
O21   O     O_2   0.325880 0.273340 0.453540 -0.388634
O22   O     O_3   0.467735 0.232712 0.326761 -0.538491
H28   H     H_    0.152919 0.716470 0.137814 0.216105
C13   C     C_3   0.114112 0.281957 0.745826 0.537381
H29   H     H_    0.204955 0.344603 0.747543 0.151438
H30   H     H_    0.986437 0.295005 0.730581 -0.039772
C14   C     C_3   0.132495 0.260505 0.827803 -0.962784
H31   H     H_    0.260246 0.248646 0.845238 0.290616
H32   H     H_    0.108841 0.318687 0.871526 0.220261
H33   H     H_    0.041891 0.198452 0.828028 0.254671
P8    P     P_3+3 0.603191 0.402132 0.741761 0.464108
C15   C     C_3   0.637598 0.235070 0.734152 0.364082
H34   H     H_    0.748379 0.245401 0.780440 0.058275
O23   O     O_2   0.489205 0.464503 0.778840 -0.386438
O24   O     O_3   0.531699 0.294774 0.760320 -0.489503
H35   H     H_    0.677061 0.244843 0.677232 0.073724
H36   H     H_    0.631775 0.089296 0.702383 0.227436
C16   C     C_3   0.547187 0.136890 0.720866 -0.823263
H37   H     H_    0.437560 0.124288 0.673529 0.275113
H38   H     H_    0.505456 0.123471 0.776273 0.260708
C17   C     C_2   0.256946 0.491284 0.265002 -0.255090
C18   C     C_3   0.336762 0.566834 0.229754 0.134031
C19   C     C_2   0.280911 0.547107 0.141748 -0.270165
C20   C     C_2   0.132408 0.493232 0.109264 0.074677
C21   C     C_2   0.033591 0.446174 0.163100 -0.252872
C22   C     C_1   0.100143 0.453516 0.239275 0.186292
C23   C     C_R   0.888494 0.465182 0.857868 -0.287076
C24   C     C_R   0.822765 0.451880 0.777904 0.203007
C25   C     C_R   0.080188 0.533918 0.752437 0.295546
C26   C     C_R   0.146367 0.547377 0.833400 -0.273446
C27   C     C_R   0.052500 0.511465 0.886520 0.123010
C28   C     C_2   0.073070 0.474473 0.021363 -0.106909
C29   C     C_2   0.122372 0.529543 0.972594 -0.156374
C30   C     C_R   0.920545 0.482847 0.725044 -0.491809
H39   H     H_    0.214836 0.590929 0.995741 0.129147
H40   H     H_    0.808965 0.442386 0.897614 0.168524
H41   H     H_    0.984101 0.412281 0.995808 0.133842
H42   H     H_    0.359941 0.579634 0.106285 0.151676
H43   H     H_    0.270302 0.585800 0.855236 0.147430
H44   H     H_    0.327618 0.471031 0.313331 0.141109
H45   H     H_    0.868240 0.472364 0.663214 0.163548
C31   C     C_R   0.331371 0.825639 0.453238 0.099960
H46   H     H_    0.188780 0.953919 0.397998 0.177997
C32   C     C_R   0.587658 0.796784 0.523262 0.198368
C33   C     C_R   0.770788 0.232266 0.523517 -0.513536
C34   C     C_R   0.870764 0.176094 0.552843 0.234450
C35   C     C_R   0.807059 0.083769 0.546818 -0.311382
C36   C     C_R   0.641515 0.045440 0.509665 0.050038
C37   C     C_R   0.544818 0.103010 0.475438 0.038308
C38   C     C_R   0.570379 0.951390 0.502849 0.040105
C39   C     C_R   0.403746 0.918009 0.462180 0.021421
C40   C     C_R   0.314140 0.976636 0.429420 -0.200996
C41   C     C_R   0.384206 0.066308 0.434441 -0.066251
C42   C     C_R   0.657777 0.889410 0.535580 -0.184819
C43   C     C_R   0.430003 0.766711 0.479206 -0.439795
C44   C     C_R   0.611222 0.196281 0.482275 0.258352
H47   H     H_    0.779326 0.910695 0.570940 0.166225
H48   H     H_    0.821340 0.303663 0.528405 0.162842
H49   H     H_    0.890500 0.043838 0.570453 0.164924
H50   H     H_    0.308190 0.106282 0.405797 0.164288
C45   C     C_2   0.804644 0.101130 0.281019 1.236813
O25   O     O_2   0.662151 0.089546 0.294189 -0.609644
O26   O     O_R   0.837112 0.062012 0.206534 -0.761039
H51   H     H_    0.958580 0.075923 0.201165 0.295107
C46   C     C_2   0.870740 0.386421 0.128835 1.079884
O27   O     O_2   0.767689 0.413843 0.086920 -0.629134
O28   O     O_R   0.836748 0.298132 0.142450 -0.760782
H52   H     H_    0.723073 0.263772 0.114595 0.322666
C47   C     C_2   0.359757 0.672535 0.465470 1.115177
O29   O     O_2   0.357534 0.622592 0.402131 -0.679825
O30   O     O_R   0.274325 0.642945 0.520872 -0.734120
H53   H     H_    0.200764 0.583474 0.493940 0.392224
C48   C     C_2   0.398517 0.843408 0.694954 0.950534
O31   O     O_2   0.533409 0.894385 0.708371 -0.659666
O32   O     O_R   0.261124 0.867221 0.653326 -0.742327
H54   H     H_    0.289318 0.927896 0.637283 0.320407

loop_
_geom_bond_atom_site_label_1
_geom_bond_atom_site_label_2
_geom_bond_distance
_ccdc_geom_bond_type
C11   O22   1.400069 S    
O14   Ba2   2.816115 S    
O5    C6    1.400712 S    
C21   C22   1.348511 D    
C24   C30   1.401179 A    
C5    H10   1.110190 S    
C9    H18   1.110368 S    
O4    P6    1.543033 D    
C23   C24   1.395365 A    
O7    Ba1   2.879981 S    
C15   H35   1.112847 S    
P7    C44   1.851413 S    
C34   C35   1.397504 A    
C18   C19   1.503727 S    
O28   H52   1.013422 S    
P4    O12   1.518574 D    
C40   C41   1.376002 A    
C47   O30   1.369964 S    
C28   H41   1.083177 S    
P5    O19   1.749477 S    
P3    O11   1.747427 S    
O14   P8    1.736815 S    
C7    H15   1.111004 S    
C37   C44   1.413450 A    
C33   C34   1.392421 A    
C21   C46   1.484799 S    
C48   O32   1.399115 S    
C8    H16   1.104680 S    
H1    C10   1.114702 S    
C23   C27   1.407494 A    
C35   C36   1.419516 A    
P1    Ba1   3.390981 S    
C35   H49   1.076876 S    
C36   C37   1.429334 A    
P1    O1    1.518270 D    
C38   C42   1.426072 A    
C17   C22   1.316874 D    
C11   H24   1.111152 S    
C37   C41   1.400598 A    
C38   C39   1.433419 A    
C20   C21   1.527050 S    
C15   C16   1.521014 S    
O2    Ba2   2.842022 S    
C2    H4    1.112422 S    
P1    C22   1.861251 S    
P8    O24   1.749374 S    
O12   Ba2   2.859232 S    
P5    O17   1.744328 S    
C1    H2    1.108344 S    
C7    C45   1.507116 S    
C1    C10   1.520217 S    
C25   C30   1.397767 A    
O17   Ba2   2.778143 S    
C13   H29   1.110359 S    
P6    C18   1.869469 S    
C8    C9    1.522777 S    
C29   H39   1.083702 S    
Ba1   O13   2.841374 S    
Ba2   O20   2.823408 S    
O3    P6    1.747562 S    
C5    H11   1.111079 S    
C9    H19   1.105909 S    
C19   H42   1.083423 S    
O6    P6    1.750795 S    
C15   O24   1.405725 S    
C25   C26   1.412090 A    
P4    O13   1.591004 S    
P5    O18   1.545080 D    
P1    O5    1.755355 S    
C6    C7    1.530103 S    
C2    C3    1.520364 S    
C41   H50   1.077522 S    
C13   H30   1.110158 S    
C19   C20   1.354217 D    
C16   H37   1.110805 S    
P7    O21   1.575279 D    
C33   H48   1.082407 S    
O16   Ba2   2.898024 S    
C4    H8    1.098152 S    
H36   C16   1.110683 S    
C26   H43   1.080079 S    
H46   C40   1.079460 S    
P5    C34   1.840769 S    
C7    H14   1.109002 S    
C6    H13   1.107581 S    
Ba1   O20   2.898796 S    
P2    O10   1.749693 S    
C11   C12   1.520020 S    
C14   H31   1.110622 S    
C12   H27   1.109845 S    
C32   C42   1.399844 A    
P3    C31   1.885436 S    
C31   C43   1.395094 A    
C1    H3    1.110357 S    
P4    O15   1.763072 S    
C39   C40   1.395757 A    
O2    Ba1   2.908957 S    
C14   H32   1.109734 S    
Ba2   O21   2.880270 S    
C32   C43   1.386919 A    
C27   C29   1.495393 S    
P2    O7    1.502766 D    
P3    O8    1.762111 S    
P2    Ba1   3.408880 S    
C46   O27   1.222736 D    
C9    H20   1.107734 S    
C3    H7    1.110688 S    
O26   H51   1.013201 S    
C3    H28   1.109881 S    
P2    C32   1.875208 S    
C23   H40   1.081915 S    
C20   C28   1.507195 S    
O13   Ba2   2.909857 S    
C45   O25   1.220548 D    
C2    H5    1.110474 S    
C4    C48   1.508096 S    
Ba1   O16   2.824097 S    
C15   H34   1.110207 S    
C31   C39   1.407586 A    
P8    O23   1.545931 D    
O30   H53   1.000968 S    
O8    Ba1   2.777505 S    
C4    C5    1.531337 S    
C47   O29   1.210818 D    
C43   C47   1.419450 S    
Ba1   Ba2   4.536093 S    
C12   H25   1.110806 S    
C42   H47   1.076741 S    
P8    C24   1.834391 S    
P4    C25   1.867456 S    
C48   O31   1.223105 D    
C6    H12   1.100429 S    
C8    H17   1.109374 S    
C13   C14   1.520090 S    
C10   H21   1.110270 S    
C33   C44   1.393205 A    
C17   H44   1.082847 S    
C28   C29   1.357539 D    
C36   C38   1.433660 A    
C16   H38   1.110584 S    
O16   P7    1.758178 S    
C11   H23   1.110410 S    
C14   H33   1.110598 S    
C4    O15   1.403678 S    
O3    Ba1   2.816719 S    
P2    O20   1.592220 S    
O19   C13   1.405052 S    
O10   C8    1.398966 S    
P4    Ba2   3.391495 S    
P7    O22   1.750351 S    
C26   C27   1.415674 A    
P3    O9    1.546880 D    
C5    H9    1.107334 S    
C46   O28   1.396666 S    
O11   C2    1.403157 S    
C3    H6    1.109578 S    
O1    Ba1   2.858751 S    
C30   H45   1.081601 S    
P1    O2    1.591012 S    
C17   C18   1.505827 S    
C1    H22   1.110300 S    
O6    C10   1.406807 S    
O32   H54   1.014081 S    
C12   H26   1.110186 S    
C45   O26   1.398368 S    
