data_mof_unit_53881.cif
_audit_creation_date              2012-12-11T15:18:36-0500
_audit_creation_method            fapswitch 2.2
_symmetry_space_group_name_H-M    P1
_symmetry_Int_Tables_number       1
_space_group_crystal_system       triclinic
_cell_length_a                    6.941282
_cell_length_b                    19.900004
_cell_length_c                    23.776199
_cell_angle_alpha                 93.619482
_cell_angle_beta                  91.506647
_cell_angle_gamma                 88.160239
_cell_volume                      3275.03284728

loop_
_atom_site_label
_atom_site_type_symbol
_atom_type_description
_atom_site_fract_x
_atom_site_fract_y
_atom_site_fract_z
_atom_type_partial_charge
O1    O     O_R   0.620100 0.812200 0.810870 -0.538169
O2    O     O_R   0.379900 0.187800 0.189130 -0.545125
O3    O     O_R   0.296960 0.671650 0.794750 -0.544838
O4    O     O_R   0.703040 0.328350 0.205250 -0.535676
O5    O     O_R   0.120160 0.687800 0.689130 -0.539898
O6    O     O_R   0.879840 0.312200 0.310870 -0.541968
C1    C     C_R   0.469885 0.647135 0.804822 0.701544
C2    C     C_R   0.530586 0.353551 0.195922 0.687320
O7    O     O_R   0.290810 0.810670 0.817290 -0.550970
O8    O     O_R   0.709190 0.189330 0.182710 -0.528376
O9    O     O_R   0.113980 0.827820 0.711840 -0.534702
O10   O     O_R   0.886020 0.172180 0.288160 -0.537070
C3    C     C_R   0.459438 0.830363 0.835100 0.749164
C4    C     C_R   0.540624 0.167958 0.166050 0.747820
O11   O     O_R   0.626290 0.672180 0.788160 -0.535136
O12   O     O_R   0.373710 0.327820 0.211840 -0.539833
O13   O     O_3   0.451520 0.755460 0.715370 -0.367730
O14   O     O_3   0.548480 0.244540 0.284630 -0.372033
V1    V     V_3+5 0.179200 0.748980 0.756420 1.395087
V2    V     V_3+5 0.820800 0.251020 0.243580 1.435770
O15   O     O_R   0.783880 0.828350 0.705250 -0.538281
O16   O     O_R   0.216120 0.171650 0.294750 -0.539506
C5    C     C_R   0.949053 0.852740 0.694842 0.699243
C6    C     C_R   0.050948 0.147262 0.305163 0.696166
O17   O     O_R   0.790030 0.689320 0.682700 -0.543673
O18   O     O_R   0.209970 0.310680 0.317300 -0.544713
C7    C     C_R   0.959182 0.667966 0.665819 0.709975
C8    C     C_R   0.040819 0.332040 0.334177 0.704350
V3    V     V_3+5 0.678400 0.751010 0.743570 1.409252
V4    V     V_3+5 0.321600 0.248990 0.256430 1.407475
O19   O     O_3   0.955950 0.744540 0.784620 -0.374148
O20   O     O_3   0.044050 0.255460 0.215380 -0.364595
C9    C     C_R   0.862529 0.422776 0.391478 -0.217394
C10   C     C_R   0.137487 0.577245 0.608505 -0.217141
C11   C     C_R   0.029707 0.381619 0.383398 -0.085775
C12   C     C_R   0.970301 0.618398 0.616591 -0.086856
C13   C     C_R   0.185132 0.388325 0.422377 -0.228412
C14   C     C_R   0.814881 0.611696 0.577609 -0.228523
C15   C     C_R   0.173492 0.434848 0.469229 0.091073
C16   C     C_R   0.826529 0.565179 0.530753 0.091173
C17   C     C_R   0.005997 0.476303 0.476643 0.052558
C18   C     C_R   0.994026 0.523725 0.523337 0.052655
C19   C     C_R   0.850419 0.470414 0.437448 0.087943
C20   C     C_R   0.149603 0.529613 0.562532 0.087961
C21   C     C_R   0.326242 0.440603 0.508919 -0.183175
C22   C     C_R   0.673783 0.559427 0.491060 -0.183061
C23   C     C_R   0.314510 0.487613 0.555121 -0.192221
C24   C     C_R   0.685516 0.512417 0.444858 -0.191933
H1    H     H_    0.742436 0.418414 0.361507 0.124338
H2    H     H_    0.257579 0.581606 0.638477 0.124741
H3    H     H_    0.314185 0.356731 0.416686 0.127953
H4    H     H_    0.685826 0.643288 0.583301 0.128161
H5    H     H_    0.455562 0.409019 0.504042 0.134330
H6    H     H_    0.544463 0.591010 0.495937 0.134477
H7    H     H_    0.435137 0.491385 0.584907 0.131330
H8    H     H_    0.564890 0.508645 0.415071 0.131510
C25   C     C_R   0.944829 0.914225 0.663115 -0.045126
C26   C     C_R   0.055181 0.085775 0.336889 -0.045143
C27   C     C_R   0.847070 0.031465 0.658249 -0.163348
C28   C     C_R   0.153000 0.968541 0.341760 -0.163620
C29   C     C_R   0.869171 0.974086 0.688605 -0.166839
C30   C     C_R   0.130897 0.025919 0.311404 -0.166939
C31   C     C_R   0.997789 0.912046 0.606244 -0.216422
C32   C     C_R   0.002188 0.087949 0.393757 -0.216956
C33   C     C_R   0.972411 0.969746 0.573717 0.085918
C34   C     C_R   0.027588 0.030252 0.426287 0.086058
C35   C     C_R   0.896105 0.029760 0.601270 0.140290
C36   C     C_R   0.103927 0.970241 0.398735 0.140281
C37   C     C_R   0.016538 0.969920 0.514924 0.057759
C38   C     C_R   0.983458 0.030078 0.485079 0.057799
C39   C     C_R   0.908144 0.088055 0.515080 -0.187645
C40   C     C_R   0.091865 0.911944 0.484924 -0.187582
C41   C     C_R   0.866113 0.087729 0.571811 -0.201911
C42   C     C_R   0.133919 0.912272 0.428195 -0.201776
H9    H     H_    0.807737 0.133567 0.592854 0.122676
H10   H     H_    0.192317 0.866437 0.407154 0.122871
H11   H     H_    0.947799 0.135752 0.411497 0.095822
H12   H     H_    0.052135 0.864239 0.588501 0.096193
H13   H     H_    0.174731 0.023815 0.267897 0.103848
H14   H     H_    0.825379 0.976193 0.732116 0.102578
H15   H     H_    0.787909 0.077206 0.679208 0.111339
H16   H     H_    0.212197 0.922803 0.320804 0.111605
H17   H     H_    0.878959 0.134976 0.495875 0.123256
H18   H     H_    0.121060 0.865024 0.504130 0.123404
C43   C     C_R   0.497241 0.586234 0.836797 -0.052508
C44   C     C_R   0.505741 0.415824 0.165408 -0.054562
C45   C     C_R   0.662353 0.478016 0.843753 -0.166780
C46   C     C_R   0.344387 0.524869 0.159428 -0.164789
C47   C     C_R   0.600660 0.531228 0.811971 -0.165114
C48   C     C_R   0.395019 0.469288 0.189829 -0.161042
C49   C     C_R   0.452317 0.586923 0.894188 -0.220740
C50   C     C_R   0.568772 0.419103 0.109919 -0.233378
C51   C     C_R   0.516003 0.533292 0.927970 0.082937
C52   C     C_R   0.511466 0.474146 0.076931 0.077594
C53   C     C_R   0.624678 0.479124 0.901431 0.142863
C54   C     C_R   0.397493 0.527131 0.103118 0.141574
C55   C     C_R   0.479892 0.532014 0.987113 0.058035
C56   C     C_R   0.555173 0.477096 0.018435 0.060702
C57   C     C_R   0.669404 0.426538 0.990042 -0.189673
C58   C     C_R   0.370253 0.583565 0.015897 -0.185254
C59   C     C_R   0.700358 0.427095 0.932706 -0.206855
C60   C     C_R   0.331714 0.581293 0.072682 -0.203590
H19   H     H_    0.786999 0.386498 0.912695 0.122202
H20   H     H_    0.244909 0.621830 0.092712 0.122078
H21   H     H_    0.652052 0.376336 0.092936 0.119058
H22   H     H_    0.377423 0.631421 0.911547 0.116700
H23   H     H_    0.344329 0.467351 0.232406 0.109872
H24   H     H_    0.639329 0.530568 0.768066 0.108317
H25   H     H_    0.745251 0.436673 0.823450 0.112831
H26   H     H_    0.257037 0.565233 0.179446 0.113279
H27   H     H_    0.737840 0.385380 0.010977 0.130505
H28   H     H_    0.309326 0.626353 0.995526 0.130734
C61   C     C_R   0.475818 0.052552 0.124632 -0.286052
C62   C     C_R   0.533682 0.943844 0.877935 -0.283536
C63   C     C_R   0.529571 0.118665 0.116804 -0.164990
C64   C     C_R   0.467830 0.879007 0.884864 -0.173280
C65   C     C_R   0.565587 0.137774 0.061854 0.355093
C66   C     C_R   0.411487 0.861587 0.938887 0.328069
C67   C     C_R   0.562230 0.089069 0.015832 0.028466
C68   C     C_R   0.431888 0.908636 0.985820 0.038611
C69   C     C_R   0.506962 0.022675 0.024207 0.012775
C70   C     C_R   0.493964 0.974353 0.977847 0.014741
C71   C     C_R   0.462523 0.004695 0.078738 0.113900
C72   C     C_R   0.543350 0.991922 0.923629 0.111726
C73   C     C_R   0.610174 0.105554 0.961361 -0.168797
C74   C     C_R   0.391399 0.891494 0.040733 -0.168256
C75   C     C_R   0.602298 0.057408 0.915956 -0.189634
C76   C     C_R   0.406564 0.938905 0.086538 -0.188459
H29   H     H_    0.443994 0.038499 0.166667 0.125772
H30   H     H_    0.574751 0.957126 0.836442 0.126806
H31   H     H_    0.655515 0.155646 0.953661 0.155722
H32   H     H_    0.348555 0.841227 0.048681 0.155055
H33   H     H_    0.641091 0.071636 0.874583 0.120327
H34   H     H_    0.373567 0.924085 0.128209 0.120781
O21   O     O_3   0.599041 0.204377 0.052670 -0.585787
C77   C     C_3   0.422305 0.242372 0.053950 0.066096
H35   H     H_    0.437322 0.284319 0.086534 0.129092
H36   H     H_    0.294106 0.213908 0.065445 0.112366
C78   C     C_3   0.380943 0.271157 0.996580 -0.315209
H37   H     H_    0.510658 0.296163 0.982775 0.204737
H38   H     H_    0.347089 0.229396 0.964983 0.188491
C79   C     C_3   0.211161 0.321937 0.998885 -0.807081
H39   H     H_    0.078506 0.297409 0.011300 0.232668
H40   H     H_    0.185378 0.341914 0.956685 0.229889
H41   H     H_    0.242444 0.364771 0.029655 0.239689
O22   O     O_3   0.356207 0.796667 0.947250 -0.592553
C80   C     C_3   0.160409 0.788128 0.930604 0.091645
H42   H     H_    0.155144 0.744239 0.899359 0.156396
H43   H     H_    0.090523 0.832115 0.910206 0.115694
C81   C     C_3   0.042266 0.772758 0.981409 -0.374543
H44   H     H_    0.118567 0.733451 0.005488 0.201177
H45   H     H_    0.024994 0.819172 0.009552 0.195701
C82   C     C_3   0.842934 0.748173 0.962936 -0.753412
H46   H     H_    0.767136 0.785627 0.936929 0.240687
H47   H     H_    0.756174 0.741188 0.000594 0.239624
H48   H     H_    0.855781 0.699244 0.937887 0.223968

loop_
_geom_bond_atom_site_label_1
_geom_bond_atom_site_label_2
_ccdc_geom_bond_type
C26   C30   A    
C34   C36   A    
C46   C54   A    
C54   C60   A    
C17   C19   A    
C17   C18   A    
C80   H42   S    
C79   H41   S    
O4    C2    A    
V1    O19   S    
C2    C44   S    
C31   C33   A    
C55   C56   A    
C43   C49   A    
O21   C77   S    
C15   C17   A    
C34   C38   A    
C16   C22   A    
O9    V1    S    
C61   H29   S    
O16   C6    A    
C80   H43   S    
C48   H23   S    
O22   C80   S    
O3    C1    A    
C65   C67   A    
C13   H3    S    
C78   C79   S    
C68   C74   A    
C14   H4    S    
C52   C56   A    
C29   H14   S    
C36   C42   A    
C4    C63   S    
O13   V3    S    
C28   C30   A    
C32   H11   S    
C25   C29   A    
O7    C3    A    
C27   C35   A    
O5    C7    A    
C28   H16   S    
O7    V1    S    
O6    C8    A    
C8    C11   S    
O8    V2    S    
C63   C65   A    
C81   C82   S    
C45   C53   A    
O3    V1    S    
C38   C39   A    
C35   C41   A    
C82   H47   S    
C19   C24   A    
C10   C12   A    
C20   C23   A    
C15   C21   A    
C62   C72   A    
C16   C18   A    
C21   H5    S    
C2    O12   A    
O17   V3    S    
C62   H30   S    
C49   H22   S    
C22   H6    S    
C18   C20   A    
C77   C78   S    
C50   C52   A    
C68   C70   A    
C45   H25   S    
O11   V3    S    
C39   H17   S    
C21   C23   A    
C26   C32   A    
C22   C24   A    
C27   C29   A    
C10   H2    S    
C9    C19   A    
C75   H33   S    
C30   H13   S    
C66   O22   S    
C80   C81   S    
C10   C20   A    
C40   C42   A    
C44   C48   A    
C39   C41   A    
C43   C47   A    
C1    O11   A    
C33   C35   A    
O15   V3    S    
C32   C34   A    
C37   C40   A    
C52   C54   A    
V4    O20   S    
C76   H34   S    
C49   C51   A    
C73   H31   S    
C61   C71   A    
C74   H32   S    
V3    O19   S    
C57   H27   S    
O10   V2    S    
C5    C25   S    
O1    V3    S    
C82   H48   S    
C60   H20   S    
C69   C70   A    
C40   H18   S    
C67   C69   A    
C42   H10   S    
C72   C75   A    
O14   V4    S    
C67   C73   A    
C6    C26   S    
C57   C59   A    
C46   C48   A    
O18   V4    S    
O15   C5    A    
O8    C4    A    
C81   H45   S    
O1    C3    A    
C41   H9    S    
O12   V4    S    
C70   C72   A    
C12   C14   A    
C65   O21   S    
C51   C55   A    
C55   C58   A    
C77   H36   S    
C23   H7    S    
C58   C60   A    
V2    O20   S    
C24   H8    S    
C74   C76   A    
O16   V4    S    
C11   C13   A    
C81   H44   S    
C27   H15   S    
C25   C31   A    
C77   H35   S    
C62   C64   A    
C78   H37   S    
C58   H28   S    
O5    V1    S    
C7    C12   S    
O17   C7    A    
O6    V2    S    
O10   C6    A    
O18   C8    A    
C59   H19   S    
O2    V4    S    
C45   C47   A    
C46   H26   S    
C13   C15   A    
C44   C50   A    
C14   C16   A    
C78   H38   S    
C9    C11   A    
C71   C76   A    
C1    C43   S    
C33   C37   A    
C47   H24   S    
O9    C5    A    
O13   V1    S    
C64   C66   A    
O14   V2    S    
C37   C38   A    
O2    C4    A    
C66   C68   A    
C69   C71   A    
C3    C64   S    
O4    V2    S    
C50   H21   S    
C28   C36   A    
C51   C53   A    
C56   C57   A    
C73   C75   A    
C79   H39   S    
C82   H46   S    
C9    H1    S    
C79   H40   S    
C53   C59   A    
C61   C63   A    
C31   H12   S    
