data_mof_unit_11482.cif
_audit_creation_date              2012-12-10T18:18:23-0500
_audit_creation_method            fapswitch 2.2
_symmetry_space_group_name_H-M    P1
_symmetry_Int_Tables_number       1
_space_group_crystal_system       triclinic
_cell_length_a                    14.214079
_cell_length_b                    14.886544
_cell_length_c                    15.028943
_cell_angle_alpha                 88.18033
_cell_angle_beta                  69.641138
_cell_angle_gamma                 91.10766
_cell_volume                      2978.37761402

loop_
_atom_site_label
_atom_site_type_symbol
_atom_type_description
_atom_site_fract_x
_atom_site_fract_y
_atom_site_fract_z
_atom_type_partial_charge
C1    C     C_R   0.501345 0.672687 0.498340 0.881843
C2    C     C_R   0.498434 0.327352 0.501772 0.888383
C3    C     C_R   0.348993 0.416706 0.123473 0.068274
C4    C     C_R   0.566158 0.339461 0.928704 0.072995
C5    C     C_R   0.281557 0.433508 0.076426 -0.225880
C6    C     C_R   0.639154 0.333606 0.971805 -0.285605
C7    C     C_R   0.485307 0.182867 0.588129 0.005172
C8    C     C_R   0.506614 0.816866 0.411471 0.025392
C9    C     C_R   0.495055 0.232011 0.504020 -0.095838
C10   C     C_R   0.504574 0.768170 0.494089 -0.091883
C11   C     C_R   0.501131 0.190684 0.420742 -0.288754
C12   C     C_R   0.501051 0.810135 0.576364 -0.291612
C13   C     C_R   0.501361 0.098011 0.418541 0.127499
C14   C     C_R   0.496952 0.902550 0.579486 0.129319
C15   C     C_R   0.496387 0.046909 0.500862 0.020949
C16   C     C_R   0.499532 0.953353 0.497800 0.025292
C17   C     C_R   0.488255 0.089349 0.586187 0.130096
C18   C     C_R   0.505249 0.910724 0.413172 0.119166
C19   C     C_R   0.507786 0.055978 0.334956 -0.223217
C20   C     C_R   0.489336 0.944590 0.663439 -0.233872
C21   C     C_R   0.509346 0.962951 0.332259 -0.204453
C22   C     C_R   0.484247 0.037410 0.667103 -0.195045
C23   C     C_R   0.437055 0.496962 0.676899 0.862464
C24   C     C_R   0.561963 0.496558 0.323423 0.849970
C25   C     C_R   0.175652 0.445264 0.563846 0.201608
C26   C     C_R   0.825143 0.554726 0.435272 0.205740
C27   C     C_R   0.224357 0.555664 0.437435 0.158157
C28   C     C_R   0.776779 0.444248 0.561811 0.170434
C29   C     C_R   0.128532 0.546407 0.427302 0.020591
C30   C     C_R   0.872758 0.453843 0.571541 0.003144
C31   C     C_R   0.050648 0.499542 0.499501 -0.038185
C32   C     C_R   0.950922 0.498485 0.498085 -0.059483
C33   C     C_R   0.072152 0.456707 0.574958 -0.059841
C34   C     C_R   0.929136 0.541159 0.422854 -0.044072
C35   C     C_R   0.109321 0.581514 0.346654 0.066258
C36   C     C_R   0.891463 0.422042 0.653575 0.106529
C37   C     C_R   0.011865 0.571577 0.340469 0.128738
C38   C     C_R   0.989912 0.428375 0.658155 0.120498
C39   C     C_R   0.395303 0.479900 0.780192 -0.103252
C40   C     C_R   0.593906 0.469121 0.224723 -0.083340
C41   C     C_R   0.253345 0.476123 0.929260 0.108363
C42   C     C_R   0.702640 0.383067 0.096025 0.104819
C43   C     C_R   0.293596 0.494116 0.830999 -0.251478
C44   C     C_R   0.685376 0.427688 0.181113 -0.252903
C45   C     C_R   0.454844 0.441787 0.826975 -0.237730
C46   C     C_R   0.521112 0.466883 0.182321 -0.261503
C47   C     C_R   0.415523 0.419850 0.924495 0.074073
C48   C     C_R   0.531275 0.414137 0.104987 0.041395
C49   C     C_R   0.315660 0.442720 0.977090 0.113517
C50   C     C_R   0.625488 0.376668 0.057012 0.150123
C51   C     C_R   0.478055 0.387267 0.972656 0.057156
C52   C     C_R   0.452159 0.405501 0.069094 -0.006894
H1    H     H_    0.203570 0.443212 0.118254 0.179891
H2    H     H_    0.706903 0.297733 0.937090 0.166619
H3    H     H_    0.454688 0.505577 0.211655 0.160066
H4    H     H_    0.533468 0.433668 0.787955 0.169774
H5    H     H_    0.742080 0.427543 0.214074 0.155833
H6    H     H_    0.245526 0.520954 0.794945 0.154003
H7    H     H_    0.506741 0.231123 0.357541 0.146746
H8    H     H_    0.498781 0.770158 0.638857 0.143752
H9    H     H_    0.511655 0.095103 0.271625 0.150564
H10   H     H_    0.486901 0.905598 0.726402 0.148618
H11   H     H_    0.514315 0.932467 0.266387 0.169395
H12   H     H_    0.478350 0.068149 0.733108 0.175513
N1    N     N_R   0.249980 0.499930 0.499960 -0.128897
N2    N     N_R   0.750020 0.500070 0.500040 -0.131982
O1    O     O_R   0.419720 0.632140 0.499980 -0.626282
O2    O     O_R   0.580280 0.367860 0.500020 -0.631332
O3    O     O_R   0.580270 0.632160 0.499970 -0.614749
O4    O     O_R   0.419730 0.367840 0.500030 -0.614417
O5    O     O_R   0.373870 0.499980 0.632250 -0.624382
O6    O     O_R   0.626130 0.500020 0.367750 -0.599443
O7    O     O_R   0.534420 0.500000 0.632240 -0.622939
O8    O     O_R   0.465580 0.500000 0.367760 -0.630110
Zn1   Zn    Zn3+2 0.392800 0.499980 0.500010 0.906460
Zn2   Zn    Zn3+2 0.607200 0.500020 0.499990 0.921063
C53   C     C_3   0.205110 0.359051 0.601850 -0.377245
C54   C     C_3   0.225374 0.286969 0.527658 -0.801275
H13   H     H_    0.276143 0.313112 0.456850 0.276203
H14   H     H_    0.259868 0.228344 0.550435 0.247676
H15   H     H_    0.153616 0.263981 0.520464 0.240420
H16   H     H_    0.268920 0.370851 0.625914 0.239583
H17   H     H_    0.146318 0.329762 0.664991 0.210329
C55   C     C_3   0.800010 0.646893 0.403726 -0.330415
C56   C     C_3   0.765347 0.649709 0.317627 -0.772040
H18   H     H_    0.784265 0.588137 0.276469 0.259148
H19   H     H_    0.684172 0.660121 0.338493 0.261742
H20   H     H_    0.801828 0.708329 0.269561 0.209237
H21   H     H_    0.745813 0.679130 0.464989 0.218349
H22   H     H_    0.866762 0.693243 0.386699 0.157010
N3    N     N_3   0.290208 0.628564 0.386884 -0.445537
H23   H     H_    0.296963 0.674529 0.435374 0.209508
H24   H     H_    0.359526 0.605687 0.345244 0.216492
N4    N     N_3   0.712941 0.369803 0.610544 -0.456674
H25   H     H_    0.709236 0.324258 0.560436 0.206252
H26   H     H_    0.642153 0.391963 0.648052 0.216119
N5    N     N_3   0.190533 0.623492 0.269363 -0.460920
H27   H     H_    0.168358 0.685875 0.251021 0.182785
H28   H     H_    0.210549 0.582272 0.211193 0.183813
N6    N     N_3   0.808092 0.390638 0.734916 -0.463196
H29   H     H_    0.801201 0.430791 0.792435 0.196018
H30   H     H_    0.819304 0.323949 0.751341 0.197497
C57   C     C_3   0.000694 0.580754 0.243132 -0.410487
C58   C     C_3   0.964569 0.492105 0.215086 -0.855579
H31   H     H_    0.020580 0.439670 0.209653 0.262777
H32   H     H_    0.891622 0.467884 0.267774 0.256178
H33   H     H_    0.955349 0.501602 0.145021 0.244370
H34   H     H_    0.952195 0.636101 0.239759 0.213892
H35   H     H_    0.071766 0.599867 0.185261 0.199366
C59   C     C_3   0.002193 0.426561 0.755428 -0.420491
C60   C     C_3   0.979363 0.334231 0.808127 -0.908428
H36   H     H_    0.901214 0.330055 0.859194 0.263902
H37   H     H_    0.989650 0.278635 0.758363 0.262688
H38   H     H_    0.029877 0.324417 0.849556 0.253330
H39   H     H_    0.078701 0.450463 0.749538 0.193231
H40   H     H_    0.952490 0.476690 0.800475 0.200925
N7    N     N_3   0.150350 0.494481 0.980371 -0.489231
H41   H     H_    0.139710 0.562630 0.969183 0.181717
H42   H     H_    0.105686 0.457146 0.951499 0.184647
N8    N     N_3   0.797425 0.343074 0.050822 -0.492863
H43   H     H_    0.853537 0.393600 0.035812 0.186376
H44   H     H_    0.809105 0.296508 0.099197 0.190532
N9    N     N_3   0.307974 0.398260 0.224372 -0.459288
H45   H     H_    0.357342 0.361539 0.247926 0.199701
H46   H     H_    0.294064 0.459001 0.258687 0.193256
N10   N     N_3   0.574513 0.287122 0.848069 -0.471417
H47   H     H_    0.577457 0.219464 0.867503 0.192702
H48   H     H_    0.642033 0.304586 0.794146 0.200550
N11   N     N_3   0.470212 0.227065 0.675433 -0.467648
H49   H     H_    0.406822 0.266381 0.689962 0.181228
H50   H     H_    0.532366 0.269344 0.666637 0.192487
N12   N     N_3   0.510274 0.773022 0.326136 -0.478287
H51   H     H_    0.528520 0.705582 0.327223 0.164501
H52   H     H_    0.438599 0.774977 0.321660 0.187597

loop_
_geom_bond_atom_site_label_1
_geom_bond_atom_site_label_2
_ccdc_geom_bond_type
O5    Zn1   S    
N10   H47   S    
C27   C29   A    
C34   C37   A    
C60   H36   S    
O6    Zn2   S    
C24   O8    A    
C58   H32   S    
N5    H27   S    
N9    H45   S    
C47   C49   A    
C56   H18   S    
C40   C46   A    
C55   H22   S    
C25   C53   S    
C5    H1    S    
C35   C37   A    
C23   O7    A    
C2    O2    A    
N7    H42   S    
C54   H14   S    
N9    H46   S    
C53   H17   S    
C15   C16   A    
C18   C21   A    
O3    Zn2   S    
C28   N4    S    
C45   C47   A    
C59   C60   S    
C43   H6    S    
C24   C40   S    
C26   C34   A    
C45   H4    S    
N8    H44   S    
N12   H51   S    
C7    C17   A    
C46   H3    S    
C8    N12   S    
C26   C55   S    
C31   C33   A    
C27   N3    S    
C57   H34   S    
C38   C59   S    
C39   C45   A    
C48   C50   A    
C41   C43   A    
C5    C49   A    
C42   C44   A    
C6    H2    S    
C11   H7    S    
C41   C49   A    
C58   H31   S    
N5    H28   S    
C3    N9    S    
C56   H19   S    
C46   C48   A    
C21   H11   S    
O8    Zn1   S    
C13   C19   A    
C4    C51   A    
C51   C52   A    
C26   N2    A    
C14   C20   A    
C25   N1    A    
C55   C56   S    
C36   N6    S    
N3    H23   S    
C37   C57   S    
C54   H13   S    
C39   C43   A    
C53   C54   S    
C8    C18   A    
C32   C34   A    
C28   N2    A    
C27   N1    A    
C23   O5    A    
N3    H24   S    
C31   C32   A    
C40   C44   A    
C44   H5    S    
N2    Zn2   S    
N6    H30   S    
C60   H37   S    
C16   C18   A    
C6    C50   A    
N4    H26   S    
C9    C11   A    
C10   C12   A    
C42   C50   A    
C4    C6    A    
C12   C14   A    
C13   C15   A    
O7    Zn2   S    
C14   C16   A    
O1    Zn1   S    
C55   H21   S    
C59   H40   S    
C57   C58   S    
N8    H43   S    
C24   O6    A    
N11   H49   S    
C56   H20   S    
C15   C17   A    
N10   H48   S    
C19   C21   A    
C8    C10   A    
C1    C10   S    
C33   C38   A    
C20   C22   A    
C3    C5    A    
C47   C51   A    
C3    C52   A    
C4    N10   S    
O2    Zn2   S    
C29   C35   A    
C17   C22   A    
N1    Zn1   S    
C30   C36   A    
C57   H35   S    
C36   C38   A    
C29   C31   A    
C2    O4    A    
N7    H41   S    
C30   C32   A    
C11   C13   A    
C54   H15   S    
C42   N8    S    
C53   H16   S    
C19   H9    S    
C23   C39   S    
C28   C30   A    
N6    H29   S    
C1    O1    A    
C60   H38   S    
C20   H10   S    
N4    H25   S    
C1    O3    A    
C7    N11   S    
C22   H12   S    
C12   H8    S    
C7    C9    A    
C48   C52   A    
N12   H52   S    
O4    Zn1   S    
C41   N7    S    
C35   N5    S    
C2    C9    S    
C59   H39   S    
C58   H33   S    
C25   C33   A    
N11   H50   S    
