data_mof_unit_61705.cif
_audit_creation_date              2012-12-10T21:10:45-0500
_audit_creation_method            fapswitch 2.2
_symmetry_space_group_name_H-M    P1
_symmetry_Int_Tables_number       1
_space_group_crystal_system       triclinic
_cell_length_a                    17.551802
_cell_length_b                    16.763969
_cell_length_c                    10.734569
_cell_angle_alpha                 90.024223
_cell_angle_beta                  91.184388
_cell_angle_gamma                 90.031944
_cell_volume                      3157.84106314

loop_
_atom_site_label
_atom_site_type_symbol
_atom_type_description
_atom_site_fract_x
_atom_site_fract_y
_atom_site_fract_z
_atom_type_partial_charge
C1    C     C_R   0.353130 0.499990 0.498992 0.881929
C2    C     C_R   0.113409 0.500676 0.461537 0.160191
C3    C     C_1   0.965631 0.500065 0.454104 -0.062383
C4    C     C_1   0.033242 0.500379 0.454570 -0.062721
C5    C     C_R   0.450410 0.833738 0.422167 -0.292117
C6    C     C_R   0.549621 0.833801 0.577935 -0.292096
C7    C     C_R   0.450761 0.749596 0.422876 0.259605
C8    C     C_R   0.549321 0.749656 0.577037 0.258805
C9    C     C_R   0.499989 0.876785 0.500118 0.088728
C10   C     C_1   0.499995 0.964383 0.500123 -0.013788
C11   C     C_1   0.499993 0.037349 0.500096 -0.050572
C12   C     C_R   0.646852 0.500052 0.498784 0.885167
C13   C     C_R   0.507141 0.500463 0.260042 0.898978
C14   C     C_R   0.492979 0.500504 0.740013 0.899980
C15   C     C_R   0.451127 0.167978 0.419661 -0.267640
C16   C     C_R   0.548863 0.168096 0.580420 -0.267931
C17   C     C_R   0.452007 0.252032 0.421083 0.008611
C18   C     C_R   0.547987 0.252145 0.578943 0.008387
C19   C     C_R   0.499994 0.124933 0.500057 0.159906
C20   C     C_R   0.539306 0.649108 0.114544 -0.124717
C21   C     C_R   0.462490 0.649545 0.886084 -0.124701
C22   C     C_R   0.522246 0.721341 0.056027 -0.109883
C23   C     C_R   0.729226 0.500122 0.488702 -0.037554
C24   C     C_R   0.480217 0.721573 0.944889 -0.109715
C25   C     C_R   0.486885 0.576029 0.938666 0.109781
C26   C     C_R   0.514253 0.575872 0.061634 0.109897
C27   C     C_R   0.513592 0.502368 0.126827 -0.131525
C28   C     C_R   0.486780 0.502512 0.873291 -0.132820
C29   C     C_R   0.505109 0.430115 0.063313 -0.209522
C30   C     C_R   0.494653 0.430176 0.936658 -0.209994
C31   C     C_R   0.846328 0.571943 0.455806 -0.157602
C32   C     C_R   0.151513 0.571957 0.487319 -0.152675
C33   C     C_R   0.768026 0.572234 0.469943 -0.178065
C34   C     C_R   0.270494 0.499899 0.489937 -0.035657
C35   C     C_R   0.230170 0.571670 0.501592 -0.174000
C36   C     C_R   0.769426 0.427796 0.492701 -0.201137
C37   C     C_R   0.231430 0.428436 0.464605 -0.199140
C38   C     C_R   0.847739 0.427736 0.478510 -0.161189
C39   C     C_R   0.152763 0.428937 0.450428 -0.162447
C40   C     C_R   0.885599 0.499749 0.460097 0.160608
H1    H     H_    0.506264 0.373271 0.111354 0.170439
H2    H     H_    0.463339 0.777511 0.902236 0.141105
H3    H     H_    0.876259 0.627783 0.442635 0.139526
H4    H     H_    0.120418 0.627351 0.497420 0.139274
H5    H     H_    0.738011 0.628618 0.465499 0.174176
H6    H     H_    0.259250 0.627327 0.521811 0.171959
H7    H     H_    0.740524 0.371513 0.506832 0.156583
H8    H     H_    0.261551 0.372479 0.454743 0.155057
H9    H     H_    0.878796 0.371910 0.483083 0.134983
H10   H     H_    0.122657 0.373605 0.431717 0.134905
H11   H     H_    0.411214 0.865397 0.360596 0.170441
H12   H     H_    0.492925 0.373349 0.888514 0.170569
H13   H     H_    0.588886 0.865509 0.639427 0.170516
H14   H     H_    0.412562 0.136913 0.356245 0.140897
H15   H     H_    0.587423 0.137125 0.643862 0.141162
H16   H     H_    0.414174 0.284765 0.358871 0.124110
H17   H     H_    0.585814 0.284966 0.641148 0.125625
H18   H     H_    0.572718 0.651499 0.200196 0.155282
H19   H     H_    0.428997 0.652355 0.800566 0.155723
H20   H     H_    0.539600 0.777089 0.098932 0.140979
I1    I     I_    0.370877 0.695712 0.298411 -0.379732
I2    I     I_    0.629758 0.695833 0.700462 -0.380540
N1    N     N_R   0.500000 0.707230 0.500000 -0.129115
N2    N     N_R   0.500000 0.292770 0.500000 -0.090799
O1    O     O_R   0.389110 0.566570 0.499990 -0.601641
O2    O     O_R   0.610890 0.566570 0.500010 -0.602052
O3    O     O_R   0.389090 0.433480 0.499980 -0.629983
O4    O     O_R   0.610910 0.433480 0.500020 -0.630210
O5    O     O_R   0.500000 0.566560 0.316760 -0.606051
O6    O     O_R   0.500000 0.566560 0.683240 -0.606048
O7    O     O_R   0.499970 0.433470 0.316760 -0.627280
O8    O     O_R   0.500030 0.433470 0.683240 -0.626327
Zn1   Zn    Zn3+2 0.500000 0.588860 0.500000 0.981869
Zn2   Zn    Zn3+2 0.500000 0.411140 0.500000 0.945615

loop_
_geom_bond_atom_site_label_1
_geom_bond_atom_site_label_2
_ccdc_geom_bond_type
C1    C34   S    
O7    Zn2   S    
C2    C4    S    
C31   C33   A    
O5    Zn1   S    
C29   C30   A    
O4    Zn2   S    
C23   C36   A    
C27   C29   A    
C34   C37   A    
C33   H5    S    
C9    C10   S    
C31   H3    S    
C18   H17   S    
C1    O1    A    
C7    I1    S    
C17   H16   S    
C13   O7    A    
C14   O8    A    
C38   H9    S    
C20   C26   A    
C14   C28   S    
C6    C9    A    
C28   C30   A    
C32   H4    S    
C16   H15   S    
O1    Zn1   S    
C37   C39   A    
O3    Zn2   S    
C8    N1    A    
C37   H8    S    
C38   C40   A    
C12   O4    A    
C12   C23   S    
C11   C19   S    
C26   C27   A    
C14   O6    A    
C13   O5    A    
O6    Zn1   S    
C16   C19   A    
C21   C25   A    
C15   C17   A    
C2    C32   A    
C36   C38   A    
C1    O3    A    
C20   C22   A    
C3    C40   S    
C21   H19   S    
C17   N2    A    
C22   H20   S    
C22   C24   A    
C10   C11   T    
C6    H13   S    
C20   H18   S    
C3    C4    T    
C18   N2    A    
C32   C35   A    
C15   H14   S    
C39   H10   S    
C24   H2    S    
C31   C40   A    
C23   C33   A    
C36   H7    S    
O8    Zn2   S    
C34   C35   A    
C7    N1    A    
C21   C24   A    
C8    I2    S    
C5    C7    A    
N2    Zn2   S    
C5    H11   S    
C6    C8    A    
N1    Zn1   S    
C29   H1    S    
C25   C26   A    
C15   C19   A    
O2    Zn1   S    
C12   O2    A    
C2    C39   A    
C16   C18   A    
C13   C27   S    
C5    C9    A    
C30   H12   S    
C25   C28   A    
C35   H6    S    
