data_mof_unit_60467.cif
_audit_creation_date              2012-12-10T17:49:30-0500
_audit_creation_method            fapswitch 2.2
_symmetry_space_group_name_H-M    P1
_symmetry_Int_Tables_number       1
_space_group_crystal_system       triclinic
_cell_length_a                    23.532475
_cell_length_b                    23.532452
_cell_length_c                    47.038837
_cell_angle_alpha                 90.145587
_cell_angle_beta                  90.243667
_cell_angle_gamma                 90.008564
_cell_volume                      26048.6984438

loop_
_atom_site_label
_atom_site_type_symbol
_atom_type_description
_atom_site_fract_x
_atom_site_fract_y
_atom_site_fract_z
_atom_type_partial_charge
C1    C     C_R   0.999996 0.390208 0.500005 0.911997
C2    C     C_R   0.504316 0.997160 0.354124 0.318098
C3    C     C_R   0.498971 0.999920 0.765002 0.008013
C4    C     C_R   0.499111 0.000064 0.734994 0.008058
C5    C     C_R   0.014278 0.489513 0.734980 -0.019865
C6    C     C_R   0.513427 0.990569 0.264973 0.002927
C7    C     C_R   0.998971 0.499919 0.265002 0.008013
C8    C     C_R   0.924539 0.573597 0.234941 -0.080054
C9    C     C_R   0.453372 0.904621 0.235167 -0.059971
C10   C     C_R   0.073559 0.426404 0.235070 -0.079818
C11   C     C_R   0.583527 0.067811 0.235035 -0.074420
C12   C     C_R   0.949613 0.407697 0.765033 -0.087209
C13   C     C_R   0.004859 0.495185 0.645833 0.312551
C14   C     C_R   0.425330 0.074383 0.764932 -0.079579
C15   C     C_R   0.083209 0.568436 0.765074 -0.077869
C16   C     C_R   0.572484 0.925323 0.765048 -0.079748
C17   C     C_R   0.424541 0.073600 0.734941 -0.080054
C18   C     C_R   0.953368 0.404623 0.735167 -0.059969
C19   C     C_R   0.573558 0.926403 0.735070 -0.079818
C20   C     C_R   0.083530 0.567808 0.735035 -0.074420
C21   C     C_R   0.449618 0.907695 0.265033 -0.087208
C22   C     C_R   0.925328 0.574380 0.264932 -0.079578
C23   C     C_R   0.583207 0.068439 0.265074 -0.077869
C24   C     C_R   0.499541 0.000362 0.645746 0.323636
C25   C     C_R   0.072485 0.425324 0.265048 -0.079748
C26   C     C_R   0.049728 0.510617 0.369041 -0.093495
C27   C     C_R   0.490371 0.047574 0.368362 -0.086177
C28   C     C_R   0.948759 0.489371 0.369007 -0.092434
C29   C     C_R   0.516558 0.947842 0.369523 -0.097718
C30   C     C_R   0.053536 0.482139 0.630196 -0.092812
C31   C     C_R   0.488974 0.949843 0.630908 -0.093006
C32   C     C_R   0.954215 0.509710 0.631889 -0.080391
C33   C     C_R   0.510237 0.050809 0.631040 -0.092865
C34   C     C_R   0.549728 0.010617 0.869041 -0.093495
C35   C     C_R   0.499126 0.999966 0.854252 0.323651
C36   C     C_R   0.990372 0.547574 0.868362 -0.086177
C37   C     C_R   0.448759 0.989372 0.869007 -0.092434
C38   C     C_R   0.016556 0.447841 0.869523 -0.097718
C39   C     C_R   0.553536 0.982141 0.130196 -0.092812
C40   C     C_R   0.988974 0.449843 0.130908 -0.093006
C41   C     C_R   0.454215 0.009710 0.131889 -0.080391
C42   C     C_R   0.010236 0.550809 0.131040 -0.092864
C43   C     C_R   0.050079 0.510404 0.398549 -0.205840
C44   C     C_R   0.489078 0.048718 0.397924 -0.208267
C45   C     C_R   0.948897 0.489634 0.398518 -0.206253
C46   C     C_R   0.004315 0.497159 0.854124 0.318099
C47   C     C_R   0.514644 0.948721 0.398994 -0.203056
C48   C     C_R   0.051900 0.483972 0.600743 -0.201518
C49   C     C_R   0.489368 0.949650 0.601404 -0.205689
C50   C     C_R   0.952287 0.510913 0.602314 -0.208623
C51   C     C_R   0.510155 0.050829 0.601527 -0.206202
C52   C     C_R   0.550079 0.010403 0.898549 -0.205840
C53   C     C_R   0.989080 0.548718 0.897924 -0.208266
C54   C     C_R   0.448897 0.989635 0.898518 -0.206254
C55   C     C_R   0.014642 0.448721 0.898994 -0.203056
C56   C     C_R   0.551901 0.983973 0.100743 -0.201518
C57   C     C_R   0.504859 0.995186 0.145833 0.312553
C58   C     C_R   0.989369 0.449649 0.101404 -0.205689
C59   C     C_R   0.452287 0.010912 0.102314 -0.208623
C60   C     C_R   0.010154 0.550829 0.101527 -0.206201
C61   C     C_R   0.999616 0.500016 0.413439 -0.047891
C62   C     C_R   0.501120 0.999211 0.413379 -0.047906
C63   C     C_R   0.001268 0.498286 0.586612 -0.048063
C64   C     C_R   0.499851 0.000190 0.586560 -0.047925
C65   C     C_R   0.499616 0.000016 0.913439 -0.047891
C66   C     C_R   0.001120 0.499211 0.913379 -0.047907
C67   C     C_R   0.501268 0.998286 0.086612 -0.048063
C68   C     C_R   0.999541 0.500362 0.145746 0.323636
C69   C     C_R   0.999852 0.500190 0.086560 -0.047926
C70   C     C_2   0.886812 0.614088 0.219587 0.603629
C71   C     C_2   0.433095 0.852257 0.220525 0.545463
C72   C     C_2   0.111231 0.385887 0.219751 0.602771
C73   C     C_2   0.623270 0.106203 0.219750 0.596857
C74   C     C_2   0.922368 0.360292 0.780871 0.491353
C75   C     C_2   0.384681 0.111920 0.780235 0.602563
C76   C     C_2   0.119479 0.610503 0.780302 0.601955
C77   C     C_2   0.612821 0.887437 0.780415 0.603199
C78   C     C_2   0.386816 0.114092 0.719586 0.603629
C79   C     C_1   0.999989 0.329727 0.500045 -0.175289
C80   C     C_2   0.933089 0.352259 0.720525 0.545455
C81   C     C_2   0.611229 0.885885 0.719751 0.602771
C82   C     C_2   0.123273 0.606198 0.719750 0.596857
C83   C     C_2   0.422375 0.860288 0.280871 0.491355
C84   C     C_2   0.884678 0.611916 0.280235 0.602562
C85   C     C_2   0.619475 0.110507 0.280302 0.601954
C86   C     C_2   0.112823 0.387439 0.280415 0.603199
C87   C     C_1   0.670272 0.000011 0.499926 -0.176006
C88   C     C_1   0.000010 0.670272 0.499956 -0.176007
C89   C     C_R   0.609792 0.000004 0.499992 0.912111
C90   C     C_1   0.329728 0.999990 0.500073 -0.176024
C91   C     C_1   0.499989 0.829727 0.000045 -0.175289
C92   C     C_1   0.170272 0.500011 0.999926 -0.176006
C93   C     C_1   0.500010 0.170272 0.999956 -0.176007
C94   C     C_1   0.829728 0.499990 0.000073 -0.176024
C95   C     C_1   0.999988 0.278790 0.500079 0.024573
C96   C     C_1   0.721210 0.000012 0.499869 0.023945
C97   C     C_1   0.000011 0.721210 0.499922 0.023940
C98   C     C_1   0.278790 0.999989 0.500131 0.023958
C99   C     C_1   0.499988 0.778790 0.000079 0.024573
C100  C     C_R   0.000004 0.609791 0.499996 0.912231
C101  C     C_1   0.221210 0.500012 0.999869 0.023945
C102  C     C_1   0.500011 0.221210 0.999922 0.023940
C103  C     C_1   0.778790 0.499989 0.000131 0.023958
C104  C     C_1   0.999991 0.219262 0.500102 0.026004
C105  C     C_1   0.780737 0.000009 0.499830 0.025420
C106  C     C_1   0.000008 0.780737 0.499898 0.025339
C107  C     C_1   0.219263 0.999992 0.500170 0.025428
C108  C     C_1   0.499991 0.719263 0.000102 0.026004
C109  C     C_1   0.280737 0.500009 0.999830 0.025420
C110  C     C_1   0.500008 0.280737 0.999898 0.025339
C111  C     C_R   0.390208 0.999996 0.500007 0.912105
C112  C     C_1   0.719263 0.499992 0.000170 0.025428
C113  C     C_1   0.999995 0.168324 0.500092 -0.163030
C114  C     C_1   0.831675 0.000005 0.499846 -0.163481
C115  C     C_1   0.000005 0.831676 0.499908 -0.163610
C116  C     C_1   0.168325 0.999995 0.500154 -0.163472
C117  C     C_1   0.499995 0.668324 0.000092 -0.163030
C118  C     C_1   0.331675 0.500005 0.999846 -0.163481
C119  C     C_1   0.500005 0.331676 0.999908 -0.163609
C120  C     C_1   0.668325 0.499995 0.000154 -0.163472
C121  C     C_R   0.107842 1.000000 0.500052 0.874808
C122  C     C_R   0.499996 0.890208 0.000005 0.911997
C123  C     C_R   0.999999 0.107842 0.500031 0.874839
C124  C     C_R   0.892158 0.000000 0.499948 0.874790
C125  C     C_R   0.000000 0.892158 0.499969 0.874737
C126  C     C_R   0.607842 0.499999 0.000052 0.874808
C127  C     C_R   0.499999 0.607842 0.000031 0.874839
C128  C     C_R   0.392158 0.500001 0.999948 0.874790
C129  C     C_R   0.500000 0.392158 0.999969 0.874737
C130  C     C_R   0.999886 0.500002 0.444419 0.884333
C131  C     C_R   0.500044 0.999881 0.444396 0.882988
C132  C     C_R   0.000195 0.499798 0.555602 0.883496
C133  C     C_R   0.109792 0.500004 0.999992 0.912112
C134  C     C_R   0.499990 0.000064 0.555581 0.884536
C135  C     C_R   0.499886 0.000001 0.944419 0.884333
C136  C     C_R   0.000044 0.499881 0.944396 0.882988
C137  C     C_R   0.500195 0.999798 0.055603 0.883497
C138  C     C_R   0.999990 0.500065 0.055581 0.884536
C139  C     C_R   0.039462 0.469481 0.190115 0.494862
C140  C     C_R   0.540950 0.032005 0.190012 0.493008
C141  C     C_R   0.959323 0.531188 0.189982 0.495590
C142  C     C_R   0.477397 0.953120 0.190205 0.543918
C143  C     C_R   0.045897 0.528650 0.810221 0.496486
C144  C     C_R   0.500004 0.109791 0.999996 0.912232
C145  C     C_R   0.529725 0.959750 0.809958 0.495497
C146  C     C_R   0.971382 0.460221 0.809341 0.496113
C147  C     C_R   0.468037 0.039904 0.809939 0.495142
C148  C     C_R   0.539461 0.969480 0.690115 0.494862
C149  C     C_R   0.040951 0.532003 0.690012 0.493008
C150  C     C_R   0.459323 0.031189 0.689982 0.495590
C151  C     C_R   0.977395 0.453120 0.690205 0.543920
C152  C     C_R   0.545897 0.028652 0.310221 0.496486
C153  C     C_R   0.029726 0.459750 0.309958 0.495497
C154  C     C_R   0.471384 0.960220 0.309341 0.496111
C155  C     C_R   0.890208 0.499997 0.000007 0.912106
C156  C     C_R   0.968036 0.539903 0.309939 0.495142
C157  C     C_R   0.960909 0.535915 0.219894 -0.099531
C158  C     C_R   0.481453 0.948483 0.220014 -0.050392
C159  C     C_R   0.037470 0.464371 0.219979 -0.099512
C160  C     C_R   0.547188 0.029913 0.219898 -0.099523
C161  C     C_R   0.977647 0.452360 0.779840 -0.083814
C162  C     C_R   0.463147 0.038145 0.780035 -0.099510
C163  C     C_R   0.047512 0.530274 0.780173 -0.094387
C164  C     C_R   0.534672 0.961566 0.780084 -0.099449
C165  C     C_R   0.460911 0.035916 0.719894 -0.099532
C166  C     C_R   0.999127 0.499965 0.354252 0.323651
C167  C     C_R   0.981451 0.448483 0.720014 -0.050391
C168  C     C_R   0.537469 0.964370 0.719979 -0.099513
C169  C     C_R   0.047189 0.529911 0.719898 -0.099522
C170  C     C_R   0.477649 0.952359 0.279840 -0.083815
C171  C     C_R   0.963146 0.538143 0.280035 -0.099509
C172  C     C_R   0.547512 0.030276 0.280173 -0.094387
C173  C     C_R   0.034672 0.461566 0.280084 -0.099449
C174  C     C_R   0.999111 0.500064 0.234994 0.008058
C175  C     C_R   0.514279 0.989514 0.234980 -0.019864
C176  C     C_R   0.013426 0.490568 0.764973 0.002926
H1    H     H_    0.088667 0.519061 0.357611 0.144657
H2    H     H_    0.980704 0.585764 0.856492 0.148132
H3    H     H_    0.409639 0.980887 0.857552 0.145108
H4    H     H_    0.027761 0.408897 0.858584 0.142899
H5    H     H_    0.592646 0.970653 0.140954 0.146592
H6    H     H_    0.980453 0.410843 0.142298 0.144899
H7    H     H_    0.416548 0.020067 0.143986 0.153007
H8    H     H_    0.018655 0.589866 0.142534 0.144759
H9    H     H_    0.904577 0.642815 0.203948 0.084805
H10   H     H_    0.389688 0.837790 0.223059 0.113087
H11   H     H_    0.093492 0.357523 0.203793 0.085083
H12   H     H_    0.480701 0.085763 0.356493 0.148133
H13   H     H_    0.652382 0.088837 0.204146 0.088716
H14   H     H_    0.944796 0.340357 0.798418 0.096709
H15   H     H_    0.356183 0.094042 0.795937 0.084953
H16   H     H_    0.100361 0.640854 0.794798 0.090588
H17   H     H_    0.641428 0.905047 0.796310 0.084719
H18   H     H_    0.404581 0.142818 0.703947 0.084805
H19   H     H_    0.889681 0.337794 0.723059 0.113087
H20   H     H_    0.593489 0.857522 0.703793 0.085084
H21   H     H_    0.152385 0.588831 0.704146 0.088715
H22   H     H_    0.444804 0.840355 0.298418 0.096709
H23   H     H_    0.909639 0.480886 0.357552 0.145108
H24   H     H_    0.856180 0.594038 0.295937 0.084953
H25   H     H_    0.600357 0.140858 0.294798 0.090589
H26   H     H_    0.141430 0.405049 0.296310 0.084719
H27   H     H_    0.089614 0.518750 0.409669 0.168713
H28   H     H_    0.478347 0.088034 0.408648 0.167498
H29   H     H_    0.909548 0.481298 0.409616 0.168683
H30   H     H_    0.524419 0.910110 0.410504 0.168237
H31   H     H_    0.090113 0.473703 0.589050 0.168538
H32   H     H_    0.481073 0.910173 0.590248 0.168823
H33   H     H_    0.912890 0.522226 0.591776 0.167635
H34   H     H_    0.527765 0.908898 0.358584 0.142900
H35   H     H_    0.518555 0.090234 0.590464 0.168570
H36   H     H_    0.589614 0.018749 0.909669 0.168713
H37   H     H_    0.978350 0.588034 0.908648 0.167498
H38   H     H_    0.409547 0.981299 0.909616 0.168683
H39   H     H_    0.024415 0.410109 0.910504 0.168237
H40   H     H_    0.590114 0.973705 0.089050 0.168538
H41   H     H_    0.981075 0.410173 0.090248 0.168823
H42   H     H_    0.412889 0.022224 0.091776 0.167635
H43   H     H_    0.018554 0.590234 0.090464 0.168570
H44   H     H_    0.092646 0.470650 0.640954 0.146592
H45   H     H_    0.480451 0.910844 0.642298 0.144900
H46   H     H_    0.916548 0.520069 0.643986 0.153007
H47   H     H_    0.518656 0.089866 0.642534 0.144759
H48   H     H_    0.588668 0.019059 0.857611 0.144657
N1    N     N_R   0.999466 0.500392 0.176094 -0.340250
N2    N     N_R   0.507370 0.993664 0.176185 -0.351936
N3    N     N_R   0.006771 0.495901 0.823755 -0.342681
N4    N     N_R   0.498921 0.999850 0.823903 -0.340228
N5    N     N_R   0.499466 0.000392 0.676094 -0.340249
N6    N     N_R   0.007370 0.493663 0.676185 -0.351936
N7    N     N_R   0.506772 0.995901 0.323755 -0.342681
N8    N     N_R   0.998921 0.499850 0.323903 -0.340228
O1    O     O_R   0.953170 0.417210 0.499940 -0.609823
O2    O     O_R   0.082790 0.453170 0.999940 -0.610541
O3    O     O_R   0.546830 0.082790 0.999940 -0.609879
O4    O     O_R   0.917210 0.546830 0.999940 -0.610226
O5    O     O_R   0.453170 0.082790 0.000060 -0.610213
O6    O     O_R   0.082790 0.546830 0.000060 -0.609855
O7    O     O_R   0.546830 0.917210 0.000060 -0.610586
O8    O     O_R   0.917210 0.453170 0.000060 -0.609966
O9    O     O_R   0.953160 0.500010 0.458010 -0.622441
O10   O     O_R   0.499990 0.953160 0.458010 -0.622378
O11   O     O_R   0.046840 0.499990 0.458010 -0.622171
O12   O     O_R   0.582790 0.953170 0.499940 -0.610541
O13   O     O_R   0.500010 0.046840 0.458010 -0.620612
O14   O     O_R   0.953160 0.499990 0.541990 -0.619942
O15   O     O_R   0.499990 0.046840 0.541990 -0.622264
O16   O     O_R   0.046840 0.500010 0.541990 -0.622489
O17   O     O_R   0.500010 0.953160 0.541990 -0.622190
O18   O     O_R   0.453160 0.000010 0.958010 -0.622441
O19   O     O_R   0.999990 0.453160 0.958010 -0.622378
O20   O     O_R   0.546840 0.999990 0.958010 -0.622171
O21   O     O_R   0.000010 0.546840 0.958010 -0.620612
O22   O     O_R   0.453160 0.999990 0.041990 -0.619942
O23   O     O_R   0.046830 0.582790 0.499940 -0.609879
O24   O     O_R   0.999990 0.546840 0.041990 -0.622264
O25   O     O_R   0.546840 0.000010 0.041990 -0.622489
O26   O     O_R   0.000010 0.453160 0.041990 -0.622190
O27   O     O_2   0.081375 0.445004 0.174910 -0.564569
O28   O     O_2   0.566219 0.073111 0.174632 -0.563157
O29   O     O_2   0.917656 0.555907 0.174593 -0.564425
O30   O     O_2   0.442559 0.918723 0.175152 -0.529282
O31   O     O_2   0.083329 0.558501 0.826099 -0.568798
O32   O     O_2   0.554285 0.917933 0.825252 -0.564499
O33   O     O_2   0.929583 0.433632 0.823680 -0.548627
O34   O     O_R   0.417210 0.046830 0.499940 -0.610226
O35   O     O_2   0.443418 0.081677 0.825240 -0.564828
O36   O     O_2   0.581374 0.945003 0.674910 -0.564569
O37   O     O_2   0.066221 0.573108 0.674632 -0.563158
O38   O     O_2   0.417657 0.055909 0.674593 -0.564425
O39   O     O_2   0.942556 0.418725 0.675152 -0.529280
O40   O     O_2   0.583327 0.058505 0.326099 -0.568798
O41   O     O_2   0.054286 0.417935 0.325252 -0.564499
O42   O     O_2   0.429586 0.933629 0.323680 -0.548627
O43   O     O_2   0.943417 0.581676 0.325240 -0.564828
O44   O     O_R   0.081480 1.000000 0.475630 -0.602467
O45   O     O_R   0.953170 0.582790 0.500060 -0.610213
O46   O     O_R   1.000000 0.081480 0.475630 -0.602333
O47   O     O_R   0.918520 1.000000 0.475630 -0.602458
O48   O     O_R   1.000000 0.918520 0.475630 -0.602540
O49   O     O_R   0.081480 1.000000 0.524370 -0.602078
O50   O     O_R   0.000000 0.918520 0.524370 -0.602176
O51   O     O_R   0.918520 1.000000 0.524370 -0.602081
O52   O     O_R   1.000000 0.081480 0.524370 -0.601830
O53   O     O_R   0.581480 0.500000 0.975630 -0.602467
O54   O     O_R   0.500000 0.581480 0.975630 -0.602333
O55   O     O_R   0.418520 0.500000 0.975630 -0.602458
O56   O     O_R   0.582790 0.046830 0.500060 -0.609855
O57   O     O_R   0.500000 0.418520 0.975630 -0.602540
O58   O     O_R   0.581480 0.500000 0.024370 -0.602078
O59   O     O_R   0.500000 0.418520 0.024370 -0.602176
O60   O     O_R   0.418520 0.500000 0.024370 -0.602081
O61   O     O_R   0.500000 0.581480 0.024370 -0.601830
O62   O     O_2   0.835693 0.614738 0.223941 -0.531200
O63   O     O_2   0.465640 0.824170 0.206017 -0.518956
O64   O     O_2   0.162284 0.384828 0.224488 -0.532491
O65   O     O_2   0.622904 0.157382 0.224110 -0.534906
O66   O     O_2   0.874272 0.344530 0.775059 -0.556209
O67   O     O_R   0.046830 0.417210 0.500060 -0.610586
O68   O     O_2   0.383664 0.163013 0.775780 -0.532625
O69   O     O_2   0.170902 0.610947 0.776935 -0.533331
O70   O     O_2   0.613477 0.836358 0.775777 -0.531869
O71   O     O_2   0.335697 0.114743 0.723941 -0.531201
O72   O     O_2   0.965633 0.324171 0.706017 -0.518954
O73   O     O_2   0.662282 0.884825 0.724488 -0.532492
O74   O     O_2   0.122910 0.657378 0.724111 -0.534905
O75   O     O_2   0.374280 0.844523 0.275059 -0.556210
O76   O     O_2   0.883658 0.663010 0.275780 -0.532625
O77   O     O_2   0.670899 0.110952 0.276935 -0.533332
O78   O     O_R   0.417210 0.953170 0.500060 -0.609966
O79   O     O_2   0.113480 0.336360 0.275777 -0.531868
O80   O     O_R   0.453170 0.917210 0.999940 -0.609823
Zn1   Zn    Zn3+2 0.937490 0.500000 0.500000 0.990812
Zn2   Zn    Zn3+2 0.000000 1.000000 0.531500 1.017769
Zn3   Zn    Zn3+2 0.500000 0.500000 0.968500 1.016248
Zn4   Zn    Zn3+2 0.500000 0.500000 0.031500 1.017770
Zn5   Zn    Zn3+2 0.500000 0.937490 0.500000 0.989228
Zn6   Zn    Zn3+2 0.062510 0.500000 0.500000 0.989552
Zn7   Zn    Zn3+2 0.500000 0.062510 0.500000 0.990165
Zn8   Zn    Zn3+2 0.437490 0.000000 0.000000 0.990812
Zn9   Zn    Zn3+2 0.000000 0.437490 0.000000 0.989228
Zn10  Zn    Zn3+2 0.562510 0.000000 0.000000 0.989551
Zn11  Zn    Zn3+2 0.000000 0.562510 0.000000 0.990164
Zn12  Zn    Zn3+2 1.000000 0.000000 0.468500 1.016247

loop_
_geom_bond_atom_site_label_1
_geom_bond_atom_site_label_2
_ccdc_geom_bond_type
C92   C133  S    
C135  O20   A    
C29   H34   S    
C54   C65   A    
O4    Zn11  S    
C2    C29   A    
C149  N6    A    
C15   C163  A    
C12   C74   S    
C130  O9    A    
C151  N6    A    
C146  N3    A    
C21   C170  A    
C153  C173  A    
C154  C170  A    
C34   C35   A    
C75   O68   D    
C77   H17   S    
C36   C53   A    
C70   H9    S    
C12   C161  A    
C74   H14   S    
O14   Zn1   S    
C38   C55   A    
O53   Zn3   S    
C50   H33   S    
C1    O1    A    
C91   C122  S    
C153  N8    A    
C86   H26   S    
C88   C97   T    
C28   C166  A    
C152  N7    A    
C139  C159  A    
C142  C158  A    
C8    C157  A    
C143  C163  A    
C109  C118  T    
C15   C20   A    
C146  C161  A    
C64   C134  S    
C40   C58   A    
C116  C121  S    
C73   O65   D    
C13   C30   A    
C24   N5    S    
C60   H43   S    
O20   Zn10  S    
C112  C120  T    
C48   C63   A    
C59   H42   S    
C4    C168  A    
C103  C112  S    
O47   Zn12  S    
O45   Zn1   S    
C39   C56   A    
O24   Zn11  S    
C145  O32   S    
C71   O63   D    
C63   C132  S    
O50   Zn2   S    
C65   C135  S    
C3    C164  A    
C66   C136  S    
C141  C157  A    
C155  O8    A    
C87   C89   S    
C1    C79   S    
C5    C176  A    
C135  O18   A    
C43   C61   A    
C30   H44   S    
C54   H38   S    
C140  O28   S    
C144  O3    A    
C141  O29   S    
C51   C64   A    
O56   Zn7   S    
C143  N3    A    
C147  C162  A    
C137  O25   A    
C140  N2    A    
C106  C115  T    
C9    C21   A    
C9    C158  A    
C151  C167  A    
C11   C23   A    
C17   C78   S    
C58   H41   S    
C133  O2    A    
O61   Zn4   S    
O48   Zn12  S    
C41   C57   A    
C25   C173  A    
C52   H36   S    
C153  O41   S    
C52   C65   A    
O67   Zn6   S    
C138  O26   A    
C20   C82   S    
C100  O45   A    
C13   C32   A    
C150  O38   S    
C47   C62   A    
C81   O73   D    
C6    C172  A    
C16   C164  A    
C99   C108  S    
C29   C47   A    
C149  C169  A    
C30   C48   A    
O17   Zn5   S    
C152  C172  A    
O55   Zn3   S    
C3    C162  A    
C59   C67   A    
C13   N6    S    
C27   C44   A    
C111  O78   A    
C94   C155  S    
C8    C22   A    
C46   N3    S    
C36   C46   A    
C157  C174  A    
C127  O61   A    
C49   C64   A    
C31   H45   S    
C50   C63   A    
C14   C17   A    
C121  O49   A    
C90   C111  S    
C86   O79   D    
C28   H23   S    
C21   C83   S    
C136  O21   A    
C36   H2    S    
C161  C176  A    
C42   H8    S    
O3    Zn10  S    
C146  O33   S    
C75   H15   S    
O12   Zn5   S    
C72   H11   S    
C76   H16   S    
C156  N8    A    
C49   H32   S    
O9    Zn1   S    
O25   Zn10  S    
O22   Zn8   S    
C93   C144  S    
C2    N7    S    
C10   C25   A    
O15   Zn7   S    
C160  C175  A    
C74   O66   D    
O49   Zn2   S    
C37   C54   A    
C3    C4    A    
C6    C170  A    
C26   H1    S    
C69   C138  S    
C166  N8    S    
C108  C117  T    
O44   Zn12  S    
C137  O22   A    
O60   Zn4   S    
C110  C119  T    
C18   C167  A    
O18   Zn8   S    
C77   O70   D    
C125  O48   A    
C8    C70   S    
C121  O44   A    
C140  C160  A    
C132  O14   A    
C60   C69   A    
C119  C129  S    
C15   C76   S    
C67   C137  S    
C107  C116  T    
C38   C46   A    
C104  C113  T    
C158  C175  A    
C128  O60   A    
O6    Zn11  S    
C44   H28   S    
C91   C99   T    
C19   C81   S    
C10   C72   S    
C96   C105  S    
C7    C171  A    
O34   Zn7   S    
O26   Zn9   S    
O16   Zn6   S    
C123  O52   A    
C154  N7    A    
C120  C126  S    
C6    C175  A    
O21   Zn11  S    
C101  C109  S    
C7    C174  A    
C4    C165  A    
C16   C77   S    
C78   H18   S    
C154  O42   S    
C126  O58   A    
C159  C174  A    
C139  O27   S    
C53   H37   S    
O80   Zn8   S    
C2    C27   A    
C22   C171  A    
C85   H25   S    
C82   O74   D    
C20   C169  A    
O57   Zn3   S    
O10   Zn5   S    
O58   Zn4   S    
C31   C49   A    
C138  O24   A    
C76   O69   D    
C11   C160  A    
C142  N2    A    
C40   H6    S    
C78   O71   D    
C37   H3    S    
C38   H4    S    
C35   N4    S    
C82   H21   S    
C11   C73   S    
C84   O76   D    
C68   N1    S    
O19   Zn9   S    
C85   O77   D    
C98   C107  S    
O59   Zn4   S    
C14   C162  A    
C79   C95   T    
C113  C123  S    
O54   Zn3   S    
C122  O80   A    
C89   O12   A    
C83   H22   S    
C117  C127  S    
C88   C100  S    
C92   C101  T    
C97   C106  S    
C33   H47   S    
O78   Zn5   S    
C94   C103  T    
C148  C168  A    
C102  C110  S    
C143  O31   S    
C19   C168  A    
C134  O15   A    
C55   C66   A    
C80   O72   D    
C80   H19   S    
C45   H29   S    
C47   H30   S    
O11   Zn6   S    
C62   C131  S    
C1    O67   A    
C132  O16   A    
C9    C71   S    
C128  O55   A    
C131  O10   A    
C93   C102  T    
C58   C69   A    
O52   Zn2   S    
C33   C51   A    
C34   C52   A    
C24   C33   A    
C139  N1    A    
C14   C75   S    
C148  O36   S    
C24   C31   A    
C149  O37   S    
C17   C165  A    
C55   H39   S    
C16   C19   A    
C48   H31   S    
C45   C61   A    
C144  O5    A    
C32   C50   A    
C27   H12   S    
O23   Zn6   S    
C89   O56   A    
C40   C68   A    
C5    C169  A    
C41   H7    S    
C142  O30   S    
C134  O17   A    
C10   C159  A    
C73   H13   S    
C123  O46   A    
C84   H24   S    
C150  N5    A    
C155  O4    A    
C35   C37   A    
O5    Zn8   S    
C39   C57   A    
O1    Zn1   S    
C156  O43   S    
O13   Zn7   S    
C23   C172  A    
C136  O19   A    
C100  O23   A    
C131  O13   A    
C114  C124  S    
C70   O62   D    
C129  O57   A    
C42   C68   A    
C127  O54   A    
C118  C128  S    
C163  C176  A    
C124  O47   A    
C34   H48   S    
C26   C43   A    
O2    Zn9   S    
C141  N1    A    
C145  N4    A    
C28   C45   A    
C56   H40   S    
O7    Zn10  S    
C105  C114  T    
C41   C59   A    
C147  O35   S    
C42   C60   A    
C44   C62   A    
C150  C165  A    
C22   C84   S    
C72   O64   D    
C130  O11   A    
C122  O7    A    
C83   O75   D    
C87   C96   T    
C53   C66   A    
O46   Zn12  S    
C39   H5    S    
C61   C130  S    
C57   N2    S    
C43   H27   S    
C133  O6    A    
C71   H10   S    
O51   Zn2   S    
C95   C104  S    
C124  O51   A    
C26   C166  A    
C111  O34   A    
C32   H46   S    
C147  N4    A    
C145  C164  A    
C56   C67   A    
C156  C171  A    
C115  C125  S    
C81   H20   S    
C151  O39   S    
C152  O40   S    
C7    C173  A    
C25   C86   S    
C5    C167  A    
O8    Zn9   S    
C51   H35   S    
C125  O50   A    
C129  O59   A    
C18   C80   S    
C23   C85   S    
C126  O53   A    
C12   C18   A    
C148  N5    A    
C90   C98   T    
