data_mof_unit_67867.cif
_audit_creation_date              2012-12-10T16:55:47-0500
_audit_creation_method            fapswitch 2.2
_symmetry_space_group_name_H-M    P1
_symmetry_Int_Tables_number       1
_space_group_crystal_system       triclinic
_cell_length_a                    8.030322
_cell_length_b                    8.639971
_cell_length_c                    10.53746
_cell_angle_alpha                 92.38389
_cell_angle_beta                  84.530509
_cell_angle_gamma                 92.866934
_cell_volume                      726.369000233

loop_
_atom_site_label
_atom_site_type_symbol
_atom_type_description
_atom_site_fract_x
_atom_site_fract_y
_atom_site_fract_z
_atom_type_partial_charge
C1    C     C_R   0.544065 0.793360 0.499476 0.951577
C2    C     C_3   0.499039 0.507030 0.877548 -0.033672
C3    C     C_3   0.345639 0.458249 0.051697 -0.179377
C4    C     C_3   0.653518 0.546532 0.949100 -0.202732
C5    C     C_2   0.566462 0.956694 0.503558 -0.390050
C6    C     C_2   0.432870 0.043542 0.514647 -0.404000
C7    C     C_3   0.270043 0.724973 0.945994 -0.409717
C8    C     C_3   0.178745 0.791143 0.069741 -0.349307
C9    C     C_3   0.999803 0.722737 0.092636 -0.862687
C10   C     C_3   0.739978 0.287682 0.054111 -0.439495
C11   C     C_3   0.858751 0.251748 0.935088 -0.310924
C12   C     C_R   0.455789 0.206694 0.506291 0.948479
C13   C     C_3   0.002994 0.159869 0.969523 -0.950602
C14   C     C_3   0.020372 0.349606 0.368943 -0.178074
C15   C     C_3   0.945312 0.186085 0.387456 -0.342009
C16   C     C_3   0.056029 0.064228 0.320263 -1.009112
C17   C     C_3   0.008330 0.702712 0.556683 -0.116205
C18   C     C_3   0.922261 0.734593 0.689727 -0.364365
C19   C     C_3   0.956057 0.900382 0.736595 -0.998417
C20   C     C_R   0.500391 0.504898 0.741777 0.836139
C21   C     C_R   0.499762 0.496509 0.258312 0.849877
C22   C     C_3   0.390980 0.603937 0.974417 0.195512
C23   C     C_3   0.609597 0.400278 0.025767 0.171191
C24   C     C_3   0.544793 0.643586 0.047940 -0.243128
C25   C     C_3   0.455243 0.359939 0.952818 -0.232450
C26   C     C_3   0.501140 0.496771 0.122782 -0.031998
H1    H     H_    0.693461 0.004561 0.495598 0.174985
H2    H     H_    0.342933 0.819780 0.894563 0.161629
H3    H     H_    0.180405 0.672007 0.881533 0.227450
H4    H     H_    0.070577 0.224295 0.042768 0.255315
H5    H     H_    0.953647 0.047596 0.007833 0.274623
H6    H     H_    0.093279 0.141471 0.884596 0.268986
H7    H     H_    0.789077 0.185520 0.862764 0.229577
H8    H     H_    0.913768 0.360085 0.892269 0.228702
H9    H     H_    0.813758 0.342279 0.128543 0.219690
H10   H     H_    0.676110 0.179342 0.091038 0.190035
H11   H     H_    0.221486 0.427957 0.100993 0.139029
H12   H     H_    0.305513 0.994896 0.527695 0.179185
H13   H     H_    0.777863 0.584167 0.905763 0.134622
H14   H     H_    0.065227 0.079528 0.216666 0.273354
H15   H     H_    0.183558 0.073357 0.351896 0.275481
H16   H     H_    0.999832 0.947591 0.340869 0.260481
H17   H     H_    0.928489 0.163282 0.490950 0.232898
H18   H     H_    0.824670 0.174950 0.344227 0.247535
H19   H     H_    0.997042 0.389403 0.274087 0.127625
H20   H     H_    0.152837 0.343452 0.368844 0.253294
H21   H     H_    0.877385 0.919243 0.827415 0.274508
H22   H     H_    0.090430 0.919667 0.752217 0.276746
H23   H     H_    0.581025 0.759029 0.089889 0.136306
H24   H     H_    0.921548 0.983252 0.666834 0.272068
H25   H     H_    0.785897 0.719749 0.690909 0.262447
H26   H     H_    0.968480 0.654741 0.756326 0.209096
H27   H     H_    0.123233 0.774285 0.551442 0.200121
H28   H     H_    0.950667 0.747881 0.476513 0.162274
H29   H     H_    0.419731 0.244318 0.910887 0.135210
H30   H     H_    0.922099 0.767420 0.022158 0.251624
H31   H     H_    0.997118 0.594268 0.084085 0.261548
H32   H     H_    0.944362 0.756821 0.189426 0.252849
H33   H     H_    0.246908 0.771469 0.154278 0.238300
H34   H     H_    0.176077 0.918097 0.062155 0.213338
N1    N     N_2   0.950320 0.457950 0.465730 -0.057104
N2    N     N_2   0.049680 0.542050 0.534270 -0.074918
O1    O     O_R   0.389250 0.738570 0.508410 -0.638516
O2    O     O_R   0.610750 0.261430 0.491590 -0.627186
O3    O     O_R   0.678390 0.711620 0.486450 -0.648676
O4    O     O_R   0.321610 0.288380 0.513550 -0.638734
O5    O     O_R   0.355460 0.513510 0.697030 -0.619396
O6    O     O_R   0.644540 0.486490 0.302970 -0.628964
O7    O     O_R   0.644600 0.486560 0.675070 -0.633896
O8    O     O_R   0.355400 0.513440 0.324930 -0.661080
Zn1   Zn    Zn3+2 0.306940 0.517990 0.514670 0.910360
Zn2   Zn    Zn3+2 0.693060 0.482010 0.485330 0.912721

loop_
_geom_bond_atom_site_label_1
_geom_bond_atom_site_label_2
_ccdc_geom_bond_type
C2    C22   S    
O7    Zn2   S    
C2    C4    S    
C21   C26   S    
C6    H12   S    
C10   H9    S    
C7    H3    S    
C17   H27   S    
C10   C23   S    
C2    C25   S    
C7    C22   S    
C20   O5    A    
C1    O3    A    
O4    Zn1   S    
C4    H13   S    
C11   H7    S    
C21   O8    A    
O6    Zn2   S    
C16   H15   S    
C23   C25   S    
C17   C18   S    
C18   H26   S    
C7    C8    S    
C14   H20   S    
C9    H30   S    
C8    H34   S    
C11   C13   S    
C19   H24   S    
N2    Zn1   S    
C12   O4    A    
C16   H14   S    
C4    C24   S    
C1    C5    S    
C5    C6    D    
C1    O1    A    
N1    Zn2   S    
O1    Zn1   S    
C15   H18   S    
C9    H32   S    
C14   H19   S    
C9    H31   S    
O2    Zn2   S    
C21   O6    A    
C6    C12   S    
N1    N2    D    
C12   O2    A    
C22   C24   S    
C20   O7    A    
C23   C26   S    
O5    Zn1   S    
C10   C11   S    
C15   H17   S    
C15   C16   S    
O3    Zn2   S    
C17   N2    S    
C16   H16   S    
C13   H4    S    
C3    C25   S    
O8    Zn1   S    
C3    H11   S    
C18   C19   S    
C19   H21   S    
C8    H33   S    
C24   H23   S    
C18   H25   S    
C4    C23   S    
C14   C15   S    
C3    C22   S    
C10   H10   S    
C13   H6    S    
C5    H1    S    
C14   N1    S    
C2    C20   S    
C17   H28   S    
C13   H5    S    
C11   H8    S    
C7    H2    S    
C25   H29   S    
C19   H22   S    
C8    C9    S    
C24   C26   S    
C3    C26   S    
