data_mof_unit_65178.cif
_audit_creation_date              2012-12-10T17:04:16-0500
_audit_creation_method            fapswitch 2.2
_symmetry_space_group_name_H-M    P1
_symmetry_Int_Tables_number       1
_space_group_crystal_system       triclinic
_cell_length_a                    15.121186
_cell_length_b                    15.157025
_cell_length_c                    16.025021
_cell_angle_alpha                 89.344901
_cell_angle_beta                  90.174063
_cell_angle_gamma                 90.140149
_cell_volume                      3672.5420326

loop_
_atom_site_label
_atom_site_type_symbol
_atom_type_description
_atom_site_fract_x
_atom_site_fract_y
_atom_site_fract_z
_atom_type_partial_charge
C1    C     C_R   0.259932 0.485218 0.488622 0.501569
C2    C     C_R   0.979595 0.456464 0.498706 0.049282
C3    C     C_R   0.019181 0.540868 0.510601 0.045671
C4    C     C_R   0.739741 0.515063 0.512413 0.498666
C5    C     C_R   0.111366 0.548619 0.506635 -0.127351
C6    C     C_R   0.124833 0.393595 0.474521 -0.104889
C7    C     C_R   0.033180 0.382560 0.480257 -0.002204
C8    C     C_R   0.522481 0.163816 0.516792 0.024191
C9    C     C_R   0.484122 0.835159 0.484218 0.060862
C10   C     C_R   0.405120 0.966282 0.441122 -0.137653
C11   C     C_R   0.412370 0.875198 0.443951 -0.135680
C12   C     C_1   0.478478 0.519139 0.886679 0.024909
C13   C     C_R   0.550122 0.886203 0.523827 -0.001058
C14   C     C_R   0.542017 0.979220 0.521742 0.064694
C15   C     C_R   0.469055 0.018647 0.479684 0.032207
C16   C     C_R   0.513548 0.259842 0.513186 0.506899
C17   C     C_R   0.460292 0.110285 0.477076 -0.122001
C18   C     C_R   0.594168 0.125354 0.559002 -0.128646
C19   C     C_R   0.604265 0.034249 0.561137 -0.133262
C20   C     C_R   0.486725 0.739530 0.486314 0.497822
C21   C     C_R   0.512901 0.488648 0.277349 0.508284
C22   C     C_R   0.487372 0.511257 0.722698 0.503321
C23   C     C_1   0.523421 0.479776 0.113511 -0.006203
C24   C     C_1   0.518641 0.483822 0.188351 -0.002678
C25   C     C_2   0.528847 0.475154 0.024075 0.392971
C26   C     C_2   0.474022 0.523043 0.976245 -0.088971
C27   C     C_3   0.626929 0.842755 0.569598 -0.394655
C28   C     C_3   0.003887 0.706575 0.538191 -0.405470
C29   C     C_3   0.994621 0.291947 0.466280 -0.405528
C30   C     C_1   0.482478 0.515605 0.811769 0.041572
C31   C     C_R   0.163783 0.475784 0.488662 0.008666
C32   C     C_R   0.835250 0.522652 0.516800 0.021285
C33   C     C_R   0.965497 0.615653 0.525455 -0.000344
C34   C     C_R   0.873707 0.605544 0.526882 -0.099231
C35   C     C_R   0.887354 0.448496 0.504160 -0.122768
F1    F     F_    0.590292 0.421526 0.989327 -0.599062
H1    H     H_    0.425046 0.565774 0.004283 0.064424
H2    H     H_    0.404493 0.139908 0.444695 0.127702
H3    H     H_    0.625250 0.769748 0.568791 0.141249
H4    H     H_    0.690259 0.863900 0.540638 0.126954
H5    H     H_    0.626285 0.862188 0.636188 0.126653
H6    H     H_    0.951631 0.756599 0.548697 0.128854
H7    H     H_    0.048031 0.706086 0.593687 0.138901
H8    H     H_    0.041852 0.727374 0.482093 0.132975
H9    H     H_    0.046588 0.242521 0.452649 0.129585
H10   H     H_    0.958866 0.269293 0.523051 0.136000
H11   H     H_    0.948368 0.293952 0.412349 0.138077
H12   H     H_    0.643325 0.165838 0.589704 0.142237
H13   H     H_    0.349060 0.995830 0.409190 0.113296
H14   H     H_    0.661135 0.008011 0.593988 0.114014
H15   H     H_    0.361801 0.835490 0.414280 0.110935
H16   H     H_    0.143520 0.611505 0.516573 0.130119
H17   H     H_    0.166411 0.337371 0.461146 0.131493
H18   H     H_    0.831562 0.662404 0.535997 0.113107
H19   H     H_    0.854643 0.385669 0.495292 0.114626
O1    O     O_3   0.500000 0.500000 0.500000 -0.443071
O2    O     O_R   0.461330 0.435620 0.316920 -0.533019
O3    O     O_R   0.434750 0.558200 0.677930 -0.541538
O4    O     O_R   0.559650 0.545720 0.316320 -0.531086
O5    O     O_R   0.544270 0.460460 0.688830 -0.520463
O6    O     O_R   0.559890 0.307360 0.561630 -0.542872
O7    O     O_R   0.434610 0.697530 0.534530 -0.541289
O8    O     O_R   0.307380 0.433810 0.444990 -0.544659
O9    O     O_R   0.698130 0.561300 0.458860 -0.539320
O10   O     O_R   0.296270 0.542620 0.535390 -0.543421
O11   O     O_R   0.698230 0.462280 0.560770 -0.537853
O12   O     O_R   0.461480 0.296280 0.460320 -0.545367
O13   O     O_R   0.544020 0.698820 0.443520 -0.541664
Zn1   Zn    Zn3+2 0.574310 0.433680 0.576480 0.955185
Zn2   Zn    Zn3+2 0.433700 0.417860 0.431740 0.942490
Zn3   Zn    Zn3+2 0.574160 0.575160 0.430870 0.943730
Zn4   Zn    Zn3+2 0.417840 0.573310 0.560900 0.937802

loop_
_geom_bond_atom_site_label_1
_geom_bond_atom_site_label_2
_ccdc_geom_bond_type
C2    C35   A    
C22   O3    A    
C29   H10   S    
C1    O10   A    
C23   C24   T    
C32   C35   A    
C5    H16   S    
C21   O2    A    
C6    C7    A    
C7    C29   S    
O2    Zn2   S    
O10   Zn4   S    
C22   C30   S    
C4    O9    A    
C28   H7    S    
C8    C17   A    
C32   C34   A    
O8    Zn2   S    
C27   H4    S    
C10   C15   A    
O1    Zn3   S    
O12   Zn2   S    
C2    C3    A    
O7    Zn4   S    
O1    Zn4   S    
C8    C16   S    
C16   O12   A    
C13   C14   A    
C20   O7    A    
C9    C11   A    
C19   H14   S    
O3    Zn4   S    
C4    C32   S    
O5    Zn1   S    
C29   H11   S    
O13   Zn3   S    
C1    O8    A    
C28   H6    S    
C33   C34   A    
C28   C33   S    
C34   H18   S    
O1    Zn2   S    
C17   H2    S    
C23   C25   S    
C22   O5    A    
C8    C18   A    
C6    H17   S    
O9    Zn3   S    
O11   Zn1   S    
C11   H15   S    
C10   C11   A    
C3    C33   A    
C25   F1    S    
O6    Zn1   S    
C29   H9    S    
C21   O4    A    
C3    C5    A    
C1    C31   S    
O4    Zn3   S    
C4    O11   A    
C28   H8    S    
O1    Zn1   S    
C16   O6    A    
C21   C24   S    
C12   C26   S    
C15   C17   A    
C9    C13   A    
C14   C15   A    
C18   C19   A    
C6    C31   A    
C9    C20   S    
C12   C30   T    
C25   C26   D    
C10   H13   S    
C35   H19   S    
C14   C19   A    
C20   O13   A    
C13   C27   S    
C26   H1    S    
C2    C7    A    
C27   H3    S    
C27   H5    S    
C5    C31   A    
C18   H12   S    
