data_mof_unit_11291.cif
_audit_creation_date              2013-03-05T16:36:34-0500
_audit_creation_method            fapswitch 2.2
_symmetry_space_group_name_H-M    P1
_symmetry_Int_Tables_number       1
_space_group_crystal_system       triclinic
_cell_length_a                    19.317556
_cell_length_b                    18.390667
_cell_length_c                    10.597302
_cell_angle_alpha                 92.431593
_cell_angle_beta                  90.093567
_cell_angle_gamma                 89.91206
_cell_volume                      3761.42758362

loop_
_atom_site_label
_atom_site_type_symbol
_atom_site_description
_atom_site_fract_x
_atom_site_fract_y
_atom_site_fract_z
_atom_type_partial_charge
O1    O     O_R   0.398180 0.560840 0.499970 -0.626497
O2    O     O_R   0.601820 0.439160 0.500030 -0.626133
O3    O     O_R   0.601820 0.560840 0.500030 -0.632931
O4    O     O_R   0.398180 0.439160 0.499970 -0.632773
C1    C     C_R   0.365536 0.500032 0.499821 0.893111
C2    C     C_R   0.634463 0.499963 0.499920 0.892967
O5    O     O_R   0.499990 0.560810 0.316770 -0.606921
O6    O     O_R   0.500010 0.439190 0.683230 -0.606827
O7    O     O_R   0.500010 0.560810 0.683230 -0.622324
O8    O     O_R   0.499990 0.439190 0.316770 -0.622606
C3    C     C_R   0.509298 0.498059 0.259721 0.896549
C4    C     C_R   0.490693 0.501943 0.740273 0.897106
Zn1   Zn    Zn3+2 0.500000 0.581210 0.500000 0.963156
Zn2   Zn    Zn3+2 0.500000 0.418790 0.500000 0.963417
C5    C     C_R   0.569832 0.617310 0.123753 -0.193424
C6    C     C_R   0.430119 0.382721 0.876238 -0.193873
C7    C     C_R   0.497897 0.640671 0.902835 -0.190054
C8    C     C_R   0.502080 0.359335 0.097118 -0.189693
C9    C     C_R   0.568569 0.687557 0.077541 -0.063687
C10   C     C_R   0.431396 0.312470 0.922411 -0.062600
C11   C     C_R   0.531088 0.699787 0.965727 -0.058428
C12   C     C_R   0.468916 0.300213 0.034175 -0.059096
C13   C     C_R   0.502921 0.569081 0.946322 0.075437
C14   C     C_R   0.497042 0.430933 0.053664 0.075505
C15   C     C_R   0.532080 0.559616 0.064515 0.072829
C16   C     C_R   0.467879 0.440405 0.935478 0.072347
C17   C     C_R   0.479677 0.506415 0.876118 -0.215768
C18   C     C_R   0.520292 0.493597 0.123871 -0.215355
H1    H     H_    0.598656 0.608182 0.209530 0.174741
H2    H     H_    0.401290 0.391860 0.790470 0.175296
H3    H     H_    0.466492 0.651879 0.821440 0.199293
H4    H     H_    0.533493 0.348127 0.178503 0.199613
C19   C     C_R   0.745717 0.434178 0.503278 -0.199247
C20   C     C_R   0.254320 0.565898 0.497147 -0.197429
C21   C     C_R   0.254523 0.434140 0.500309 -0.192355
C22   C     C_R   0.745450 0.565625 0.492744 -0.195790
H5    H     H_    0.717515 0.383386 0.506625 0.196317
H6    H     H_    0.282617 0.616742 0.497513 0.203985
H7    H     H_    0.282962 0.383307 0.500746 0.209424
H8    H     H_    0.717059 0.616436 0.490172 0.202501
C23   C     C_R   0.817764 0.432921 0.500693 -0.034808
C24   C     C_R   0.182311 0.567131 0.497474 -0.029361
C25   C     C_R   0.182546 0.432822 0.497755 -0.032007
C26   C     C_R   0.817505 0.566865 0.492947 -0.037196
C27   C     C_R   0.853682 0.499890 0.496375 -0.081562
C28   C     C_R   0.146324 0.499947 0.497086 -0.088283
C29   C     C_R   0.709692 0.499913 0.498773 -0.092819
C30   C     C_R   0.290300 0.500042 0.499236 -0.099152
C31   C     C_R   0.964116 0.512444 0.384488 -0.064401
C32   C     C_R   0.035886 0.487305 0.608563 -0.073618
C33   C     C_R   0.035822 0.512415 0.384661 -0.068718
C34   C     C_R   0.964202 0.487295 0.608389 -0.064334
H9    H     H_    0.936220 0.522102 0.298007 0.136049
H10   H     H_    0.063783 0.477661 0.695052 0.136759
H11   H     H_    0.063678 0.522075 0.298333 0.136514
H12   H     H_    0.936378 0.477650 0.694760 0.136513
C35   C     C_R   0.071366 0.499873 0.496718 0.156445
C36   C     C_R   0.928627 0.499887 0.496372 0.167918
C37   C     C_R   0.556244 0.726816 0.544113 -0.054342
C38   C     C_R   0.443885 0.273238 0.455153 -0.053564
C39   C     C_R   0.444192 0.724788 0.454091 -0.051469
C40   C     C_R   0.555521 0.275172 0.546890 -0.050827
H13   H     H_    0.600089 0.696768 0.578311 0.180955
H14   H     H_    0.400235 0.303335 0.420300 0.180786
H15   H     H_    0.400310 0.693266 0.419847 0.183230
H16   H     H_    0.599289 0.306654 0.581799 0.181635
C41   C     C_R   0.558970 0.803221 0.541930 0.204731
C42   C     C_R   0.441004 0.196845 0.457498 0.207504
C43   C     C_R   0.442003 0.801241 0.454091 0.224909
C44   C     C_R   0.557564 0.198723 0.547098 0.222578
C45   C     C_R   0.500418 0.841677 0.498165 -0.145206
C46   C     C_R   0.499311 0.158331 0.502144 -0.144865
N1    N     N_R   0.500000 0.689440 0.500000 -0.144832
N2    N     N_R   0.500000 0.310560 0.500000 -0.144721
C47   C     C_R   0.494049 0.959601 0.385806 -0.084135
C48   C     C_R   0.505592 0.040383 0.614522 -0.084723
C49   C     C_R   0.505791 0.964105 0.613439 -0.048247
C50   C     C_R   0.493871 0.035880 0.386885 -0.047314
H17   H     H_    0.489444 0.929088 0.296571 0.175399
H18   H     H_    0.510203 0.070882 0.703766 0.176031
H19   H     H_    0.510255 0.937052 0.701879 0.155288
H20   H     H_    0.489436 0.062926 0.298433 0.155160
C51   C     C_R   0.499548 0.077054 0.501260 0.182075
C52   C     C_R   0.500112 0.922941 0.499067 0.182649
C53   C     C_2   0.471196 0.228075 0.092364 0.963430
O9    O     O_2   0.522173 0.210411 0.152562 -0.623575
O10   O     O_R   0.414182 0.181403 0.082986 -0.724306
H21   H     H_    0.422075 0.134289 0.127244 0.364394
C54   C     C_2   0.528910 0.771880 0.907389 0.962633
O11   O     O_2   0.477904 0.789641 0.847361 -0.625071
O12   O     O_R   0.586062 0.818380 0.916399 -0.722873
H22   H     H_    0.578249 0.865466 0.872014 0.364731
C55   C     C_2   0.398892 0.252895 0.844271 0.985551
O13   O     O_2   0.344643 0.263911 0.788459 -0.576890
O14   O     O_R   0.431829 0.185359 0.829011 -0.785369
H23   H     H_    0.405040 0.149967 0.771592 0.364660
C56   C     C_2   0.601034 0.747164 0.155682 0.986714
O15   O     O_2   0.655143 0.736113 0.211916 -0.573414
O16   O     O_R   0.568204 0.814784 0.170454 -0.785397
H24   H     H_    0.594938 0.850193 0.227928 0.365950
C57   C     C_2   0.853430 0.360842 0.500704 0.921983
O17   O     O_2   0.825079 0.309231 0.548197 -0.558715
O18   O     O_R   0.918291 0.350976 0.444035 -0.761580
H25   H     H_    0.936521 0.299533 0.450375 0.385346
C58   C     C_2   0.147233 0.639591 0.499802 0.921554
O19   O     O_2   0.088736 0.647318 0.542203 -0.587806
O20   O     O_R   0.182350 0.699975 0.455803 -0.756522
H26   H     H_    0.153722 0.746218 0.462952 0.381208
C59   C     C_2   0.147730 0.360333 0.494281 0.930448
O21   O     O_2   0.089719 0.352499 0.449471 -0.587774
O22   O     O_R   0.182568 0.300055 0.539940 -0.744787
H27   H     H_    0.154173 0.253768 0.531764 0.382334
C60   C     C_2   0.852874 0.638954 0.491743 0.930872
O23   O     O_2   0.823835 0.690489 0.444852 -0.547154
O24   O     O_R   0.918237 0.648940 0.546648 -0.761166
H28   H     H_    0.936171 0.700390 0.539667 0.385829
N3    N     N_R   0.621874 0.839951 0.580325 0.216864
O25   O     O_R   0.663783 0.810260 0.659556 -0.329842
O26   O     O_R   0.642567 0.897274 0.523242 -0.312048
N4    N     N_R   0.378149 0.160202 0.418551 0.215216
O27   O     O_R   0.357137 0.103025 0.475692 -0.319213
O28   O     O_R   0.336525 0.189915 0.338858 -0.335591
N5    N     N_R   0.379878 0.836275 0.412193 0.219485
O29   O     O_R   0.340753 0.804019 0.326898 -0.334062
O30   O     O_R   0.357273 0.895380 0.470243 -0.309570
N6    N     N_R   0.619387 0.163627 0.590154 0.220549
O31   O     O_R   0.642513 0.104806 0.531920 -0.301687
O32   O     O_R   0.657761 0.195574 0.676944 -0.327750

loop_
_geom_bond_atom_site_label_1
_geom_bond_atom_site_label_2
_geom_bond_distance
_ccdc_geom_bond_type
O10   H21   1.013817 S    
C55   O13   1.223335 D    
O14   H23   1.013953 S    
C20   C24   1.391182 A    
C10   C55   1.484522 S    
O3    C2    1.284064 A    
C56   O15   1.223347 D    
C9    C56   1.484623 S    
N5    O29   1.301462 A    
C11   C54   1.486970 S    
C53   O9    1.223441 D    
N4    O27   1.301265 A    
C15   C18   1.409872 A    
C5    C9    1.401045 A    
C58   O20   1.399319 S    
C16   C17   1.409792 A    
C7    C13   1.416387 A    
O1    C1    1.284625 A    
Zn2   N2    1.990420 S    
C9    C11   1.413574 A    
C14   C16   1.390063 A    
C45   C52   1.494118 S    
C59   O22   1.399318 S    
C47   C52   1.406005 A    
N5    O30   1.301287 A    
C43   N5    1.439683 S    
C6    H2    1.084224 S    
O24   H28   1.013817 S    
C40   C44   1.406545 A    
C22   C29   1.396754 A    
C24   C28   1.418503 A    
C12   C53   1.487060 S    
C43   C45   1.419827 A    
O7    Zn1   1.993222 S    
C37   C41   1.407369 A    
C50   C51   1.405861 A    
O22   H27   1.013920 S    
C31   C33   1.385174 A    
C32   C34   1.384752 A    
O20   H26   1.013941 S    
C5    H1    1.084217 S    
C33   C35   1.398184 A    
C13   C17   1.418106 A    
C54   O12   1.398194 S    
C21   C25   1.390867 A    
C37   N1    1.358258 A    
C33   H11   1.083396 S    
O3    Zn1   2.001706 S    
O6    C4    1.292372 A    
C44   N6    1.439412 S    
C57   O18   1.398563 S    
C8    C12   1.405987 A    
O2    C2    1.284642 A    
C21   C30   1.396586 A    
C48   C51   1.406094 A    
C56   O16   1.398059 S    
C7    H3    1.080533 S    
N4    O28   1.301525 A    
O5    C3    1.292341 A    
C53   O10   1.398190 S    
C6    C16   1.412764 A    
C1    C30   1.453373 S    
C27   C36   1.447752 S    
C2    C29   1.453312 S    
C40   H16   1.081298 S    
C4    C17   1.454427 S    
C57   O17   1.223595 D    
C48   H18   1.082517 S    
C22   H8    1.084100 S    
C48   C49   1.402363 A    
O8    Zn2   1.993222 S    
O12   H22   1.013815 S    
O6    Zn2   1.961965 S    
C49   C52   1.405751 A    
C39   N1    1.358115 A    
C47   C50   1.402395 A    
C19   H5    1.083988 S    
C31   C36   1.398388 A    
C42   C46   1.420725 A    
C21   H7    1.083770 S    
C50   H20   1.082835 S    
O16   H24   1.013949 S    
C49   H19   1.082835 S    
C6    C10   1.400980 A    
C32   H10   1.083428 S    
C41   N3    1.440840 S    
C34   C36   1.398301 A    
Zn1   N1    1.990420 S    
C26   C60   1.492955 S    
O8    C3    1.275311 A    
C28   C35   1.448007 S    
C19   C29   1.396510 A    
C8    C14   1.416411 A    
C22   C26   1.392135 A    
C8    H4    1.080528 S    
C26   C27   1.417013 A    
C60   O23   1.223631 D    
C39   C43   1.406604 A    
N6    O32   1.301492 A    
C20   H6    1.083705 S    
C32   C35   1.397991 A    
C14   C18   1.418140 A    
C10   C12   1.413599 A    
O4    C1    1.284092 A    
C58   O19   1.222621 D    
C20   C30   1.396440 A    
C37   H13   1.081030 S    
C38   H14   1.081061 S    
C19   C23   1.392222 A    
N3    O26   1.301252 A    
C59   O21   1.222713 D    
C42   N4    1.440860 S    
C25   C28   1.418316 A    
C3    C18   1.454418 S    
N6    O31   1.301294 A    
C31   H9    1.083398 S    
C38   N2    1.358293 A    
C23   C57   1.493003 S    
C41   C45   1.420664 A    
C13   C15   1.390080 A    
O4    Zn2   2.001710 S    
O2    Zn2   2.002830 S    
C24   C58   1.493335 S    
C7    C11   1.405894 A    
C46   C51   1.494366 S    
C5    C15   1.412823 A    
O7    C4    1.275277 A    
C39   H15   1.081212 S    
O5    Zn1   1.961965 S    
O1    Zn1   2.002834 S    
C38   C42   1.407369 A    
C55   O14   1.398035 S    
O18   H25   1.013844 S    
C23   C27   1.417001 A    
C40   N2    1.358064 A    
C44   C46   1.419810 A    
C25   C59   1.493114 S    
C54   O11   1.223436 D    
N3    O25   1.301486 A    
C47   H17   1.082548 S    
C34   H12   1.083435 S    
C60   O24   1.398494 S    
