data_mof_unit_41098.cif
_audit_creation_date              2012-12-11T17:24:09-0500
_audit_creation_method            fapswitch 2.2
_symmetry_space_group_name_H-M    P1
_symmetry_Int_Tables_number       1
_space_group_crystal_system       triclinic
_cell_length_a                    22.979955
_cell_length_b                    7.20604
_cell_length_c                    20.712159
_cell_angle_alpha                 89.994748
_cell_angle_beta                  93.760768
_cell_angle_gamma                 90.000084
_cell_volume                      3422.43335521

loop_
_atom_site_label
_atom_site_type_symbol
_atom_type_description
_atom_site_fract_x
_atom_site_fract_y
_atom_site_fract_z
_atom_type_partial_charge
O1    O     O_R   0.307200 0.614510 0.194080 -0.530548
O2    O     O_R   0.692800 0.385490 0.805920 -0.530548
O3    O     O_R   0.192800 0.114510 0.305920 -0.530549
O4    O     O_R   0.807200 0.885490 0.694080 -0.530548
O5    O     O_R   0.188140 0.283260 0.181690 -0.535515
O6    O     O_R   0.811860 0.716740 0.818310 -0.535515
O7    O     O_R   0.311860 0.783260 0.318310 -0.535516
O8    O     O_R   0.688140 0.216740 0.681690 -0.535516
C1    C     C_R   0.168009 0.453176 0.166746 0.694091
C2    C     C_R   0.831991 0.546824 0.833253 0.694091
C3    C     C_R   0.331996 0.953167 0.333248 0.694085
C4    C     C_R   0.668004 0.046833 0.666752 0.694084
O9    O     O_R   0.306460 0.284700 0.186400 -0.539079
O10   O     O_R   0.693540 0.715300 0.813600 -0.539079
O11   O     O_R   0.193540 0.784700 0.313600 -0.539073
O12   O     O_R   0.806460 0.215300 0.686400 -0.539073
O13   O     O_R   0.311970 0.115840 0.310660 -0.537728
O14   O     O_R   0.688030 0.884160 0.689340 -0.537728
O15   O     O_R   0.188030 0.615840 0.189340 -0.537718
O16   O     O_R   0.811970 0.384160 0.810660 -0.537718
C5    C     C_R   0.325385 0.453257 0.171772 0.711943
C6    C     C_R   0.674615 0.546743 0.828228 0.711945
C7    C     C_R   0.174615 0.953248 0.328229 0.711969
C8    C     C_R   0.825385 0.046752 0.671771 0.711967
O17   O     O_3   0.251670 0.448440 0.290760 -0.372065
O18   O     O_3   0.748330 0.551560 0.709240 -0.372064
O19   O     O_3   0.248330 0.948440 0.209240 -0.372063
O20   O     O_3   0.751670 0.051560 0.790760 -0.372063
V1    V     V_3+5 0.249690 0.173030 0.242440 1.409016
V2    V     V_3+5 0.750310 0.826970 0.757560 1.409014
V3    V     V_3+5 0.250310 0.673030 0.257560 1.409039
V4    V     V_3+5 0.749690 0.326970 0.742440 1.409040
H1    H     H_    0.051484 0.284343 0.467261 0.116489
H2    H     H_    0.948516 0.715657 0.532739 0.116490
H3    H     H_    0.448570 0.784382 0.032779 0.116484
H4    H     H_    0.551430 0.215618 0.967221 0.116483
C9    C     C_R   0.984866 0.172991 0.524682 -0.155777
C10   C     C_R   0.015134 0.827009 0.475318 -0.155778
C11   C     C_R   0.515163 0.672999 0.975337 -0.155810
C12   C     C_R   0.484837 0.327001 0.024662 -0.155809
H5    H     H_    0.973668 0.307876 0.543388 0.113711
H6    H     H_    0.026332 0.692124 0.456612 0.113711
H7    H     H_    0.526383 0.807891 0.956647 0.113728
H8    H     H_    0.473617 0.192109 0.043353 0.113728
C13   C     C_R   0.955253 0.013538 0.543684 0.133876
C14   C     C_R   0.044747 0.986462 0.456316 0.133877
C15   C     C_R   0.544744 0.513523 0.956313 0.133920
C16   C     C_R   0.455255 0.486477 0.043687 0.133919
C17   C     C_R   0.970743 0.840459 0.518688 -0.162959
C18   C     C_R   0.029257 0.159541 0.481312 -0.162957
C19   C     C_R   0.529226 0.340436 0.981289 -0.162975
C20   C     C_R   0.470773 0.659564 0.018710 -0.162975
C21   C     C_1   0.909239 0.027190 0.588680 -0.063256
C22   C     C_1   0.090761 0.972810 0.411320 -0.063254
C23   C     C_1   0.590759 0.527164 0.911316 -0.063199
C24   C     C_1   0.409241 0.472836 0.088684 -0.063201
C25   C     C_1   0.129095 0.962741 0.373639 -0.180894
C26   C     C_1   0.870904 0.037259 0.626361 -0.180893
C27   C     C_1   0.370906 0.462767 0.126364 -0.180915
C28   C     C_1   0.629094 0.537233 0.873636 -0.180915
C29   C     C_R   0.439633 0.010969 0.361210 0.030323
C30   C     C_R   0.560367 0.989031 0.638790 0.030321
C31   C     C_R   0.060356 0.510692 0.138798 0.030283
C32   C     C_R   0.939644 0.489305 0.861202 0.030284
C33   C     C_R   0.383159 0.963756 0.380369 -0.082162
C34   C     C_R   0.616841 0.036244 0.619631 -0.082162
C35   C     C_R   0.116850 0.463782 0.119623 -0.082130
C36   C     C_R   0.883150 0.536217 0.880377 -0.082130
C37   C     C_R   0.374430 0.930834 0.445588 -0.241339
C38   C     C_R   0.625570 0.069164 0.554412 -0.241338
C39   C     C_R   0.125599 0.431174 0.054388 -0.241327
C40   C     C_R   0.874402 0.568831 0.945611 -0.241328
C41   C     C_R   0.420382 0.946589 0.493082 0.105008
C42   C     C_R   0.579618 0.053408 0.506919 0.105008
C43   C     C_R   0.079643 0.446924 0.006898 0.105031
C44   C     C_R   0.920358 0.553082 0.993101 0.105031
C45   C     C_R   0.476823 0.992546 0.475558 0.034140
C46   C     C_R   0.523177 0.007452 0.524443 0.034140
C47   C     C_R   0.023180 0.492556 0.024440 0.034115
C48   C     C_R   0.976821 0.507447 0.975559 0.034117
C49   C     C_R   0.487014 0.023296 0.409431 0.081871
C50   C     C_R   0.512985 0.976702 0.590569 0.081872
C51   C     C_R   0.012971 0.522999 0.090580 0.081873
C52   C     C_R   0.987030 0.477003 0.909419 0.081871
C53   C     C_R   0.410321 0.918333 0.558218 -0.178884
C54   C     C_R   0.589679 0.081663 0.441782 -0.178885
C55   C     C_R   0.089722 0.418979 0.941748 -0.178870
C56   C     C_R   0.910280 0.581033 0.058250 -0.178872
C57   C     C_R   0.455581 0.933973 0.606183 -0.197405
C58   C     C_R   0.544419 0.066022 0.393817 -0.197404
C59   C     C_R   0.044456 0.434605 0.893787 -0.197386
C60   C     C_R   0.955545 0.565406 0.106212 -0.197386
H9    H     H_    0.331059 0.895858 0.459490 0.113497
H10   H     H_    0.668941 0.104139 0.540510 0.113497
H11   H     H_    0.168987 0.396437 0.040474 0.113457
H12   H     H_    0.831015 0.603571 0.959525 0.113458
H13   H     H_    0.366979 0.884523 0.572330 0.123619
H14   H     H_    0.633021 0.115471 0.427670 0.123620
H15   H     H_    0.133081 0.385427 0.927623 0.123608
H16   H     H_    0.866921 0.614591 0.072375 0.123610
H17   H     H_    0.444352 0.912715 0.655418 0.131282
H18   H     H_    0.555648 0.087277 0.344582 0.131284
H19   H     H_    0.055698 0.413606 0.844542 0.131272
H20   H     H_    0.944304 0.586413 0.155456 0.131273
C61   C     C_3   0.448897 0.042910 0.289752 -0.373679
C62   C     C_3   0.471080 0.865869 0.258398 -0.303481
C63   C     C_3   0.478804 0.894783 0.186448 -0.767271
H21   H     H_    0.436385 0.930298 0.160563 0.228815
H22   H     H_    0.510555 0.008050 0.179378 0.227265
H23   H     H_    0.495480 0.765083 0.165378 0.224743
H24   H     H_    0.513537 0.823347 0.282668 0.196861
H25   H     H_    0.439285 0.751508 0.263931 0.197127
H26   H     H_    0.408093 0.086784 0.262575 0.181795
H27   H     H_    0.478991 0.160939 0.283436 0.166495
C64   C     C_3   0.551103 0.957091 0.710248 -0.373678
C65   C     C_3   0.528916 0.134128 0.741601 -0.303470
C66   C     C_3   0.521195 0.105218 0.813554 -0.767274
H28   H     H_    0.489451 0.991931 0.820625 0.227266
H29   H     H_    0.563616 0.069735 0.839440 0.228812
H30   H     H_    0.504511 0.234906 0.834622 0.224743
H31   H     H_    0.560709 0.248498 0.736066 0.197124
H32   H     H_    0.486458 0.176637 0.717332 0.196858
H33   H     H_    0.521011 0.839056 0.716564 0.166492
H34   H     H_    0.591908 0.913225 0.737426 0.181796
C67   C     C_3   0.051081 0.542366 0.210266 -0.373631
C68   C     C_3   0.028973 0.365115 0.241572 -0.303413
C69   C     C_3   0.021229 0.393778 0.313531 -0.767169
H35   H     H_    0.063635 0.429371 0.339429 0.228818
H36   H     H_    0.989437 0.506907 0.320630 0.227218
H37   H     H_    0.004595 0.263945 0.334561 0.224765
H38   H     H_    0.986535 0.322466 0.217290 0.196831
H39   H     H_    0.060822 0.250913 0.236009 0.197124
H40   H     H_    0.091871 0.586345 0.237449 0.181707
H41   H     H_    0.020935 0.660244 0.216620 0.166486
C70   C     C_3   0.948918 0.457624 0.789734 -0.373640
C71   C     C_3   0.971018 0.634877 0.758424 -0.303410
C72   C     C_3   0.978765 0.606202 0.686466 -0.767146
H42   H     H_    0.010565 0.493088 0.679373 0.227213
H43   H     H_    0.936361 0.570577 0.660565 0.228808
H44   H     H_    0.995392 0.736039 0.665434 0.224765
H45   H     H_    0.939165 0.749066 0.763983 0.197124
H46   H     H_    0.013455 0.677548 0.782707 0.196826
H47   H     H_    0.979067 0.339756 0.783382 0.166489
H48   H     H_    0.908128 0.413627 0.762553 0.181710

loop_
_geom_bond_atom_site_label_1
_geom_bond_atom_site_label_2
_ccdc_geom_bond_type
C67   H41   S    
O17   V3    S    
C39   C43   A    
O1    C5    A    
C68   C69   S    
C55   C59   A    
O19   V1    S    
O13   V1    S    
C61   C62   S    
O3    C7    A    
C16   C24   S    
C40   C44   A    
O15   V3    S    
C1    C35   S    
C70   C71   S    
C10   C17   A    
C62   H25   S    
C45   C46   A    
O7    C3    A    
C51   C60   A    
C72   H43   S    
C50   C57   A    
C65   H32   S    
C32   C36   A    
C61   H26   S    
C38   H10   S    
C5    C27   S    
C16   C20   A    
C37   H9    S    
C66   H29   S    
C6    C28   S    
O4    C8    A    
C39   H11   S    
C62   C63   S    
C67   H40   S    
C64   C65   S    
O1    V3    S    
C65   C66   S    
O2    V4    S    
O3    V1    S    
C58   H18   S    
C71   H46   S    
C1    O15   A    
C32   C52   A    
C56   C60   A    
C2    O16   A    
C38   C42   A    
C63   H21   S    
C37   C41   A    
O14   V2    S    
C52   C59   A    
C45   C49   A    
C29   C61   S    
C44   C56   A    
C55   H15   S    
C48   C52   A    
O11   C7    A    
C11   C20   A    
C30   C50   A    
C32   C70   S    
C13   C21   S    
O12   C8    A    
C23   C28   T    
C63   H22   S    
O10   V2    S    
O5    V1    S    
C62   H24   S    
C72   H44   S    
C31   C35   A    
O7    V3    S    
C65   H31   S    
C30   C34   A    
O8    V4    S    
C61   H27   S    
C64   H33   S    
C54   C58   A    
C66   H30   S    
C53   C57   A    
O18   V4    S    
C15   C19   A    
H1    C18   S    
C11   C15   A    
C4    C34   S    
C31   C51   A    
C36   C40   A    
C69   H36   S    
O5    C1    A    
C71   H45   S    
C46   C50   A    
C68   H39   S    
O8    C4    A    
C14   C22   S    
C13   C17   A    
O9    C5    A    
C56   H16   S    
C42   C54   A    
C41   C53   A    
C31   C67   S    
H4    C19   S    
C7    C25   S    
C49   C58   A    
C43   C55   A    
C70   H48   S    
O6    V2    S    
C67   C68   S    
C63   H23   S    
C9    C13   A    
C69   H35   S    
C15   C23   S    
O16   V4    S    
O9    V1    S    
C12   C16   A    
C3    O13   A    
H2    C17   S    
C64   H34   S    
C57   H17   S    
C44   C48   A    
C59   H19   S    
C71   C72   S    
O6    C2    A    
C11   H7    S    
C21   C26   T    
O11   V3    S    
C2    C36   S    
O12   V4    S    
C12   C19   A    
C72   H42   S    
C14   C18   A    
C24   C27   T    
O10   C6    A    
O20   V2    S    
C69   H37   S    
C30   C64   S    
C29   C49   A    
O2    C6    A    
C47   C51   A    
C9    C18   A    
C34   C38   A    
C68   H38   S    
C33   C37   A    
C70   H47   S    
C35   C39   A    
C9    H5    S    
C54   H14   S    
C10   C14   A    
C53   H13   S    
C60   H20   S    
C47   C48   A    
C40   H12   S    
C10   H6    S    
C29   C33   A    
C12   H8    S    
C8    C26   S    
C42   C46   A    
C4    O14   A    
H3    C20   S    
C41   C45   A    
C66   H28   S    
C43   C47   A    
O4    V2    S    
C3    C33   S    
C22   C25   T    
