data_mof_unit_42327.cif
_audit_creation_date              2012-12-11T15:41:04-0500
_audit_creation_method            fapswitch 2.2
_symmetry_space_group_name_H-M    P1
_symmetry_Int_Tables_number       1
_space_group_crystal_system       triclinic
_cell_length_a                    8.27389
_cell_length_b                    18.861166
_cell_length_c                    19.168578
_cell_angle_alpha                 95.884881
_cell_angle_beta                  95.541514
_cell_angle_gamma                 92.30116
_cell_volume                      2957.89824365

loop_
_atom_site_label
_atom_site_type_symbol
_atom_type_description
_atom_site_fract_x
_atom_site_fract_y
_atom_site_fract_z
_atom_type_partial_charge
Ba1   Ba    Ba6+2 0.154050 0.534420 0.467300 1.641461
Ba2   Ba    Ba6+2 0.656120 0.465570 0.532650 1.641753
C1    C     C_3   0.409691 0.721261 0.217021 -0.106201
C2    C     C_3   0.405959 0.694626 0.289424 0.474568
C3    C     C_3   0.524860 0.684306 0.648121 0.344353
C4    C     C_3   0.518657 0.763931 0.672700 -0.167496
C5    C     C_3   0.861036 0.264362 0.690863 0.443449
C6    C     C_3   0.821140 0.192311 0.719368 -0.046013
C7    C     C_3   0.411719 0.283471 0.718011 0.486610
C8    C     C_3   0.379700 0.232646 0.775126 0.160261
C9    C     C_2   0.701125 0.708454 0.483070 -0.288700
C10   C     C_3   0.560590 0.757337 0.485793 -0.005715
C11   C     C_2   0.618009 0.834064 0.478908 0.038033
C12   C     C_3   0.847737 0.727771 0.288583 0.303176
C13   C     C_2   0.778169 0.855114 0.497542 -0.021466
C14   C     C_2   0.891206 0.800404 0.525070 0.078076
C15   C     C_1   0.842238 0.730680 0.518275 0.082933
C16   C     C_R   0.960707 0.068762 0.492051 0.464049
C17   C     C_R   0.842215 0.931093 0.494582 0.499910
C18   C     C_R   0.921264 0.197655 0.471291 -0.150967
C19   C     C_R   0.973251 0.270296 0.479820 0.065503
C20   C     C_R   0.232306 0.241065 0.536942 -0.004253
C21   C     C_R   0.185738 0.167246 0.525279 0.061000
C22   C     C_R   0.024818 0.145070 0.495385 -0.041613
C23   C     C_3   0.919094 0.804670 0.296376 -0.097309
C24   C     C_R   0.125159 0.291026 0.514717 -0.297397
C25   C     C_R   0.612846 0.528427 0.299738 -0.255472
C26   C     C_R   0.461993 0.493445 0.277027 0.068775
C27   C     C_R   0.404613 0.487694 0.205242 -0.130529
C28   C     C_R   0.498239 0.516236 0.156189 0.003435
C29   C     C_R   0.650370 0.551228 0.179935 -0.156101
C30   C     C_R   0.708273 0.556776 0.251651 -0.020177
C31   C     C_R   0.393016 0.565903 0.045899 -0.097579
C32   C     C_R   0.341843 0.560005 0.973497 0.110314
C33   C     C_R   0.340166 0.492599 0.932528 0.022611
C34   C     C_3   0.882867 0.367311 0.309318 0.248877
C35   C     C_R   0.383574 0.432315 0.966908 0.143046
C36   C     C_R   0.434148 0.439145 0.039950 0.116283
C37   C     C_R   0.440568 0.506657 0.079690 -0.010158
C38   C     C_R   0.147101 0.446954 0.826435 -0.133304
C39   C     C_R   0.099735 0.440362 0.753583 0.034681
C40   C     C_R   0.346573 0.504823 0.734199 0.060108
C41   C     C_R   0.396287 0.512523 0.807234 0.066129
C42   C     C_R   0.294742 0.483842 0.854338 -0.016358
C43   C     C_R   0.201775 0.467241 0.708075 -0.322661
C44   C     C_3   0.809960 0.352774 0.231506 0.106867
C45   C     C_3   0.985143 0.623399 0.689768 0.298349
C46   C     C_3   0.933602 0.650640 0.762475 0.098885
C47   C     C_3   0.313543 0.318814 0.377883 0.363375
C48   C     C_3   0.324464 0.238592 0.359099 -0.116794
H1    H     H_    0.308875 0.651526 0.286070 0.088867
H2    H     H_    0.685579 0.373457 0.227267 0.074660
H3    H     H_    0.898309 0.580292 0.664538 0.075671
H4    H     H_    0.814039 0.675082 0.754367 0.105698
H5    H     H_    0.406693 0.336453 0.421979 0.070819
H6    H     H_    0.470060 0.682163 0.182256 0.022295
H7    H     H_    0.455057 0.672685 0.595341 0.029132
H8    H     H_    0.396490 0.782265 0.655413 0.102539
H9    H     H_    0.805653 0.716890 0.340090 -0.014920
H10   H     H_    0.394305 0.617594 0.076083 0.087378
H11   H     H_    0.725043 0.572196 0.142639 0.075540
H12   H     H_    0.658896 0.531146 0.354767 0.074370
H13   H     H_    0.011295 0.812886 0.343012 0.150829
H14   H     H_    0.873493 0.424733 0.327547 0.034006
N1    N     N_R   0.798221 0.052919 0.488924 -0.254330
N2    N     N_R   0.740727 0.985913 0.490194 -0.210497
N3    N     N_R   0.004596 0.946882 0.496725 -0.222999
N4    N     N_R   0.062243 0.013926 0.495678 -0.202505
O1    O     O_2   0.126770 0.670950 0.539180 -0.456112
O2    O     O_3   0.336728 0.353419 0.318186 -0.652256
O3    O     O_3   0.967441 0.681808 0.267872 -0.581028
O4    O     O_2   0.683530 0.329010 0.460790 -0.443731
O5    O     O_3   0.935970 0.416420 0.461920 -0.494348
O6    O     O_3   0.450050 0.370950 0.587830 -0.490438
O7    O     O_3   0.795734 0.324387 0.349326 -0.641007
O8    O     O_3   0.375780 0.535040 0.584090 -0.471827
O9    O     O_3   0.866950 0.405950 0.623880 -0.494661
O10   O     O_2   0.772079 0.453692 0.749465 -0.451482
O11   O     O_3   0.849981 0.320973 0.744180 -0.583933
O12   O     O_3   0.874330 0.583580 0.538020 -0.495285
O13   O     O_3   0.434510 0.464950 0.415850 -0.482823
O14   O     O_2   0.630930 0.532620 0.670490 -0.452935
O15   O     O_3   0.455948 0.646536 0.698022 -0.654049
O16   O     O_2   0.565082 0.248335 0.536340 -0.497659
O17   O     O_3   0.485987 0.246255 0.663059 -0.628904
O18   O     O_3   0.360240 0.629040 0.412110 -0.480955
O19   O     O_2   0.218746 0.747719 0.447246 -0.480458
O20   O     O_3   0.992018 0.682045 0.650999 -0.668414
O21   O     O_3   0.377360 0.751786 0.338789 -0.610869
O22   O     O_2   0.179370 0.467330 0.329490 -0.477820
O23   O     O_3   0.943350 0.594040 0.376060 -0.460105
O24   O     O_2   0.046840 0.550599 0.253284 -0.497861
P1    P     P_3+3 0.954930 0.659850 0.559700 0.977780
P2    P     P_3+3 0.352180 0.446150 0.339620 0.978762
P3    P     P_3+3 0.913754 0.595141 0.284876 0.951321
P4    P     P_3+3 0.855360 0.340140 0.440240 0.992970
P5    P     P_3+3 0.896189 0.405068 0.716426 0.971618
P6    P     P_3+3 0.380716 0.721862 0.422484 0.957681
P7    P     P_3+3 0.450722 0.554737 0.672639 0.980260
P8    P     P_3+3 0.431351 0.277012 0.580925 0.907100
N5    N     N_3   0.907139 0.388952 0.184731 -0.488961
H15   H     H_    0.893352 0.443668 0.193698 0.176907
H16   H     H_    0.030119 0.379490 0.196074 0.181289
N6    N     N_3   0.796372 0.276321 0.207450 -0.453626
H17   H     H_    0.907366 0.253759 0.220158 0.188036
H18   H     H_    0.708357 0.251481 0.233670 0.199178
H19   H     H_    0.107513 0.601913 0.695909 -0.028009
N7    N     N_3   0.051487 0.704948 0.800158 -0.494505
H20   H     H_    0.169183 0.687081 0.798107 0.181104
H21   H     H_    0.045580 0.751266 0.774519 0.195061
N8    N     N_3   0.913155 0.591824 0.805033 -0.467019
H22   H     H_    0.870203 0.612087 0.852253 0.202866
H23   H     H_    0.027243 0.573001 0.818412 0.159394
H24   H     H_    0.193706 0.330361 0.395532 -0.052996
N9    N     N_3   0.245359 0.731225 0.185755 -0.461977
H25   H     H_    0.255248 0.755710 0.139715 0.178936
H26   H     H_    0.188726 0.680793 0.169809 0.199577
N10   N     N_3   0.182364 0.209734 0.312244 -0.513570
H27   H     H_    0.193037 0.226353 0.262413 0.195861
H28   H     H_    0.187038 0.154146 0.306402 0.187984
H29   H     H_    0.331087 0.211509 0.407821 0.065261
H30   H     H_    0.437670 0.227875 0.333633 0.107875
H31   H     H_    0.525120 0.672622 0.304494 -0.174707
H32   H     H_    0.652716 0.669948 0.644435 -0.009443
H33   H     H_    0.536987 0.772989 0.731343 0.119841
N11   N     N_3   0.643322 0.805488 0.643777 -0.540088
H34   H     H_    0.755560 0.796738 0.670715 0.176459
H35   H     H_    0.622746 0.859514 0.655691 0.198452
H36   H     H_    0.481971 0.772781 0.222267 0.101346
N12   N     N_3   0.793475 0.856226 0.305013 -0.506120
H37   H     H_    0.722514 0.842048 0.344104 0.176955
H38   H     H_    0.717435 0.853459 0.257879 0.179568
H39   H     H_    0.773617 0.270539 0.644650 0.098833
N13   N     N_3   0.023460 0.262282 0.668467 -0.539237
H40   H     H_    0.044508 0.305799 0.640856 0.132960
H41   H     H_    0.024727 0.217895 0.631461 0.119572
H42   H     H_    0.689715 0.183568 0.721382 0.158619
H43   H     H_    0.855345 0.147089 0.682727 0.068280
N14   N     N_3   0.903852 0.187193 0.789541 -0.475140
H44   H     H_    0.858961 0.224648 0.825861 0.223672
H45   H     H_    0.027496 0.199973 0.789386 0.207229
H46   H     H_    0.294861 0.303713 0.698655 -0.058209
N15   N     N_3   0.516139 0.344857 0.749383 -0.434767
H47   H     H_    0.516221 0.382239 0.713081 0.207277
H48   H     H_    0.462836 0.369216 0.792234 0.135868
H49   H     H_    0.291004 0.257862 0.808814 0.057217
N16   N     N_3   0.528116 0.221855 0.820237 -0.480575
H50   H     H_    0.497101 0.189860 0.858865 0.193517
H51   H     H_    0.574863 0.270240 0.847181 0.184420
N17   N     N_3   0.309708 0.162687 0.743597 -0.486701
H52   H     H_    0.399900 0.133677 0.720839 0.208660
H53   H     H_    0.218648 0.168798 0.703552 0.173266
N18   N     N_3   0.500674 0.885109 0.461234 -0.462565
H54   H     H_    0.405811 0.880803 0.493083 0.201446
H55   H     H_    0.453656 0.872621 0.408721 0.209028
N19   N     N_3   0.029237 0.827077 0.573471 -0.484200
H56   H     H_    0.014138 0.812186 0.623506 0.179092
H57   H     H_    0.135037 0.805881 0.556796 0.215109
H58   H     H_    0.801120 0.182212 0.445317 0.107057
N20   N     N_3   0.299194 0.115281 0.544067 -0.463651
H59   H     H_    0.338716 0.125558 0.597563 0.183008
H60   H     H_    0.399494 0.120667 0.515462 0.207867
H61   H     H_    0.691605 0.659872 0.446901 0.060172
H62   H     H_    0.162767 0.347134 0.522849 0.070250
N21   N     N_3   0.550445 0.547980 0.832348 -0.460884
H63   H     H_    0.531937 0.594351 0.864498 0.158141
H64   H     H_    0.617756 0.514196 0.862540 0.196847
N22   N     N_3   0.287636 0.623347 0.944533 -0.492044
H65   H     H_    0.386118 0.660709 0.950461 0.169126
H66   H     H_    0.251787 0.613751 0.890782 0.172277
H67   H     H_    0.744349 0.721806 0.246844 -0.018073
H68   H     H_    0.288904 0.459670 0.187339 0.079432
N23   N     N_3   0.379401 0.363774 0.926904 -0.518058
H69   H     H_    0.297227 0.329830 0.947312 0.191365
H70   H     H_    0.494858 0.343810 0.934758 0.188837
N24   N     N_3   0.484141 0.377058 0.072053 -0.499772
H71   H     H_    0.408083 0.367729 0.110921 0.175246
H72   H     H_    0.603081 0.387031 0.095783 0.203461
H73   H     H_    0.066135 0.426284 0.861532 0.095983
H74   H     H_    0.162718 0.463439 0.652203 0.069816
H75   H     H_    0.981072 0.814382 0.249028 0.142509
H76   H     H_    0.010537 0.352524 0.312520 0.051798

loop_
_geom_bond_atom_site_label_1
_geom_bond_atom_site_label_2
_ccdc_geom_bond_type
C19   C24   A    
N21   H63   S    
C12   O3    S    
C29   H11   S    
N12   H38   S    
N8    H22   S    
C48   H30   S    
N16   H50   S    
N6    H18   S    
C7    N15   S    
C17   N3    A    
C5    C6    S    
N23   H69   S    
O8    P7    S    
C13   C17   S    
C12   H9    S    
C3    H32   S    
C31   C37   A    
C6    N14   S    
C16   C22   S    
C3    C4    S    
C26   P2    S    
C26   C27   A    
N16   H51   S    
C35   C36   A    
N15   H47   S    
C32   C33   A    
O1    P1    D    
O14   P7    D    
C36   C37   A    
C3    O15   S    
C32   N22   S    
N22   H66   S    
O3    P3    S    
C16   N4    A    
C13   C14   S    
C44   H2    S    
N7    H20   S    
C17   N2    A    
C6    H43   S    
Ba1   Ba2   S    
C23   H13   S    
C4    H8    S    
N10   H27   S    
C43   H74   S    
C7    O17   S    
C18   C22   A    
C14   C15   D    
N9    H26   S    
C18   H58   S    
C14   N19   S    
C21   C22   A    
C34   C44   S    
N18   H55   S    
C7    C8    S    
C10   P6    S    
Ba2   O6    S    
C8    N16   S    
C45   H3    S    
O19   P6    D    
N23   H70   S    
C47   H24   S    
N21   H64   S    
C48   N10   S    
C48   H29   S    
Ba2   O4    S    
C23   N12   S    
N6    H17   S    
C23   H75   S    
O7    P4    S    
O22   P2    D    
C41   N21   S    
C44   N5    S    
C20   P8    S    
C2    H1    S    
N3    N4    A    
O16   P8    D    
N5    H15   S    
N22   H65   S    
C4    N11   S    
C5    N13   S    
Ba1   P2    S    
N13   H41   S    
C47   H5    S    
C44   N6    S    
Ba2   P4    S    
O24   P3    D    
Ba1   O1    S    
C2    H31   S    
C6    H42   S    
C16   N1    A    
C40   C43   A    
N20   H60   S    
C46   H4    S    
C41   C42   A    
C27   C28   A    
C34   O7    S    
C38   H73   S    
C1    H6    S    
C36   N24   S    
C45   C46   S    
C28   C29   A    
N14   H44   S    
C21   N20   S    
C30   P3    S    
O10   P5    D    
C9    H61   S    
C31   C32   A    
N8    H23   S    
C10   C11   S    
O9    P5    S    
C33   C42   S    
C11   N18   S    
Ba2   O5    S    
C8    H49   S    
C27   H68   S    
C38   C39   A    
C19   P4    S    
C47   C48   S    
C31   H10   S    
C45   H19   S    
C47   O2    S    
C11   C13   D    
C20   C24   A    
N17   H53   S    
Ba2   O14   S    
C15   P1    S    
C40   C41   A    
C1    C2    S    
Ba1   O22   S    
Ba2   O8    S    
C5    O11   S    
C2    O21   S    
N5    H16   S    
Ba1   O18   S    
N15   H48   S    
O20   P1    S    
C9    C15   D    
N11   H35   S    
N19   H56   S    
C33   C35   A    
C25   C30   A    
C1    H36   S    
Ba1   O8    S    
O11   P5    S    
C29   C30   A    
C4    H33   S    
C12   H67   S    
N24   H71   S    
O6    P8    S    
C7    H46   S    
C5    H39   S    
N13   H40   S    
C25   H12   S    
O2    P2    S    
N17   H52   S    
C3    H7    S    
O21   P6    S    
Ba1   O5    S    
C45   O20   S    
N19   H57   S    
N12   H37   S    
O12   P1    S    
Ba2   O9    S    
C1    N9    S    
C40   P7    S    
N20   H59   S    
O13   P2    S    
N14   H45   S    
C46   N7    S    
N11   H34   S    
C24   H62   S    
N7    H21   S    
C28   C37   S    
C39   P5    S    
C12   C23   S    
O18   P6    S    
N10   H28   S    
Ba2   O12   S    
C35   N23   S    
O4    P4    D    
C38   C42   A    
C46   N8    S    
C34   H76   S    
C18   C19   A    
O23   P3    S    
Ba1   P1    S    
N1    N2    A    
Ba1   O23   S    
C25   C26   A    
O17   P8    S    
Ba1   O12   S    
C39   C43   A    
C20   C21   A    
Ba2   O13   S    
O15   P7    S    
O5    P4    S    
N18   H54   S    
C34   H14   S    
Ba1   O13   S    
C8    N17   S    
N9    H25   S    
C9    C10   S    
N24   H72   S    
