data_mof_unit_6006.cif
_audit_creation_date              2013-03-05T15:44:39-0500
_audit_creation_method            fapswitch 2.2
_symmetry_space_group_name_H-M    P1
_symmetry_Int_Tables_number       1
_space_group_crystal_system       triclinic
_cell_length_a                    25.101501
_cell_length_b                    7.17192
_cell_length_c                    14.397698
_cell_angle_alpha                 89.802791
_cell_angle_beta                  103.282311
_cell_angle_gamma                 87.480374
_cell_volume                      2519.9407939

loop_
_atom_site_label
_atom_site_type_symbol
_atom_site_description
_atom_site_fract_x
_atom_site_fract_y
_atom_site_fract_z
_atom_type_partial_charge
O1    O     O_R   0.319150 0.364170 0.330530 -0.577339
O2    O     O_R   0.680850 0.635830 0.669470 -0.577339
O3    O     O_R   0.180850 0.864170 0.169470 -0.593226
O4    O     O_R   0.819150 0.135830 0.830530 -0.593227
O5    O     O_R   0.210330 0.696850 0.354180 -0.592507
O6    O     O_R   0.789670 0.303150 0.645820 -0.592507
O7    O     O_R   0.289670 0.196850 0.145820 -0.576656
O8    O     O_R   0.710330 0.803150 0.854180 -0.576657
C1    C     C_R   0.196770 0.527323 0.377204 0.990762
C2    C     C_R   0.803230 0.472677 0.622796 0.990762
C3    C     C_R   0.302834 0.023623 0.122348 0.998075
C4    C     C_R   0.697166 0.976377 0.877651 0.998075
O9    O     O_R   0.320550 0.694110 0.341970 -0.594020
O10   O     O_R   0.679450 0.305890 0.658030 -0.594020
O11   O     O_R   0.179450 0.194110 0.158030 -0.583682
O12   O     O_R   0.820550 0.805890 0.841970 -0.583682
O13   O     O_R   0.291860 0.861000 0.157170 -0.587636
O14   O     O_R   0.708140 0.139000 0.842830 -0.587636
O15   O     O_R   0.208140 0.361000 0.342830 -0.568288
O16   O     O_R   0.791860 0.639000 0.657170 -0.568288
C5    C     C_R   0.341964 0.520984 0.362276 0.935896
C6    C     C_R   0.658036 0.479016 0.637724 0.935896
C7    C     C_R   0.157665 0.030165 0.137952 0.942630
C8    C     C_R   0.842334 0.969834 0.862048 0.942630
O17   O     O_3   0.240460 0.529330 0.189380 -0.288228
O18   O     O_3   0.759540 0.470670 0.810620 -0.288228
O19   O     O_3   0.259540 0.029330 0.310620 -0.286829
O20   O     O_3   0.740460 0.970670 0.689380 -0.286829
V1    V     V_3+5 0.251770 0.805510 0.261240 1.212370
V2    V     V_3+5 0.748230 0.194490 0.738760 1.212370
V3    V     V_3+5 0.248230 0.305510 0.238760 1.240622
V4    V     V_3+5 0.751770 0.694490 0.761240 1.240622
C9    C     C_R   0.101048 0.039689 0.076363 -0.120364
C10   C     C_R   0.898952 0.960311 0.923637 -0.120364
C11   C     C_R   0.397951 0.493792 0.424256 -0.121788
C12   C     C_R   0.602049 0.506208 0.575744 -0.121788
C13   C     C_R   0.973114 0.776140 0.029133 -0.207632
C14   C     C_R   0.026886 0.223859 0.970867 -0.207632
C15   C     C_R   0.532376 0.717419 0.477248 -0.199690
C16   C     C_R   0.467624 0.282581 0.522752 -0.199690
C17   C     C_R   0.918606 0.797240 0.978148 -0.105853
C18   C     C_R   0.081394 0.202760 0.021852 -0.105853
C19   C     C_R   0.586443 0.677662 0.526600 -0.097432
C20   C     C_R   0.413556 0.322337 0.473400 -0.097433
C21   C     C_R   0.935240 0.103897 0.922650 -0.235583
C22   C     C_R   0.064760 0.896103 0.077350 -0.235582
C23   C     C_R   0.562345 0.372965 0.572756 -0.240501
C24   C     C_R   0.437655 0.627035 0.427244 -0.240502
C25   C     C_R   0.990404 0.082772 0.973302 0.202672
C26   C     C_R   0.009596 0.917228 0.026698 0.202672
C27   C     C_R   0.507602 0.412978 0.523883 0.205113
C28   C     C_R   0.492398 0.587022 0.476117 0.205114
H1    H     H_    0.078914 0.770614 0.119572 0.179055
H2    H     H_    0.921086 0.229386 0.880428 0.179055
H3    H     H_    0.426473 0.758557 0.388897 0.173909
H4    H     H_    0.573527 0.241443 0.611103 0.173910
H5    H     H_    0.108145 0.316169 0.019261 0.138032
H6    H     H_    0.891855 0.683831 0.980739 0.138032
H7    H     H_    0.383908 0.216716 0.472575 0.136243
H8    H     H_    0.616092 0.783284 0.527425 0.136243
H9    H     H_    0.986822 0.648505 0.069815 0.147249
H10   H     H_    0.013178 0.351494 0.930185 0.147249
H11   H     H_    0.521750 0.851150 0.440877 0.137975
H12   H     H_    0.478250 0.148850 0.559123 0.137975
C29   C     C_R   0.663197 0.990930 0.947250 -0.227068
C30   C     C_R   0.336803 0.009070 0.052749 -0.227068
C31   C     C_R   0.837219 0.473454 0.552858 -0.229103
C32   C     C_R   0.162780 0.526546 0.447142 -0.229104
C33   C     C_R   0.657103 0.040160 0.110016 -0.145398
C34   C     C_R   0.342897 0.959839 0.889984 -0.145397
C35   C     C_R   0.844046 0.434990 0.389658 -0.149812
C36   C     C_R   0.155954 0.565009 0.610342 -0.149813
C37   C     C_R   0.687624 0.036969 0.040934 -0.222887
C38   C     C_R   0.312376 0.963030 0.959066 -0.222887
C39   C     C_R   0.813687 0.427292 0.458756 -0.217807
C40   C     C_R   0.186313 0.572708 0.541244 -0.217805
C41   C     C_R   0.606827 0.956850 0.920515 0.270745
C42   C     C_R   0.393173 0.043150 0.079485 0.270745
C43   C     C_R   0.892859 0.518149 0.579824 0.273390
C44   C     C_R   0.107141 0.481850 0.420175 0.273391
C45   C     C_R   0.573545 0.990015 0.987515 -0.045464
C46   C     C_R   0.426455 0.009985 0.012485 -0.045464
C47   C     C_R   0.926534 0.495484 0.512583 -0.047368
C48   C     C_R   0.073466 0.504514 0.487417 -0.047368
C49   C     C_R   0.600664 0.014451 0.084465 0.158439
C50   C     C_R   0.399336 0.985548 0.915535 0.158439
C51   C     C_R   0.899845 0.470955 0.415439 0.159369
C52   C     C_R   0.100155 0.529043 0.584561 0.159368
C53   C     C_R   0.514794 0.998534 0.963055 0.079747
C54   C     C_R   0.485206 0.001466 0.036945 0.079748
C55   C     C_R   0.985249 0.496795 0.536968 0.079724
C56   C     C_R   0.014750 0.503204 0.463032 0.079724
C57   C     C_R   0.515421 0.986831 0.132423 -0.087510
C58   C     C_R   0.484579 0.013168 0.867577 -0.087510
C59   C     C_R   0.984339 0.517245 0.367678 -0.091395
C60   C     C_R   0.015661 0.482753 0.632322 -0.091395
C61   C     C_R   0.571594 0.005858 0.155750 -0.215793
C62   C     C_R   0.428405 0.994141 0.844250 -0.215793
C63   C     C_R   0.928627 0.488974 0.344228 -0.216728
C64   C     C_R   0.071373 0.511024 0.655772 -0.216727
H13   H     H_    0.592710 0.007964 0.230416 0.130394
H14   H     H_    0.407290 0.992035 0.769583 0.130395
H15   H     H_    0.907566 0.486755 0.269534 0.130393
H16   H     H_    0.092434 0.513242 0.730466 0.130392
H17   H     H_    0.268949 0.938892 0.938519 0.121204
H18   H     H_    0.731051 0.061107 0.061481 0.121205
H19   H     H_    0.229110 0.605648 0.562048 0.123678
H20   H     H_    0.770890 0.394351 0.437952 0.123679
H21   H     H_    0.677593 0.064117 0.183599 0.119958
H22   H     H_    0.322407 0.935882 0.816401 0.119958
H23   H     H_    0.823987 0.410741 0.315887 0.120585
H24   H     H_    0.176012 0.589257 0.684113 0.120585
H25   H     H_    0.496666 0.959413 0.190911 0.168513
H26   H     H_    0.503334 0.040587 0.809089 0.168514
H27   H     H_    0.002542 0.551320 0.309364 0.169166
H28   H     H_    0.997458 0.448678 0.690636 0.169165
N1    N     N_R   0.413742 0.135752 0.168129 0.214128
O21   O     O_R   0.406795 0.067770 0.248242 -0.447558
O22   O     O_R   0.437790 0.292890 0.168283 -0.399807
N2    N     N_R   0.586258 0.864248 0.831870 0.214128
O23   O     O_R   0.562210 0.707111 0.831716 -0.399807
O24   O     O_R   0.593204 0.932231 0.751758 -0.447558
N3    N     N_R   0.087920 0.391160 0.330546 0.215596
O25   O     O_R   0.066479 0.228881 0.328696 -0.401597
O26   O     O_R   0.093160 0.467061 0.251064 -0.453085
N4    N     N_R   0.912080 0.608840 0.669454 0.215597
O27   O     O_R   0.906840 0.532940 0.748936 -0.453085
O28   O     O_R   0.933521 0.771119 0.671303 -0.401597

loop_
_geom_bond_atom_site_label_1
_geom_bond_atom_site_label_2
_geom_bond_distance
_ccdc_geom_bond_type
O17   V3    1.738139 S    
C24   H3    1.084106 S    
C63   H15   1.084372 S    
C36   H24   1.084029 S    
O1    C5    1.319692 A    
N4    O27   1.301662 A    
O19   V1    1.758379 S    
O13   V1    2.034729 S    
O3    C7    1.332638 A    
C64   H16   1.084373 S    
C44   C48   1.429421 A    
C41   N2    1.438659 S    
O15   V3    2.019383 S    
C58   H26   1.076375 S    
O4    V2    1.985297 S    
N3    O25   1.301404 A    
C14   C25   1.399887 A    
C2    C31   1.461858 S    
O7    C3    1.336035 A    
C9    C18   1.411454 A    
O9    V1    1.979973 S    
C17   H6    1.083124 S    
C14   C18   1.397622 A    
N1    O22   1.301417 A    
O4    C8    1.332638 A    
C59   C63   1.385370 A    
N3    O26   1.301663 A    
C58   C62   1.385364 A    
C20   H7    1.083232 S    
C30   C38   1.394693 A    
O1    V3    2.020084 S    
C29   C37   1.394693 A    
C12   C23   1.404508 A    
O2    V4    2.020083 S    
C53   C58   1.410277 A    
O3    V1    1.985295 S    
C34   C38   1.387632 A    
C34   H22   1.084017 S    
C55   C60   1.410102 A    
C33   H21   1.084016 S    
C1    O15   1.337284 A    
C59   H27   1.076142 S    
C7    C9    1.490878 S    
C35   H23   1.084029 S    
O2    C6    1.319693 A    
C33   C37   1.387632 A    
O14   V2    2.034729 S    
C21   C25   1.410317 A    
C16   C20   1.396269 A    
O5    V1    2.045384 S    
C3    C30   1.458613 S    
C36   C40   1.387510 A    
C45   C53   1.433837 A    
O11   C7    1.323371 A    
C15   C28   1.398937 A    
C39   H20   1.083766 S    
O12   C8    1.323372 A    
C9    C22   1.406652 A    
C10   C17   1.411455 A    
O10   V2    1.979973 S    
C11   C24   1.404508 A    
C18   H5    1.083124 S    
C36   C52   1.399879 A    
N2    O24   1.301749 A    
C51   C63   1.391944 A    
C30   C42   1.410980 A    
C29   C41   1.410979 A    
O9    C5    1.335177 A    
C27   C28   1.417146 A    
O8    V4    2.013803 S    
C42   N1    1.438659 S    
O7    V3    2.013801 S    
C2    O16   1.337285 A    
C55   C56   1.431269 A    
O18   V4    1.738140 S    
C15   C19   1.396269 A    
C46   C50   1.420584 A    
C56   C59   1.410102 A    
C8    C10   1.490878 S    
O5    C1    1.337710 A    
C42   C46   1.428097 A    
C13   H9    1.084160 S    
C6    C12   1.485878 S    
C41   C45   1.428098 A    
O8    C4    1.336034 A    
C31   C43   1.412493 A    
C10   C21   1.406651 A    
C57   H25   1.076375 S    
C32   C40   1.395237 A    
C11   C20   1.410838 A    
C52   C64   1.391944 A    
C19   H8    1.083232 S    
C35   C51   1.399876 A    
O6    V2    2.045384 S    
C43   N4    1.438193 S    
C21   H2    1.083814 S    
C40   H19   1.083769 S    
C31   C39   1.395236 A    
C32   C44   1.412491 A    
C34   C50   1.400122 A    
C57   C61   1.385361 A    
C33   C49   1.400122 A    
N2    O23   1.301417 A    
C54   C57   1.410278 A    
O16   V4    2.019383 S    
C3    O13   1.332370 A    
N4    O28   1.301404 A    
C48   C52   1.420379 A    
C46   C54   1.433837 A    
C47   C51   1.420380 A    
O6    C2    1.337708 A    
C23   C27   1.409018 A    
O11   V3    2.043441 S    
C5    C11   1.485878 S    
O12   V4    2.043439 S    
C16   C27   1.398936 A    
C15   H11   1.084026 S    
C4    C29   1.458615 S    
C22   C26   1.410317 A    
C16   H12   1.084026 S    
O10   C6    1.335177 A    
O20   V2    1.758378 S    
C1    C32   1.461859 S    
C62   H14   1.084358 S    
N1    O21   1.301748 A    
C38   H17   1.083745 S    
C35   C39   1.387512 A    
C13   C26   1.399886 A    
C37   H18   1.083745 S    
C60   C64   1.385370 A    
C22   H1    1.083814 S    
C47   C55   1.434941 A    
C13   C17   1.397622 A    
C50   C62   1.391848 A    
C45   C49   1.420584 A    
C49   C61   1.391850 A    
C43   C47   1.429420 A    
C24   C28   1.409018 A    
C25   C26   1.416313 A    
C4    O14   1.332371 A    
C60   H28   1.076143 S    
C12   C19   1.410838 A    
C48   C56   1.434944 A    
C53   C54   1.430281 A    
C61   H13   1.084358 S    
C23   H4    1.084106 S    
C14   H10   1.084160 S    
C44   N3    1.438193 S    
