data_mof_unit_54299.cif
_audit_creation_date              2012-12-10T17:33:40-0500
_audit_creation_method            fapswitch 2.2
_symmetry_space_group_name_H-M    P1
_symmetry_Int_Tables_number       1
_space_group_crystal_system       triclinic
_cell_length_a                    11.686174
_cell_length_b                    12.366373
_cell_length_c                    13.217642
_cell_angle_alpha                 116.884241
_cell_angle_beta                  77.332876
_cell_angle_gamma                 100.948402
_cell_volume                      1653.17541309

loop_
_atom_site_label
_atom_site_type_symbol
_atom_type_description
_atom_site_fract_x
_atom_site_fract_y
_atom_site_fract_z
_atom_type_partial_charge
C1    C     C_R   0.510211 0.854863 0.286660 0.796579
C2    C     C_R   0.461001 0.227996 0.835252 -0.141948
C3    C     C_R   0.585206 0.814247 0.084278 -0.290097
C4    C     C_R   0.608169 0.734574 0.968047 0.460910
C5    C     C_R   0.567876 0.611378 0.932197 -0.170510
C6    C     C_R   0.500045 0.565578 0.010291 0.018621
C7    C     C_R   0.464932 0.649960 0.124478 0.077225
C8    C     C_R   0.464488 0.439045 0.978426 0.060955
C9    C     C_R   0.387506 0.399683 0.057972 0.048702
C10   C     C_R   0.340201 0.487501 0.163792 -0.224527
C11   C     C_R   0.377216 0.610140 0.195802 -0.161693
C12   C     C_R   0.715637 0.999566 0.499726 0.814746
C13   C     C_R   0.503543 0.350363 0.869382 -0.219204
C14   C     C_R   0.388833 0.189229 0.914411 -0.177801
C15   C     C_R   0.516498 0.772609 0.163446 -0.147237
C16   C     C_R   0.681787 0.336075 0.317292 0.316006
C17   C     C_R   0.336117 0.757035 0.639021 0.042134
C18   C     C_R   0.285617 0.651906 0.651400 -0.362306
C19   C     C_R   0.339110 0.543103 0.587296 0.482075
C20   C     C_R   0.452966 0.545279 0.521603 0.007481
C21   C     C_R   0.493309 0.651217 0.501781 0.203136
C22   C     C_R   0.523751 0.443878 0.467309 -0.069367
C23   C     C_R   0.483281 0.145077 0.713394 0.821969
C24   C     C_R   0.618303 0.440287 0.377847 -0.030361
C25   C     C_R   0.646947 0.540538 0.351304 -0.236819
C26   C     C_R   0.590210 0.645256 0.415778 -0.138595
C27   C     C_R   0.507651 0.348413 0.502071 0.570126
C28   C     C_R   0.649206 0.238155 0.346200 -0.011857
C29   C     C_R   0.284366 0.000393 0.500222 0.808062
C30   C     C_1   0.837353 0.999212 0.499797 -0.164272
C31   C     C_1   0.940001 0.999525 0.499822 0.015851
C32   C     C_1   0.060026 0.000211 0.499878 0.017882
C33   C     C_1   0.162668 0.000606 0.499988 -0.156224
C34   C     C_R   0.354880 0.273113 0.026726 0.409202
Cu1   Cu    Cu3+1 0.526510 0.098270 0.475420 0.961504
Cu2   Cu    Cu3+1 0.473490 0.901730 0.524580 0.937252
H1    H     H_    0.357311 0.093673 0.888856 0.176854
H2    H     H_    0.715454 0.541350 0.281795 0.159665
H3    H     H_    0.623394 0.718646 0.392561 0.200721
H4    H     H_    0.566070 0.373830 0.807604 0.175084
H5    H     H_    0.589186 0.554916 0.841746 0.172035
H6    H     H_    0.333245 0.673409 0.276232 0.171272
H7    H     H_    0.694288 0.156730 0.298195 0.170323
N1    N     N_R   0.566700 0.246290 0.438210 -0.270522
N2    N     N_R   0.434010 0.754320 0.561170 -0.204681
O1    O     O_R   0.533340 0.972510 0.318140 -0.578622
O2    O     O_R   0.488570 0.806530 0.359650 -0.606311
O3    O     O_R   0.685190 0.083000 0.479260 -0.567940
O4    O     O_R   0.640410 0.917020 0.520770 -0.584929
O5    O     O_R   0.511430 0.193470 0.640350 -0.567157
O6    O     O_R   0.466660 0.027490 0.681860 -0.583481
O7    O     O_R   0.359590 0.082980 0.479230 -0.583275
O8    O     O_R   0.314810 0.917000 0.520740 -0.586949
O9    O     O_3   0.774540 0.325142 0.229508 -0.719628
H8    H     H_    0.822385 0.405012 0.249470 0.327697
O10   O     O_3   0.445299 0.366720 0.608316 -0.695089
H9    H     H_    0.390908 0.292428 0.598226 0.376829
H10   H     H_    0.291286 0.838713 0.684636 0.152952
O11   O     O_3   0.274706 0.433373 0.575982 -0.721450
H11   H     H_    0.196945 0.448607 0.625681 0.327639
H12   H     H_    0.200956 0.653473 0.705331 0.154152
H13   H     H_    0.272435 0.463184 0.222448 0.161373
O12   O     O_3   0.287817 0.227690 0.101548 -0.719726
H14   H     H_    0.306778 0.281160 0.179644 0.325049
H15   H     H_    0.623254 0.908361 0.113084 0.160296
O13   O     O_3   0.673154 0.773419 0.887698 -0.718742
H16   H     H_    0.694978 0.862642 0.926252 0.328962

loop_
_geom_bond_atom_site_label_1
_geom_bond_atom_site_label_2
_ccdc_geom_bond_type
C14   C34   A    
C4    O13   S    
C21   C26   A    
C18   H12   S    
C16   C28   A    
C6    C7    A    
C1    C15   S    
C25   H2    S    
C9    C10   A    
C19   C20   A    
C28   H7    S    
C23   O6    A    
Cu1   Cu2   S    
C17   H10   S    
C12   O3    A    
C12   C30   S    
C32   C33   T    
Cu1   O5    S    
C7    C15   A    
C12   O4    A    
C3    C4    A    
C24   C25   A    
Cu2   N2    S    
C16   C24   A    
C10   H13   S    
O10   H9    S    
C14   H1    S    
C7    C11   A    
Cu1   N1    S    
Cu1   O7    S    
C30   C31   T    
C3    H15   S    
Cu2   O6    S    
C29   O8    A    
C11   H6    S    
Cu1   O3    S    
C34   O12   S    
C17   N2    A    
C9    C34   A    
O13   H16   S    
C21   N2    A    
C22   C27   A    
C5    C6    A    
C2    C14   A    
C22   C24   A    
C1    O1    A    
C10   C11   A    
O12   H14   S    
C8    C13   A    
C29   C33   S    
O11   H11   S    
C3    C15   A    
C20   C21   A    
Cu2   O2    S    
C17   C18   A    
C18   C19   A    
C16   O9    S    
C2    C23   S    
C2    C13   A    
C5    H5    S    
O9    H8    S    
C4    C5    A    
C23   O5    A    
C6    C8    A    
Cu2   O8    S    
C8    C9    A    
C19   O11   S    
C25   C26   A    
C27   O10   S    
Cu1   O1    S    
C27   N1    A    
C28   N1    A    
C1    O2    A    
Cu2   O4    S    
C31   C32   S    
C20   C22   A    
C26   H3    S    
C13   H4    S    
C29   O7    A    
