data_mof_unit_17424.cif
_audit_creation_date              2012-12-11T15:44:56-0500
_audit_creation_method            fapswitch 2.2
_symmetry_space_group_name_H-M    P1
_symmetry_Int_Tables_number       1
_space_group_crystal_system       triclinic
_cell_length_a                    6.930097
_cell_length_b                    17.298214
_cell_length_c                    16.800265
_cell_angle_alpha                 100.432358
_cell_angle_beta                  90.114868
_cell_angle_gamma                 89.345574
_cell_volume                      1980.56553325

loop_
_atom_site_label
_atom_site_type_symbol
_atom_type_description
_atom_site_fract_x
_atom_site_fract_y
_atom_site_fract_z
_atom_type_partial_charge
O1    O     O_R   0.494370 0.415690 0.413450 -0.540877
O2    O     O_R   0.819420 0.429360 0.578420 -0.529513
O3    O     O_R   0.994280 0.584310 0.586550 -0.524421
C1    C     C_R   0.650070 0.412873 0.603974 0.900935
O4    O     O_R   0.823790 0.406230 0.413570 -0.526088
O5    O     O_R   0.998670 0.561000 0.420530 -0.560285
C2    C     C_R   0.656689 0.384951 0.383157 0.817798
O6    O     O_R   0.489970 0.439000 0.579470 -0.525525
O7    O     O_3   0.662300 0.550810 0.502470 -0.373989
V1    V     V_3+5 0.935380 0.490570 0.499540 1.679048
O8    O     O_R   0.328650 0.570640 0.421580 -0.545001
C3    C     C_R   0.157645 0.583898 0.392502 0.709228
O9    O     O_R   0.324290 0.593770 0.586430 -0.507921
C4    C     C_R   0.154309 0.616144 0.615290 0.906750
V2    V     V_3+5 0.435930 0.509430 0.500460 1.681593
O10   O     O_3   0.159140 0.449190 0.497530 -0.361796
C5    C     C_R   0.261317 0.748054 0.691173 0.368019
C6    C     C_R   0.274760 0.800755 0.765166 0.333319
C7    C     C_R   0.128111 0.805397 0.824901 -0.374415
C8    C     C_R   0.005851 0.738517 0.820371 0.397622
C9    C     C_R   0.023808 0.675780 0.752773 0.326023
C10   C     C_R   0.141721 0.682296 0.685880 -0.362299
C11   C     C_R   0.134203 0.632005 0.326968 -0.058671
C12   C     C_R   0.132334 0.859690 0.168337 -0.171997
C13   C     C_R   0.345368 0.806576 0.263331 -0.222458
C14   C     C_R   0.288013 0.868850 0.225264 0.401633
C15   C     C_R   0.015174 0.792600 0.166215 -0.204556
C16   C     C_R   0.056638 0.736333 0.216409 0.151516
C17   C     C_R   0.226931 0.742526 0.263234 0.073305
C18   C     C_R   0.267497 0.689608 0.316390 -0.135535
C19   C     C_R   0.966313 0.624613 0.278201 -0.129619
C20   C     C_R   0.929594 0.675122 0.222789 -0.100647
H1    H     H_    0.396124 0.696948 0.353737 0.153861
H2    H     H_    0.860785 0.580215 0.283849 0.124632
H3    H     H_    0.468228 0.813401 0.303912 0.185566
H4    H     H_    0.797828 0.668262 0.187517 0.138904
H5    H     H_    0.889901 0.784918 0.127308 0.163006
C21   C     C_R   0.635983 0.362038 0.665998 -0.280183
C22   C     C_R   0.632492 0.142857 0.835928 -0.323733
C23   C     C_R   0.681890 0.152628 0.693995 -0.072467
C24   C     C_R   0.656755 0.107311 0.753819 0.280886
C25   C     C_R   0.644551 0.226736 0.855099 0.375384
C26   C     C_R   0.632666 0.271539 0.791515 -0.090157
C27   C     C_R   0.654679 0.234094 0.709836 -0.095888
C28   C     C_R   0.650421 0.278744 0.646068 0.370748
C29   C     C_R   0.592690 0.397223 0.746188 0.327540
C30   C     C_R   0.596245 0.353055 0.807755 -0.027516
H6    H     H_    0.719423 0.122709 0.634110 0.245190
H7    H     H_    0.562835 0.383397 0.868145 0.239718
C31   C     C_R   0.795569 0.258394 0.301111 0.403288
C32   C     C_R   0.765090 0.188289 0.244688 0.330022
C33   C     C_R   0.616869 0.185325 0.184954 -0.405856
C34   C     C_R   0.482604 0.249766 0.193159 0.465488
C35   C     C_R   0.493960 0.310609 0.260798 -0.208224
H8    H     H_    0.384504 0.356613 0.269251 0.192000
C36   C     C_R   0.649911 0.316911 0.314361 -0.242273
O11   O     O_R   0.774880 0.061150 0.920630 -0.529178
O12   O     O_R   0.440980 0.093710 0.086500 -0.487505
O13   O     O_R   0.266190 0.938890 0.079390 -0.541423
C37   C     C_R   0.608623 0.117039 0.115387 0.853590
O14   O     O_R   0.445420 0.070740 0.921670 -0.532561
O15   O     O_R   0.270660 0.915760 0.913380 -0.526801
C38   C     C_R   0.615731 0.091238 0.899048 0.904812
O16   O     O_R   0.770400 0.084270 0.086640 -0.526305
O17   O     O_3   0.602590 0.949210 0.997500 -0.382585
V3    V     V_3+5 0.329470 0.009420 0.000470 1.731627
O18   O     O_R   0.940650 0.906250 0.913470 -0.491975
C39   C     C_R   0.112123 0.878466 0.889905 0.836527
O19   O     O_R   0.936210 0.929220 0.078300 -0.551953
C40   C     C_R   0.107537 0.914096 0.106809 0.800944
V4    V     V_3+5 0.828930 0.990510 0.999490 1.695480
O20   O     O_3   0.105680 0.050790 0.002500 -0.353546
S1    S     S_3+6 0.393374 0.766900 0.605980 0.111334
O21   O     O_2   0.594624 0.733977 0.607997 -0.283669
O22   O     O_2   0.296593 0.730743 0.528180 -0.374319
O23   O     O_3   0.403597 0.864098 0.608760 -0.392510
H9    H     H_    0.443492 0.869847 0.553561 0.412340
S2    S     S_3+6 0.638849 0.230217 0.542540 0.054701
O24   O     O_2   0.549266 0.282230 0.490131 -0.344517
O25   O     O_2   0.839825 0.207432 0.513176 -0.268294
O26   O     O_3   0.502418 0.149133 0.533008 -0.453930
H10   H     H_    0.517446 0.123027 0.475752 0.423906
Cl1   Cl    Cl    0.514251 0.495910 0.771287 -0.460171
S3    S     S_3+6 0.642920 0.005412 0.721556 0.113794
O27   O     O_2   0.440248 0.983500 0.738702 -0.275668
O28   O     O_2   0.682409 0.982470 0.632382 -0.266978
O29   O     O_3   0.801968 0.958718 0.772286 -0.461787
H11   H     H_    0.929897 0.978077 0.759130 0.333474
S4    S     S_3+6 0.720258 0.276425 0.952124 0.039801
O30   O     O_2   0.887589 0.327839 0.940527 -0.287619
O31   O     O_2   0.559474 0.327934 0.992321 -0.273017
O32   O     O_3   0.792942 0.214768 0.012420 -0.516813
H12   H     H_    0.820284 0.249401 0.064746 0.387227
Cl2   Cl    Cl    0.023320 0.274498 0.349891 -0.441116
S5    S     S_3+6 0.905183 0.103764 0.255096 0.151435
O33   O     O_2   0.057329 0.090247 0.190730 -0.303069
O34   O     O_2   0.000242 0.114831 0.336592 -0.184971
O35   O     O_3   0.769581 0.023394 0.247959 -0.444390
H13   H     H_    0.758050 0.001058 0.190013 0.331943
S6    S     S_3+6 0.295254 0.261203 0.123376 0.099804
O36   O     O_2   0.111713 0.231938 0.153444 -0.324389
O37   O     O_2   0.268987 0.347212 0.121231 -0.282843
O38   O     O_3   0.336327 0.213560 0.028560 -0.469811
H14   H     H_    0.219063 0.223048 0.997754 0.386931
Cl3   Cl    Cl    0.505759 0.838369 0.791363 -0.379482
S7    S     S_3+6 0.857355 0.720876 0.902249 0.114079
O39   O     O_2   0.661491 0.695906 0.869088 -0.254863
O40   O     O_2   0.946392 0.654178 0.936253 -0.256795
O41   O     O_3   0.827968 0.796467 0.978947 -0.519101
H15   H     H_    0.701195 0.788063 0.002995 0.343244
Cl4   Cl    Cl    0.915894 0.583944 0.754878 -0.427778
S8    S     S_3+6 0.350231 0.961100 0.281615 0.102450
O42   O     O_2   0.188039 0.985679 0.339955 -0.221811
O43   O     O_2   0.529767 0.953989 0.330251 -0.279799
O44   O     O_3   0.382572 0.028936 0.223827 -0.490688
H16   H     H_    0.396679 0.078904 0.262792 0.393475

loop_
_geom_bond_atom_site_label_1
_geom_bond_atom_site_label_2
_ccdc_geom_bond_type
O29   H11   S    
S1    O21   D    
S5    O33   D    
C12   C15   A    
C1    O6    A    
S8    O43   D    
O26   H10   S    
S5    O35   S    
C12   C40   S    
C30   H7    S    
C34   C35   A    
C33   C34   A    
C3    C11   S    
C20   H4    S    
C16   C17   A    
C12   C14   A    
O13   V3    S    
O5    C3    A    
S2    O25   D    
S7    O39   D    
O12   C37   A    
O44   H16   S    
O14   C38   A    
C6    C7    A    
O16   V4    S    
O19   V4    S    
O32   H12   S    
C21   C28   A    
C33   C37   S    
C35   H8    S    
O8    V2    S    
S3    O27   D    
O12   V3    S    
V3    O20   S    
C7    C8    A    
S3    O29   S    
C28   S2    S    
O1    V2    S    
S4    O31   D    
O7    V1    S    
O9    C4    A    
C5    S1    S    
S1    O22   D    
C2    C36   S    
O14   V3    S    
S8    O42   D    
C9    Cl4   S    
O11   C38   A    
C22   C25   A    
C8    S7    S    
C34   S6    S    
C13   C17   A    
C35   C36   A    
O15   V3    S    
C32   C33   A    
C11   C18   A    
C16   C20   A    
O23   H9    S    
C22   C24   A    
O4    C2    A    
S2    O24   D    
C31   Cl2   S    
C31   C32   A    
C13   C14   A    
O17   V4    S    
C24   S3    S    
S6    O38   S    
C31   C36   A    
O18   C39   A    
C11   C19   A    
O2    C1    A    
C26   C27   A    
C17   C18   A    
C19   C20   A    
S6    O37   D    
C5    C6    A    
C19   H2    S    
C7    C39   S    
O11   V4    S    
S4    O32   S    
O3    C4    A    
C13   H3    S    
C23   C24   A    
C1    C21   S    
O35   H13   S    
O6    V2    S    
O9    V2    S    
S1    O23   S    
C25   C26   A    
O2    V1    S    
C14   S8    S    
O38   H14   S    
C27   C28   A    
C23   H6    S    
C29   C30   A    
C18   H1    S    
O1    C2    A    
S3    O28   D    
O5    V1    S    
O8    C3    A    
S5    O34   D    
C22   C38   S    
C5    C10   A    
O15   C39   A    
C37   O16   A    
C25   S4    S    
C4    C10   S    
O7    V2    S    
C6    Cl3   S    
O4    V1    S    
O3    V1    S    
V1    O10   S    
O41   H15   S    
S2    O26   S    
S7    O40   D    
C15   H5    S    
S6    O36   D    
O18   V4    S    
O19   C40   A    
C21   C29   A    
O13   C40   A    
C29   Cl1   S    
C23   C27   A    
V4    O20   S    
C8    C9    A    
O17   V3    S    
C15   C16   A    
S4    O30   D    
C9    C10   A    
C26   C30   A    
S8    O44   S    
V2    O10   S    
C32   S5    S    
S7    O41   S    
