data_mof_unit_10843.cif
_audit_creation_date              2012-12-11T14:13:14-0500
_audit_creation_method            fapswitch 2.2
_symmetry_space_group_name_H-M    P1
_symmetry_Int_Tables_number       1
_space_group_crystal_system       triclinic
_cell_length_a                    11.685603
_cell_length_b                    18.371568
_cell_length_c                    10.188389
_cell_angle_alpha                 90.258017
_cell_angle_beta                  111.270676
_cell_angle_gamma                 89.850446
_cell_volume                      2038.24708407

loop_
_atom_site_label
_atom_site_type_symbol
_atom_type_description
_atom_site_fract_x
_atom_site_fract_y
_atom_site_fract_z
_atom_type_partial_charge
C1    C     C_R   0.071771 0.648110 0.139468 0.528416
C2    C     C_R   0.869367 0.361384 0.842195 0.570887
C3    C     C_R   0.927008 0.147200 0.858606 0.551867
C4    C     C_R   0.079684 0.855985 0.142762 0.557549
C5    C     C_R   0.404559 0.464477 0.507136 -0.033184
C6    C     C_R   0.612857 0.541670 0.509192 -0.031906
C7    C     C_R   0.595904 0.964652 0.491413 -0.028054
C8    C     C_R   0.387400 0.042504 0.487760 -0.048003
C9    C     C_2   0.407167 0.925423 0.913537 0.308397
C10   C     C_2   0.633126 0.058398 0.007056 0.233918
C11   C     C_2   0.588547 0.423888 0.089984 0.294798
C12   C     C_2   0.359479 0.557924 0.994222 0.229243
C13   C     C_2   0.523531 0.944160 0.937681 -0.072780
C14   C     C_2   0.552425 0.018581 0.904856 -0.130059
C15   C     C_2   0.471006 0.443619 0.057896 -0.081103
C16   C     C_2   0.441385 0.517688 0.093660 -0.140181
C17   C     C_2   0.050951 0.932809 0.129616 -0.091352
C18   C     C_2   0.983584 0.076851 0.874860 -0.091717
C19   C     C_2   0.889022 0.439745 0.858671 -0.089108
C20   C     C_2   0.035881 0.574500 0.119245 -0.073211
C21   C     C_2   0.016427 0.965299 0.004498 0.216079
C22   C     C_2   0.030990 0.044849 0.999939 0.205252
C23   C     C_2   0.950182 0.468929 0.985717 0.221734
C24   C     C_2   0.947909 0.548195 0.004209 0.195066
C25   C     C_R   0.472275 0.647904 0.443134 0.531168
C26   C     C_R   0.529931 0.353065 0.557836 0.547739
C27   C     C_R   0.527939 0.147929 0.556686 0.534662
C28   C     C_R   0.470036 0.853296 0.442139 0.554259
C29   C     C_R   0.350488 0.637549 0.010401 0.564823
C30   C     C_R   0.622721 0.355361 0.037047 0.557275
C31   C     C_R   0.648003 0.137144 0.990542 0.563355
C32   C     C_R   0.376330 0.855770 0.964017 0.569275
C33   C     C_R   0.505678 0.426326 0.494299 -0.013593
C34   C     C_R   0.509128 0.578167 0.517772 -0.046088
C35   C     C_R   0.494789 0.926975 0.505188 -0.012994
C36   C     C_R   0.491193 0.078595 0.480084 -0.059354
C37   C     C_R   0.292897 0.429358 0.491074 -0.085837
C38   C     C_R   0.721125 0.580101 0.523684 -0.094492
C39   C     C_R   0.707018 0.928993 0.505886 -0.073235
C40   C     C_R   0.278871 0.081274 0.471078 -0.081595
C41   C     C_R   0.202161 0.465171 0.524931 -0.170553
C42   C     C_R   0.822030 0.545006 0.511923 -0.172149
C43   C     C_R   0.797555 0.964273 0.471739 -0.168260
C44   C     C_R   0.179235 0.047244 0.487277 -0.141081
C45   C     C_R   0.220113 0.536459 0.574044 -0.011842
C46   C     C_R   0.814322 0.472215 0.474059 -0.061194
C47   C     C_R   0.782054 0.036237 0.428178 -0.015090
C48   C     C_R   0.188442 0.975316 0.530114 -0.065615
C49   C     C_R   0.330728 0.572079 0.594878 0.357187
C50   C     C_R   0.704951 0.432426 0.450574 0.367119
C51   C     C_R   0.671804 0.072322 0.407194 0.369426
C52   C     C_R   0.297175 0.934870 0.551923 0.361488
C53   C     C_R   0.417178 0.538591 0.543925 -0.016083
C54   C     C_R   0.607446 0.465991 0.483528 0.015057
C55   C     C_R   0.583817 0.038807 0.455260 -0.014515
C56   C     C_R   0.393484 0.967266 0.516103 0.017332
Cr1   Cr    Cr6+3 0.187610 0.750000 0.979860 0.961395
Cr2   Cr    Cr6+3 0.812390 0.250000 0.020140 1.010620
Cr3   Cr    Cr6+3 0.245810 0.750000 0.341640 1.014795
Cr4   Cr    Cr6+3 0.754190 0.250000 0.658360 1.009984
Cr5   Cr    Cr6+3 0.485760 0.750000 0.219910 0.991538
Cr6   Cr    Cr6+3 0.514240 0.250000 0.780090 0.985173
H1    H     H_    0.118575 0.436935 0.516092 0.083712
H2    H     H_    0.905007 0.575322 0.525963 0.098970
H3    H     H_    0.878871 0.935000 0.474849 0.077944
H4    H     H_    0.096199 0.077804 0.472716 0.115397
H5    H     H_    0.149508 0.563359 0.601914 0.134688
H6    H     H_    0.892248 0.449407 0.455639 0.077156
H7    H     H_    0.853324 0.062870 0.401687 0.132316
H8    H     H_    0.111677 0.953524 0.551896 0.077356
H9    H     H_    0.275286 0.374035 0.451830 0.137049
H10   H     H_    0.729350 0.637728 0.546613 0.124669
H11   H     H_    0.724364 0.873533 0.543589 0.138029
H12   H     H_    0.270225 0.138318 0.443424 0.130704
H13   H     H_    0.496199 0.043807 0.806188 0.153893
H14   H     H_    0.597571 0.908242 0.998618 0.123961
H15   H     H_    0.499600 0.543067 0.191603 0.153638
H16   H     H_    0.397971 0.409071 0.989907 0.137418
H17   H     H_    0.962324 0.046475 0.778153 0.100042
H18   H     H_    0.084373 0.964646 0.226093 0.106859
H19   H     H_    0.109952 0.539989 0.184695 0.109892
H20   H     H_    0.840666 0.474185 0.769505 0.081947
O1    O     O_R   0.267710 0.668200 0.902110 -0.483554
O2    O     O_R   0.732290 0.331800 0.097890 -0.538608
O3    O     O_R   0.732290 0.168200 0.097890 -0.476956
O4    O     O_R   0.267710 0.831800 0.902110 -0.537553
O5    O     O_R   0.099480 0.674460 0.038850 -0.544378
O6    O     O_R   0.900520 0.325540 0.961150 -0.448624
O7    O     O_R   0.900520 0.174460 0.961150 -0.467084
O8    O     O_R   0.099480 0.825540 0.038850 -0.482122
O9    O     O_R   0.116720 0.669210 0.267660 -0.520799
O10   O     O_R   0.883280 0.330790 0.732340 -0.556507
O11   O     O_R   0.883280 0.169210 0.732340 -0.532064
O12   O     O_R   0.116720 0.830790 0.267660 -0.563187
O13   O     O_R   0.366710 0.675440 0.427590 -0.453988
O14   O     O_R   0.633290 0.324560 0.572410 -0.478193
O15   O     O_R   0.633290 0.175440 0.572410 -0.451862
O16   O     O_R   0.366710 0.824560 0.427590 -0.460838
O17   O     O_R   0.534870 0.669390 0.371760 -0.538109
O18   O     O_R   0.465130 0.330610 0.628240 -0.520785
O19   O     O_R   0.465130 0.169390 0.628240 -0.534644
O20   O     O_R   0.534870 0.830610 0.371760 -0.524585
O21   O     O_R   0.453080 0.674480 0.075160 -0.542528
O22   O     O_R   0.546920 0.325520 0.924840 -0.525902
O23   O     O_R   0.546920 0.174480 0.924840 -0.543701
O24   O     O_R   0.453080 0.825520 0.075160 -0.520961
O25   O     O_3   0.306390 0.750000 0.180470 -0.279834
O26   O     O_3   0.693610 0.250000 0.819530 -0.308400
O27   O     O_3   0.346680 0.640534 0.658539 -0.550595
C57   C     C_3   0.465558 0.649153 0.762058 -0.056632
H21   H     H_    0.499600 0.598903 0.824824 0.123615
H22   H     H_    0.462182 0.693577 0.834121 0.174048
H23   H     H_    0.532318 0.668434 0.716067 0.092587
O28   O     O_3   0.679585 0.367502 0.372812 -0.546817
C58   C     C_3   0.783978 0.323910 0.390038 -0.042437
H24   H     H_    0.836744 0.311262 0.500131 0.150248
H25   H     H_    0.845561 0.348589 0.342464 0.094169
H26   H     H_    0.752436 0.271132 0.336316 0.186116
O29   O     O_3   0.657751 0.141013 0.345326 -0.543894
C59   C     C_3   0.538528 0.152009 0.244075 -0.067429
H27   H     H_    0.499374 0.101795 0.183605 0.107271
H28   H     H_    0.543540 0.194496 0.169929 0.174279
H29   H     H_    0.475195 0.175070 0.291850 0.083398
O30   O     O_3   0.322769 0.870273 0.629448 -0.552898
C60   C     C_3   0.218228 0.826873 0.610921 -0.048814
H30   H     H_    0.164647 0.815372 0.500444 0.148673
H31   H     H_    0.157215 0.851494 0.659778 0.095859
H32   H     H_    0.249473 0.773572 0.661962 0.184453
O31   O     O_3   0.695967 0.026030 0.134942 -0.572613
C61   C     C_3   0.807112 0.998630 0.131788 -0.132804
H33   H     H_    0.873593 0.043779 0.149062 0.191698
H34   H     H_    0.795027 0.968559 0.032474 0.141180
H35   H     H_    0.845426 0.959230 0.218796 0.122497
O32   O     O_3   0.312422 0.971413 0.837816 -0.576809
C62   C     C_3   0.290685 0.021760 0.930601 -0.156443
H36   H     H_    0.366975 0.061088 0.972305 0.122723
H37   H     H_    0.273293 0.994123 0.018569 0.103745
H38   H     H_    0.208761 0.054009 0.869809 0.131255
O33   O     O_3   0.288851 0.525223 0.868466 -0.570391
C63   C     C_3   0.176121 0.504300 0.877203 -0.129721
H39   H     H_    0.118629 0.552898 0.874027 0.137021
H40   H     H_    0.189309 0.471080 0.972719 0.151621
H41   H     H_    0.125721 0.470003 0.784440 0.134038
O34   O     O_3   0.681590 0.468790 0.173242 -0.589574
C64   C     C_3   0.706188 0.522097 0.088742 -0.116956
H42   H     H_    0.637442 0.566531 0.062756 0.138736
H43   H     H_    0.710883 0.498274 0.990183 0.146564
H44   H     H_    0.795490 0.547297 0.151131 0.170070
O35   O     O_3   0.070100 0.085468 0.124096 -0.588358
C65   C     C_3   0.176251 0.125720 0.135157 -0.124685
H45   H     H_    0.258912 0.090616 0.177591 0.098239
H46   H     H_    0.185728 0.171441 0.209608 0.136367
H47   H     H_    0.172861 0.150846 0.034638 0.101193
O36   O     O_3   0.944859 0.926678 0.884788 -0.593171
C66   C     C_3   0.013495 0.908983 0.800090 -0.094833
H48   H     H_    0.979739 0.939632 0.701680 0.088155
H49   H     H_    0.001065 0.850345 0.772075 0.137885
H50   H     H_    0.112301 0.921053 0.849555 0.184007
O37   O     O_3   0.840103 0.586132 0.930483 -0.633544
C67   C     C_3   0.858733 0.646132 0.855613 -0.112554
H51   H     H_    0.769599 0.659621 0.772913 0.109767
H52   H     H_    0.926275 0.634672 0.804203 0.120351
H53   H     H_    0.882083 0.695323 0.923462 0.158019
O38   O     O_3   0.030429 0.425825 0.092388 -0.580785
C68   C     C_3   0.987643 0.419837 0.205022 -0.099527
H54   H     H_    0.887023 0.417792 0.169064 0.187560
H55   H     H_    0.017501 0.466078 0.278894 0.088082
H56   H     H_    0.025064 0.369147 0.263812 0.124275

loop_
_geom_bond_atom_site_label_1
_geom_bond_atom_site_label_2
_ccdc_geom_bond_type
C1    O5    A    
C62   H38   S    
C68   H54   S    
C31   O3    A    
C5    C37   A    
C12   C29   S    
C66   H49   S    
C44   H4    S    
C63   H41   S    
C7    C55   A    
C6    C34   A    
C8    C56   A    
C64   H42   S    
C24   O37   S    
C62   H36   S    
Cr6   O23   S    
C50   C54   A    
C5    C53   A    
O38   C68   S    
Cr5   O21   S    
C63   H40   S    
C38   C42   A    
C42   C46   A    
C15   H16   S    
Cr6   O26   S    
C15   C16   S    
Cr1   O4    S    
C29   O21   A    
C3    C18   S    
C16   H15   S    
C8    C36   A    
C9    C13   D    
C57   H21   S    
C47   H7    S    
C20   H19   S    
C9    C32   S    
C11   C15   D    
C10   C31   S    
C25   O17   A    
C20   C24   D    
C28   C35   S    
C18   H17   S    
C58   H25   S    
C65   H47   S    
C5    C33   A    
C45   H5    S    
C60   H32   S    
C51   O29   S    
C21   O36   S    
C6    C38   A    
C2    O6    A    
C61   H34   S    
Cr3   O12   S    
C19   H20   S    
C11   O34   S    
C40   C44   A    
C4    O8    A    
Cr4   O26   S    
C59   H29   S    
C43   H3    S    
C25   C34   S    
Cr6   O19   S    
Cr4   O11   S    
C35   C56   A    
C22   O35   S    
C1    O9    A    
C32   O24   A    
C21   C22   S    
C66   H50   S    
C37   C41   A    
C31   O23   A    
Cr5   O17   S    
Cr3   O13   S    
C6    C54   A    
C64   H43   S    
C59   H28   S    
O28   C58   S    
Cr6   O22   S    
Cr4   O10   S    
C26   O14   A    
O33   C63   S    
C38   H10   S    
Cr2   O26   S    
Cr1   O8    S    
C67   H53   S    
C12   C16   D    
C63   H39   S    
C11   C30   S    
Cr4   O15   S    
C10   C14   D    
C39   C43   A    
C27   O19   A    
C17   H18   S    
Cr3   O25   S    
Cr1   O5    S    
C50   O28   S    
C67   H52   S    
C19   C23   D    
C46   H6    S    
C65   H46   S    
Cr2   O2    S    
C26   C33   S    
O37   C67   S    
C13   H14   S    
C45   C49   A    
C23   C24   S    
C58   H26   S    
C32   O4    A    
Cr1   O1    S    
C12   O33   S    
C3    O11   A    
Cr3   O9    S    
C2    O10   A    
Cr5   O24   S    
C57   H23   S    
O36   C66   S    
Cr6   O18   S    
C4    C17   S    
Cr4   O14   S    
Cr1   O25   S    
C25   O13   A    
C68   H56   S    
C37   H9    S    
C60   H30   S    
C4    O12   A    
C61   H35   S    
C41   H1    S    
C30   O22   A    
Cr2   O3    S    
C42   H2    S    
C64   H44   S    
C59   H27   S    
C49   O27   S    
C23   O38   S    
C28   O16   A    
C33   C54   A    
C62   H37   S    
C27   O15   A    
C1    C20   S    
C7    C39   A    
C2    C19   S    
C18   C22   D    
C7    C35   A    
C48   H8    S    
O34   C64   S    
Cr2   O6    S    
C47   C51   A    
O29   C59   S    
C29   O1    A    
O32   C62   S    
C27   C36   S    
C46   C50   A    
C3    O7    A    
C14   H13   S    
Cr5   O20   S    
O31   C61   S    
C10   O31   S    
C36   C55   A    
O35   C65   S    
C9    O32   S    
C52   O30   S    
C58   H24   S    
C67   H51   S    
C52   C56   A    
C49   C53   A    
C40   H12   S    
C61   H33   S    
C51   C55   A    
C39   H11   S    
C30   O2    A    
Cr5   O25   S    
Cr2   O7    S    
C57   H22   S    
C28   O20   A    
C48   C52   A    
C34   C53   A    
C68   H55   S    
O27   C57   S    
C66   H48   S    
C60   H31   S    
Cr3   O16   S    
C41   C45   A    
C65   H45   S    
C8    C40   A    
C13   C14   S    
C43   C47   A    
C44   C48   A    
C26   O18   A    
O30   C60   S    
C17   C21   D    
