data_mof_unit_33375.cif
_audit_creation_date              2012-12-10T17:01:30-0500
_audit_creation_method            fapswitch 2.2
_symmetry_space_group_name_H-M    P1
_symmetry_Int_Tables_number       1
_space_group_crystal_system       triclinic
_cell_length_a                    12.812683
_cell_length_b                    10.617859
_cell_length_c                    10.019944
_cell_angle_alpha                 92.162945
_cell_angle_beta                  97.862286
_cell_angle_gamma                 89.938921
_cell_volume                      1349.35828674

loop_
_atom_site_label
_atom_site_type_symbol
_atom_type_description
_atom_site_fract_x
_atom_site_fract_y
_atom_site_fract_z
_atom_type_partial_charge
C1    C     C_R   0.495818 0.262236 0.496395 0.898257
C2    C     C_2   0.492541 0.127416 0.484683 0.251074
C3    C     C_2   0.555019 0.578812 0.937551 -0.097834
C4    C     C_R   0.298101 0.497935 0.472333 0.944387
C5    C     C_2   0.559759 0.573745 0.088234 -0.077378
C6    C     C_R   0.512847 0.736921 0.505089 0.977788
C7    C     C_R   0.701672 0.500267 0.527204 0.886278
C8    C     C_R   0.813726 0.505725 0.544673 -0.040937
C9    C     C_R   0.185413 0.491527 0.452419 -0.201315
C10   C     C_R   0.024050 0.384096 0.357580 0.126265
C11   C     C_R   0.132902 0.399134 0.362573 0.087879
C12   C     C_R   0.026035 0.546859 0.540393 0.095923
C13   C     C_R   0.131616 0.571280 0.533831 0.064924
C14   C     C_3   0.336141 0.116300 0.579705 -0.177358
C15   C     C_3   0.539658 0.958067 0.184381 -0.209627
C16   C     C_3   0.758129 0.068719 0.441600 -0.249393
C17   C     C_R   0.971725 0.454452 0.450322 0.031438
C18   C     C_R   0.865166 0.436084 0.453988 -0.192927
C19   C     C_R   0.867276 0.590846 0.638427 -0.206833
C20   C     C_R   0.973260 0.612141 0.635870 -0.126277
C21   C     C_2   0.568287 0.932969 0.417090 0.420812
C22   C     C_2   0.551135 0.865032 0.522529 -0.128578
C23   C     C_2   0.576844 0.070140 0.442868 0.321480
H1    H     H_    0.819490 0.369826 0.385195 0.195300
H2    H     H_    0.269777 0.051708 0.589034 0.217842
H3    H     H_    0.601849 0.029814 0.178972 0.195043
H4    H     H_    0.462783 0.003769 0.194825 0.185003
H5    H     H_    0.529616 0.902557 0.087394 0.198209
H6    H     H_    0.761508 0.999883 0.356025 0.198947
H7    H     H_    0.766467 0.020195 0.539015 0.171794
H8    H     H_    0.826533 0.133224 0.445711 0.206474
H9    H     H_    0.601422 0.650924 0.898859 0.175855
H10   H     H_    0.461697 0.428646 0.888210 0.172187
H11   H     H_    0.614867 0.636570 0.149951 0.192904
H12   H     H_    0.444836 0.446781 0.090295 0.176434
H13   H     H_    0.826119 0.645151 0.708593 0.163371
H14   H     H_    0.012317 0.679919 0.708959 0.180064
H15   H     H_    0.301623 0.205579 0.539764 0.145156
H16   H     H_    0.380612 0.132567 0.682287 0.178059
I1    I     I_    0.940633 0.253341 0.211322 -0.315832
I2    I     I_    0.217921 0.275996 0.240262 -0.283189
I3    I     I_    0.209612 0.734404 0.638007 -0.311529
I4    I     I_    0.585971 0.936769 0.728447 -0.405521
N1    N     N_2   0.501130 0.501330 0.852280 -0.179159
N2    N     N_2   0.501160 0.501360 0.147950 -0.184423
O1    O     O_R   0.499980 0.319060 0.613040 -0.633583
O2    O     O_3   0.569833 0.875248 0.289582 -0.622384
O3    O     O_3   0.664973 0.140607 0.422021 -0.638512
O4    O     O_R   0.500020 0.319100 0.386900 -0.590317
O5    O     O_R   0.346340 0.499960 0.594380 -0.597555
O6    O     O_R   0.346380 0.500000 0.368250 -0.589664
O7    O     O_R   0.499980 0.680900 0.613100 -0.590699
O8    O     O_R   0.500020 0.680940 0.386960 -0.561301
O9    O     O_R   0.653620 0.500000 0.631750 -0.613828
O10   O     O_R   0.653660 0.500040 0.405620 -0.610209
O11   O     O_3   0.400056 0.058822 0.490896 -0.633440
Zn1   Zn    Zn3+2 0.499980 0.499970 0.650990 0.990064
Zn2   Zn    Zn3+2 0.500020 0.500030 0.349010 1.020391

loop_
_geom_bond_atom_site_label_1
_geom_bond_atom_site_label_2
_ccdc_geom_bond_type
C12   C17   A    
C14   O11   S    
O8    Zn2   S    
C15   O2    S    
C14   H15   S    
C15   H4    S    
C19   C20   A    
C7    O10   A    
N1    Zn1   S    
C5    H11   S    
C16   O3    S    
C17   C18   A    
C16   H6    S    
C7    C8    S    
O1    Zn1   S    
O6    Zn2   S    
C2    O11   S    
C21   C22   D    
C16   H8    S    
C20   H14   S    
C9    C11   A    
C12   C20   A    
C15   H5    S    
C5    N2    D    
C18   H1    S    
C6    O8    A    
C13   I3    S    
C11   I2    S    
C19   H13   S    
C21   C23   S    
C14   H2    S    
C3    H9    S    
C3    N1    D    
C1    O1    A    
C8    C19   A    
C10   C11   A    
C4    O6    A    
C16   H7    S    
N2    Zn2   S    
H12   N2    S    
C3    C5    S    
O5    Zn1   S    
C12   C13   A    
C10   I1    S    
C1    C2    S    
O7    Zn1   S    
O10   Zn2   S    
C4    O5    A    
C2    C23   D    
C9    C13   A    
C15   H3    S    
C23   O3    S    
C10   C17   A    
C7    O9    A    
C6    O7    A    
C4    C9    S    
H10   N1    S    
C1    O4    A    
C8    C18   A    
O4    Zn2   S    
C22   I4    S    
C14   H16   S    
C21   O2    S    
O9    Zn1   S    
C6    C22   S    
