data_mof_unit_41415.cif
_audit_creation_date              2012-12-10T16:56:32-0500
_audit_creation_method            fapswitch 2.2
_symmetry_space_group_name_H-M    P1
_symmetry_Int_Tables_number       1
_space_group_crystal_system       triclinic
_cell_length_a                    10.777157
_cell_length_b                    10.89917
_cell_length_c                    9.742759
_cell_angle_alpha                 90.578313
_cell_angle_beta                  90.7558
_cell_angle_gamma                 90.533376
_cell_volume                      1144.1957251

loop_
_atom_site_label
_atom_site_type_symbol
_atom_type_description
_atom_site_fract_x
_atom_site_fract_y
_atom_site_fract_z
_atom_type_partial_charge
C1    C     C_R   0.507596 0.265366 0.499000 0.923499
C2    C     C_3   0.878253 0.491934 0.503203 0.024463
C3    C     C_3   0.927345 0.550136 0.367675 -0.422839
C4    C     C_3   0.927030 0.354392 0.518523 -0.121890
C5    C     C_2   0.564406 0.928932 0.401886 0.349982
C6    C     C_2   0.501881 0.867545 0.498680 -0.341619
C7    C     C_2   0.546878 0.062482 0.385946 -0.059462
C8    C     C_2   0.531480 0.133816 0.499077 -0.342241
C9    C     C_2   0.431057 0.428434 0.921146 0.113237
C10   C     C_2   0.417770 0.441604 0.073612 0.112452
C11   C     C_R   0.260221 0.501076 0.499596 0.788000
C12   C     C_R   0.501833 0.734682 0.500362 0.884534
C13   C     C_R   0.739958 0.497439 0.500917 0.801993
C14   C     C_3   0.073194 0.588802 0.609862 -0.407448
C15   C     C_3   0.931403 0.574975 0.621874 -0.341635
C16   C     C_3   0.068723 0.540302 0.360793 -0.441801
C17   C     C_3   0.075642 0.360459 0.534068 0.252290
C18   C     C_3   0.122388 0.495955 0.500797 0.055676
Cu1   Cu    Cu3+1 0.500030 0.500020 0.638630 1.006600
Cu2   Cu    Cu3+1 0.499970 0.499980 0.361370 1.046214
H1    H     H_    0.096217 0.684227 0.578421 0.167214
H2    H     H_    0.093753 0.479572 0.274043 0.172158
H3    H     H_    0.885250 0.507861 0.273676 0.192575
H4    H     H_    0.443739 0.913970 0.572606 0.104105
H5    H     H_    0.540772 0.093570 0.600185 0.140350
H6    H     H_    0.377478 0.356536 0.869230 0.077462
H7    H     H_    0.117785 0.578238 0.712322 0.225189
H8    H     H_    0.583483 0.519644 0.112350 0.266207
H9    H     H_    0.908825 0.537388 0.723952 0.253231
H10   H     H_    0.888905 0.667634 0.617715 0.157904
H11   H     H_    0.108137 0.632149 0.335934 0.189659
H12   H     H_    0.901183 0.648747 0.364354 0.209142
N1    N     N_2   0.498630 0.498660 0.846910 -0.019108
N2    N     N_2   0.498590 0.498630 0.153040 -0.259750
O1    O     O_R   0.500020 0.321960 0.617040 -0.599799
O2    O     O_R   0.499980 0.321920 0.382900 -0.486336
O3    O     O_R   0.317710 0.500000 0.617070 -0.604251
O4    O     O_R   0.317670 0.499960 0.382930 -0.573586
O5    O     O_R   0.500020 0.678080 0.617100 -0.606322
O6    O     O_R   0.499980 0.678040 0.382960 -0.524131
O7    O     O_R   0.682330 0.500040 0.617070 -0.551188
O8    O     O_R   0.682290 0.500000 0.382930 -0.588183
C19   C     C_2   0.888036 0.281495 0.388595 0.366269
H13   H     H_    0.920921 0.308693 0.288745 0.104365
O9    O     O_2   0.821251 0.190416 0.393099 -0.536885
O10   O     O_3   0.641617 0.865053 0.314318 -0.706463
H14   H     H_    0.690890 0.924624 0.260959 0.339916
C20   C     C_2   0.543644 0.107761 0.242575 0.509639
H15   H     H_    0.485030 0.060907 0.166916 0.058748
O11   O     O_2   0.613227 0.189552 0.205315 -0.492909
O12   O     O_3   0.542400 0.602066 0.906581 -0.658145
H16   H     H_    0.595478 0.640965 0.837144 0.374069
C21   C     C_2   0.307509 0.379883 0.128310 0.371857
H17   H     H_    0.216480 0.402991 0.088013 0.050392
O13   O     O_2   0.317613 0.294751 0.207507 -0.527818
O14   O     O_3   0.131338 0.273486 0.446013 -0.766077
H18   H     H_    0.124339 0.300147 0.349912 0.346852
C22   C     C_2   0.123273 0.324097 0.677174 0.378429
H19   H     H_    0.197997 0.258292 0.685952 0.105619
O15   O     O_2   0.082579 0.368735 0.782689 -0.586421
C23   C     C_2   0.871137 0.284043 0.639832 0.464572
H20   H     H_    0.887672 0.186139 0.647339 0.099269
O16   O     O_2   0.813400 0.333414 0.731537 -0.517823

loop_
_geom_bond_atom_site_label_1
_geom_bond_atom_site_label_2
_ccdc_geom_bond_type
C12   O6    A    
C11   O4    A    
C2    C4    S    
C19   H13   S    
C5    C7    S    
C11   C18   S    
C2    C15   S    
C4    C19   S    
C14   H7    S    
N1    O12   S    
C1    C8    S    
Cu2   O4    S    
C5    O10   S    
C14   C18   S    
Cu2   O8    S    
Cu1   Cu2   S    
C17   C22   S    
C6    H4    S    
C7    C20   S    
C23   H20   S    
C12   O5    A    
C20   O11   D    
C17   C18   S    
H8    N2    S    
C7    C8    D    
C10   N2    D    
Cu1   O1    S    
C21   H17   S    
C16   H11   S    
C9    N1    D    
C8    H5    S    
C19   O9    D    
C17   O14   S    
C13   O8    A    
C5    C6    D    
Cu1   O5    S    
C4    C17   S    
C14   H1    S    
C13   O7    A    
C20   H15   S    
C9    H6    S    
C15   H9    S    
C2    C3    S    
C21   O13   D    
C6    C12   S    
C3    H12   S    
Cu2   O6    S    
C22   O15   D    
O12   H16   S    
Cu2   O2    S    
O14   H18   S    
C1    O1    A    
C15   H10   S    
C16   C18   S    
C9    C10   S    
Cu2   N2    S    
C11   O3    A    
C2    C13   S    
C14   C15   S    
C10   C21   S    
C16   H2    S    
Cu1   O3    S    
C22   H19   S    
O10   H14   S    
C3    H3    S    
C4    C23   S    
C23   O16   D    
C3    C16   S    
Cu1   O7    S    
C1    O2    A    
Cu1   N1    S    
