data_mof_unit_28635.cif
_audit_creation_date              2012-10-26T19:09:31-0400
_audit_creation_method            fapswitch 2.2
_symmetry_space_group_name_H-M    P1
_symmetry_Int_Tables_number       1
_space_group_crystal_system       triclinic
_cell_length_a                    11.004611
_cell_length_b                    9.467314
_cell_length_c                    19.333545
_cell_angle_alpha                 90.048393
_cell_angle_beta                  89.494849
_cell_angle_gamma                 90.156926
_cell_volume                      2014.16161879

loop_
_atom_site_label
_atom_site_type_symbol
_atom_type_description
_atom_site_fract_x
_atom_site_fract_y
_atom_site_fract_z
_atom_type_partial_charge
C1    C     C_R   0.262053 0.497957 0.504732 0.543591
C2    C     C_R   0.061496 0.615050 0.520282 -0.015493
C3    C     C_R   0.873396 0.491336 0.496869 -0.003752
C4    C     C_R   0.128064 0.489222 0.511438 -0.002798
C5    C     C_R   0.545077 0.074519 0.444632 -0.014521
C6    C     C_R   0.456109 0.925394 0.555635 -0.016910
C7    C     C_R   0.455736 0.074408 0.555593 -0.015583
C8    C     C_R   0.544634 0.925510 0.444552 -0.013038
C9    C     C_R   0.524907 0.622682 0.254327 -0.134237
C10   C     C_R   0.509802 0.372115 0.744759 -0.136352
C11   C     C_R   0.483506 0.625805 0.745711 -0.136050
C12   C     C_R   0.738568 0.498591 0.497497 0.543644
C13   C     C_R   0.474233 0.374097 0.255537 -0.135855
C14   C     C_R   0.524494 0.623438 0.181937 -0.010799
C15   C     C_R   0.509628 0.369315 0.817070 -0.012037
C16   C     C_R   0.482253 0.626611 0.818172 -0.010902
C17   C     C_R   0.473410 0.370737 0.183207 -0.011940
C18   C     C_R   0.498799 0.496404 0.145661 0.049668
C19   C     C_R   0.495787 0.497364 0.854162 0.060300
C20   C     C_R   0.499791 0.499017 0.291293 -0.018628
C21   C     C_R   0.497420 0.499470 0.708819 -0.018943
C22   C     C_3   0.130356 0.213059 0.504585 -0.215822
C23   C     C_R   0.496840 0.496124 0.929861 0.323051
C24   C     C_3   0.158867 0.171372 0.428948 -0.280622
C25   C     C_3   0.209231 0.022356 0.422406 -0.448433
C26   C     C_3   0.895512 0.756267 0.465023 -0.242737
C27   C     C_3   0.865451 0.738982 0.388006 -0.287093
C28   C     C_3   0.853368 0.882598 0.352715 -0.467322
C29   C     C_3   0.868194 0.214340 0.504514 -0.215580
C30   C     C_3   0.832221 0.180448 0.580054 -0.276893
C31   C     C_3   0.786133 0.029840 0.588907 -0.450122
C32   C     C_3   0.110548 0.740458 0.561725 -0.247509
C33   C     C_3   0.155357 0.695807 0.633578 -0.287974
C34   C     C_R   0.498354 0.495257 0.069567 0.320933
C35   C     C_3   0.173557 0.823731 0.680597 -0.462416
C36   C     C_3   0.549551 0.762607 0.145765 -0.249416
C37   C     C_3   0.686590 0.791356 0.141561 -0.283801
C38   C     C_3   0.714311 0.922933 0.098797 -0.451610
C39   C     C_3   0.528627 0.228885 0.852839 -0.259439
C40   C     C_3   0.661077 0.212302 0.875321 -0.290057
C41   C     C_3   0.682369 0.067545 0.907370 -0.458665
C42   C     C_3   0.467389 0.766828 0.855287 -0.259719
C43   C     C_3   0.339848 0.782665 0.887013 -0.291017
C44   C     C_3   0.319692 0.932154 0.914123 -0.460908
C45   C     C_R   0.500075 0.499862 0.367290 0.543734
C46   C     C_3   0.446781 0.230373 0.148627 -0.250372
C47   C     C_3   0.309680 0.200599 0.149015 -0.284247
C48   C     C_3   0.279928 0.065975 0.109195 -0.451665
C49   C     C_R   0.499280 0.499992 0.632749 0.538054
C50   C     C_R   0.064367 0.356811 0.506220 -0.017583
C51   C     C_R   0.941673 0.618646 0.496762 -0.017918
C52   C     C_R   0.935651 0.357665 0.501652 -0.017100
Cu1   Cu    Cu3+1 0.500000 0.640660 0.500000 0.909461
Cu2   Cu    Cu3+1 0.500000 0.359340 0.500000 0.895998
H1    H     H_    0.545141 0.719630 0.281861 0.115476
H2    H     H_    0.209852 0.207535 0.538805 0.163755
H3    H     H_    0.080020 0.128160 0.531633 0.110304
H4    H     H_    0.942553 0.937836 0.351536 0.150542
H5    H     H_    0.822574 0.867755 0.298767 0.133364
H6    H     H_    0.786669 0.949793 0.380672 0.132529
H7    H     H_    0.939082 0.679029 0.361456 0.160512
H8    H     H_    0.779191 0.679420 0.381843 0.176146
H9    H     H_    0.817603 0.800236 0.494079 0.172240
H10   H     H_    0.965853 0.839433 0.467700 0.123199
H11   H     H_    0.717082 0.004612 0.549509 0.176147
H12   H     H_    0.521821 0.274257 0.716401 0.117289
H13   H     H_    0.863031 0.955273 0.584205 0.129252
H14   H     H_    0.744593 0.017097 0.641090 0.138584
H15   H     H_    0.912294 0.194709 0.614070 0.143918
H16   H     H_    0.761022 0.254209 0.598790 0.197520
H17   H     H_    0.792619 0.205227 0.467656 0.163437
H18   H     H_    0.919578 0.125758 0.481715 0.114392
H19   H     H_    0.232619 0.903759 0.655175 0.131053
H20   H     H_    0.084556 0.872898 0.693277 0.150460
H21   H     H_    0.216914 0.789719 0.729346 0.141281
H22   H     H_    0.087778 0.623982 0.658381 0.159426
H23   H     H_    0.472817 0.724330 0.717953 0.116029
H24   H     H_    0.242847 0.638521 0.628964 0.177954
H25   H     H_    0.182733 0.797774 0.532957 0.166541
H26   H     H_    0.037347 0.818383 0.571221 0.126403
H27   H     H_    0.683461 0.907076 0.044870 0.160345
H28   H     H_    0.668113 0.016523 0.121391 0.143755
H29   H     H_    0.813805 0.942737 0.098003 0.142424
H30   H     H_    0.722704 0.806325 0.194484 0.144740
H31   H     H_    0.734170 0.699893 0.117684 0.193551
H32   H     H_    0.509177 0.764764 0.093351 0.163905
H33   H     H_    0.504960 0.849610 0.175061 0.120161
H34   H     H_    0.454412 0.278017 0.284016 0.119772
H35   H     H_    0.617081 0.049249 0.950557 0.148392
H36   H     H_    0.671152 0.983749 0.867741 0.147193
H37   H     H_    0.776237 0.061899 0.927760 0.146807
H38   H     H_    0.722615 0.225003 0.829802 0.160545
H39   H     H_    0.684489 0.294504 0.913955 0.193293
H40   H     H_    0.466491 0.218816 0.898128 0.163692
H41   H     H_    0.505297 0.140657 0.817248 0.124385
H42   H     H_    0.391699 0.960753 0.951542 0.148100
H43   H     H_    0.320892 0.008660 0.870625 0.147779
H44   H     H_    0.229934 0.938431 0.940615 0.146502
H45   H     H_    0.286024 0.007130 0.457864 0.180097
H46   H     H_    0.269880 0.758705 0.847644 0.159304
H47   H     H_    0.327478 0.707984 0.930646 0.194766
H48   H     H_    0.537132 0.777507 0.896130 0.161317
H49   H     H_    0.483355 0.855350 0.818463 0.126250
H50   H     H_    0.309601 0.076723 0.054463 0.159330
H51   H     H_    0.325817 0.973824 0.132781 0.144535
H52   H     H_    0.180291 0.047251 0.110547 0.142219
H53   H     H_    0.276508 0.189086 0.203218 0.149311
H54   H     H_    0.260618 0.290240 0.124977 0.191796
H55   H     H_    0.483286 0.226947 0.094952 0.163738
H56   H     H_    0.137774 0.944010 0.434635 0.135660
H57   H     H_    0.494050 0.144606 0.176918 0.119879
H58   H     H_    0.582019 0.130419 0.400467 0.104940
H59   H     H_    0.420899 0.869210 0.600035 0.111213
H60   H     H_    0.419112 0.130153 0.599859 0.102579
H61   H     H_    0.580414 0.869476 0.400201 0.111975
H62   H     H_    0.241330 0.003804 0.368557 0.138466
H63   H     H_    0.074973 0.177793 0.397517 0.141508
H64   H     H_    0.225491 0.246205 0.405813 0.194195
N1    N     N_R   0.500000 0.852070 0.500000 -0.225855
N2    N     N_R   0.500000 0.147930 0.500000 -0.221531
N3    N     N_R   0.398819 0.450628 0.034794 -0.251668
N4    N     N_R   0.596299 0.540985 0.964463 -0.255368
N5    N     N_R   0.398263 0.450367 0.966009 -0.256897
N6    N     N_R   0.597185 0.539946 0.033228 -0.251202
O1    O     O_R   0.319640 0.618740 0.500000 -0.498742
O2    O     O_R   0.680360 0.381260 0.500000 -0.512160
O3    O     O_R   0.680360 0.618740 0.500000 -0.502262
O4    O     O_R   0.319640 0.381260 0.500000 -0.512978
O5    O     O_R   0.499980 0.618820 0.400140 -0.507379
O6    O     O_R   0.500020 0.381180 0.599860 -0.514008
O7    O     O_R   0.500020 0.618820 0.599860 -0.509410
O8    O     O_R   0.499980 0.381180 0.400140 -0.511267

loop_
_geom_bond_atom_site_label_1
_geom_bond_atom_site_label_2
_ccdc_geom_bond_type
C41   H35   S    
C24   C25   S    
C35   H20   S    
C45   O5    A    
Cu2   N2    S    
C38   H29   S    
C14   C18   A    
C19   C23   S    
C1    O4    A    
C40   H39   S    
C43   C44   S    
C42   H49   S    
C22   H3    S    
C21   C49   S    
C6    H59   S    
C12   O3    A    
Cu1   Cu2   S    
C31   H13   S    
C49   O7    A    
C35   H21   S    
C26   C27   S    
C29   C30   S    
C43   H46   S    
C7    H60   S    
C37   H31   S    
C36   C37   S    
C1    O1    A    
C10   C15   A    
C14   C36   S    
C30   C31   S    
C33   H24   S    
C12   O2    A    
C48   H50   S    
C2    C32   S    
C44   H43   S    
C26   H10   S    
C3    C12   S    
Cu1   O3    S    
C8    H61   S    
C15   C19   A    
C44   H44   S    
C25   H45   S    
C48   H52   S    
C48   H51   S    
C50   C52   A    
C37   H30   S    
C9    H1    S    
C11   H23   S    
C20   C45   S    
C22   C50   S    
C29   H18   S    
C10   H12   S    
C41   H36   S    
C36   H33   S    
C46   H57   S    
C38   H28   S    
C42   H48   S    
C30   H16   S    
C23   N4    A    
C28   H6    S    
C10   C21   A    
C31   H14   S    
Cu2   O6    S    
C5    N2    A    
C17   C46   S    
C25   H62   S    
C39   C40   S    
C9    C14   A    
C3    C51   A    
C22   H2    S    
C36   H32   S    
Cu2   O4    S    
C11   C21   A    
C4    C50   A    
C27   H7    S    
C2    C4    A    
C26   H9    S    
C43   H47   S    
C39   H40   S    
C37   C38   S    
C44   H42   S    
C27   H8    S    
C32   H26   S    
Cu2   O2    S    
C11   C16   A    
C9    C20   A    
C47   C48   S    
C39   H41   S    
C17   C18   A    
C24   H63   S    
C40   H38   S    
C18   C34   S    
C15   C39   S    
Cu1   O1    S    
C25   H56   S    
Cu1   O7    S    
C40   C41   S    
C41   H37   S    
C34   N3    A    
C47   H53   S    
C38   H27   S    
C22   C24   S    
Cu1   O5    S    
C42   C43   S    
N4    N6    A    
C16   C42   S    
C6    N1    A    
C30   H15   S    
C28   H5    S    
C31   H11   S    
C46   C47   S    
C35   H19   S    
C34   N6    A    
C13   C20   A    
C7    N2    A    
C5    C8    A    
C23   N5    A    
C3    C52   A    
Cu1   N1    S    
C6    C7    A    
C5    H58   S    
C28   H4    S    
Cu2   O8    S    
C49   O6    A    
C24   H64   S    
C13   C17   A    
C1    C4    S    
C32   C33   S    
C26   C51   S    
C32   H25   S    
C16   C19   A    
C13   H34   S    
C33   C35   S    
N3    N5    A    
C2    C51   A    
C33   H22   S    
C45   O8    A    
C47   H54   S    
C46   H55   S    
C27   C28   S    
C8    N1    A    
C29   H17   S    
C29   C52   S    
