data_mof_unit_16534.cif
_audit_creation_date              2013-03-05T15:50:13-0500
_audit_creation_method            fapswitch 2.2
_symmetry_space_group_name_H-M    P1
_symmetry_Int_Tables_number       1
_space_group_crystal_system       triclinic
_cell_length_a                    18.449124
_cell_length_b                    25.829454
_cell_length_c                    18.193253
_cell_angle_alpha                 90.034029
_cell_angle_beta                  90.270765
_cell_angle_gamma                 90.539778
_cell_volume                      8669.16210323

loop_
_atom_site_label
_atom_site_type_symbol
_atom_site_description
_atom_site_fract_x
_atom_site_fract_y
_atom_site_fract_z
_atom_type_partial_charge
Zn1   Zn    Zn3+2 0.249990 0.293780 0.913250 1.002366
Zn2   Zn    Zn3+2 0.249990 0.706220 0.086750 0.968476
Zn3   Zn    Zn3+2 0.249990 0.706220 0.913250 0.990375
Zn4   Zn    Zn3+2 0.249990 0.293780 0.086750 0.966457
Zn5   Zn    Zn3+2 0.749990 0.793780 0.413250 1.002820
Zn6   Zn    Zn3+2 0.749990 0.206220 0.586750 1.000812
Zn7   Zn    Zn3+2 0.749990 0.206220 0.413250 1.008874
Zn8   Zn    Zn3+2 0.749990 0.793780 0.586750 0.994660
Zn9   Zn    Zn3+2 0.336760 0.206240 0.000000 0.967485
Zn10  Zn    Zn3+2 0.336760 0.793760 0.000000 0.984158
Zn11  Zn    Zn3+2 0.836760 0.706240 0.500000 0.982882
Zn12  Zn    Zn3+2 0.836760 0.293760 0.500000 0.948845
Zn13  Zn    Zn3+2 0.163250 0.206230 0.000000 0.985421
Zn14  Zn    Zn3+2 0.163250 0.793770 0.000000 0.989198
Zn15  Zn    Zn3+2 0.663250 0.706230 0.500000 0.966250
Zn16  Zn    Zn3+2 0.663250 0.293770 0.500000 0.977890
O1    O     O_3   0.249990 0.250010 0.000000 -0.489903
O2    O     O_3   0.249990 0.749990 0.000000 -0.495791
O3    O     O_3   0.749990 0.750010 0.500000 -0.491194
O4    O     O_3   0.749990 0.249990 0.500000 -0.497518
O5    O     O_R   0.335430 0.280650 0.146160 -0.625239
O6    O     O_R   0.335430 0.719350 0.853840 -0.653281
O7    O     O_R   0.335430 0.719350 0.146160 -0.640063
O8    O     O_R   0.335430 0.280650 0.853840 -0.650250
O9    O     O_R   0.835430 0.780650 0.646160 -0.652833
O10   O     O_R   0.835430 0.219350 0.353840 -0.606869
O11   O     O_R   0.835430 0.219350 0.646160 -0.634010
O12   O     O_R   0.835430 0.780650 0.353840 -0.652634
O13   O     O_R   0.164550 0.280640 0.853840 -0.655438
O14   O     O_R   0.164550 0.719360 0.146160 -0.648759
O15   O     O_R   0.164550 0.719360 0.853840 -0.654933
O16   O     O_R   0.164550 0.280640 0.146160 -0.656551
O17   O     O_R   0.664550 0.780640 0.353840 -0.626051
O18   O     O_R   0.664550 0.219360 0.646160 -0.621592
O19   O     O_R   0.664550 0.219360 0.353840 -0.616175
O20   O     O_R   0.664550 0.780640 0.646160 -0.648985
O21   O     O_R   0.396160 0.219380 0.914560 -0.633913
O22   O     O_R   0.396160 0.780620 0.085440 -0.613804
O23   O     O_R   0.396160 0.780620 0.914560 -0.627226
O24   O     O_R   0.396160 0.219380 0.085440 -0.656723
O25   O     O_R   0.896160 0.719380 0.414560 -0.647954
O26   O     O_R   0.896160 0.280620 0.585440 -0.648210
O27   O     O_R   0.896160 0.280620 0.414560 -0.653094
O28   O     O_R   0.896160 0.719380 0.585440 -0.633295
O29   O     O_R   0.103840 0.219370 0.085450 -0.614255
O30   O     O_R   0.103840 0.780630 0.914550 -0.611958
O31   O     O_R   0.103840 0.780630 0.085450 -0.638364
O32   O     O_R   0.103840 0.219370 0.914550 -0.637760
O33   O     O_R   0.603840 0.719370 0.585450 -0.634617
O34   O     O_R   0.603840 0.280630 0.414550 -0.644798
O35   O     O_R   0.603840 0.280630 0.585450 -0.642291
O36   O     O_R   0.603840 0.719370 0.414550 -0.671400
O37   O     O_R   0.310730 0.133160 0.000000 -0.648393
O38   O     O_R   0.310730 0.866840 0.000000 -0.667526
O39   O     O_R   0.810730 0.633160 0.500000 -0.639263
O40   O     O_R   0.810730 0.366840 0.500000 -0.665002
O41   O     O_R   0.249970 0.366860 0.060720 -0.669455
O42   O     O_R   0.249970 0.633140 0.939280 -0.622543
O43   O     O_R   0.249970 0.633140 0.060720 -0.644385
O44   O     O_R   0.249970 0.366860 0.939280 -0.608524
O45   O     O_R   0.749970 0.866860 0.560720 -0.634123
O46   O     O_R   0.749970 0.133140 0.439280 -0.675744
O47   O     O_R   0.749970 0.133140 0.560720 -0.626217
O48   O     O_R   0.749970 0.866860 0.439280 -0.642786
O49   O     O_R   0.189290 0.133150 0.000000 -0.654808
O50   O     O_R   0.189290 0.866850 0.000000 -0.615480
O51   O     O_R   0.689290 0.633150 0.500000 -0.635510
O52   O     O_R   0.689290 0.366850 0.500000 -0.627787
C1    C     C_R   0.389370 0.249854 0.139884 0.774810
C2    C     C_R   0.393375 0.746212 0.863127 0.809956
C3    C     C_R   0.389885 0.750152 0.139677 0.846695
C4    C     C_R   0.386749 0.248233 0.856657 0.811106
C5    C     C_R   0.891455 0.753034 0.638609 0.806104
C6    C     C_R   0.890138 0.249291 0.359538 0.809612
C7    C     C_R   0.885210 0.254996 0.644690 0.792121
C8    C     C_R   0.888960 0.750255 0.358507 0.816840
C9    C     C_R   0.105632 0.254479 0.863818 0.781725
C10   C     C_R   0.110225 0.749163 0.139661 0.764713
C11   C     C_R   0.110929 0.749989 0.859206 0.800200
C12   C     C_R   0.110109 0.250748 0.139417 0.780223
C13   C     C_R   0.610369 0.749242 0.359631 0.796172
C14   C     C_R   0.609974 0.249317 0.640107 0.801388
C15   C     C_R   0.610836 0.250600 0.359323 0.794210
C16   C     C_R   0.607067 0.753613 0.637330 0.800664
C17   C     C_R   0.248776 0.109311 0.006852 0.784723
C18   C     C_R   0.250955 0.890943 0.001500 0.782303
C19   C     C_R   0.749686 0.609434 0.497136 0.750873
C20   C     C_R   0.750488 0.390575 0.498047 0.751108
C21   C     C_R   0.250142 0.391252 0.000190 0.790944
C22   C     C_R   0.250985 0.608678 0.000442 0.772152
C23   C     C_R   0.750115 0.891234 0.500139 0.828961
C24   C     C_R   0.749824 0.108692 0.500079 0.827817
C25   C     C_3   0.267326 0.469335 0.081048 -0.253924
C26   C     C_3   0.175575 0.530095 0.972882 -0.234575
C27   C     C_3   0.259971 0.529351 0.083273 -0.189166
C28   C     C_3   0.172957 0.469591 0.978810 -0.197837
C29   C     C_3   0.678438 0.968670 0.464418 -0.257463
C30   C     C_3   0.818114 0.030807 0.459231 -0.268610
C31   C     C_3   0.680442 0.029275 0.458479 -0.191369
C32   C     C_3   0.815825 0.970289 0.453784 -0.216925
H1    H     H_    0.224967 0.453661 0.118704 0.098386
H2    H     H_    0.133388 0.544860 0.011029 0.044369
H3    H     H_    0.208435 0.537930 0.112414 0.081080
H4    H     H_    0.136055 0.460076 0.025344 0.061719
H5    H     H_    0.676065 0.953584 0.407028 0.115744
H6    H     H_    0.814989 0.045131 0.401830 0.095984
H7    H     H_    0.688069 0.038845 0.399289 0.103675
H8    H     H_    0.803466 0.960475 0.395381 0.149155
H9    H     H_    0.361320 0.452792 0.957019 0.218596
H10   H     H_    0.313349 0.547163 0.899071 0.254496
H11   H     H_    0.366844 0.540190 0.979024 0.218845
H12   H     H_    0.293240 0.460510 0.889534 0.248942
H13   H     H_    0.716842 0.952802 0.617360 0.217284
H14   H     H_    0.792214 0.047335 0.614339 0.216179
H15   H     H_    0.696773 0.039157 0.607822 0.228759
H16   H     H_    0.811389 0.960908 0.603871 0.237180
C33   C     C_3   0.307548 0.470540 0.947139 -0.309317
C34   C     C_3   0.313506 0.529722 0.954471 -0.358863
C35   C     C_3   0.757615 0.970548 0.580087 -0.312369
C36   C     C_3   0.748541 0.029442 0.580292 -0.328094
C37   C     C_3   0.249798 0.448817 0.001194 0.069297
C38   C     C_3   0.250754 0.550975 0.002263 0.088646
C39   C     C_3   0.750658 0.948825 0.500328 0.076824
C40   C     C_3   0.749120 0.050958 0.500237 0.091997
C41   C     C_R   0.092939 0.346892 0.761220 -0.107382
C42   C     C_R   0.039976 0.653076 0.183028 -0.160172
C43   C     C_R   0.152011 0.752622 0.703213 -0.117064
C44   C     C_R   0.033052 0.344158 0.172994 -0.144736
C45   C     C_R   0.521581 0.839077 0.338319 -0.149713
C46   C     C_R   0.553703 0.150076 0.697481 -0.116052
C47   C     C_R   0.510944 0.165260 0.346289 -0.144007
C48   C     C_R   0.609912 0.827047 0.766947 -0.091481
C49   C     C_R   0.091687 0.385297 0.707669 -0.060080
C50   C     C_R   0.009323 0.606579 0.206544 -0.155902
C51   C     C_R   0.170846 0.752199 0.629149 -0.123602
C52   C     C_R   0.001352 0.390494 0.193879 -0.158628
C53   C     C_R   0.476530 0.881738 0.330733 -0.147483
C54   C     C_R   0.528797 0.103381 0.726609 -0.112260
C55   C     C_R   0.460896 0.124587 0.342501 -0.146857
C56   C     C_R   0.627946 0.846615 0.836086 -0.132662
C57   C     C_R   0.420549 0.880808 0.279461 -0.143446
C58   C     C_R   0.474086 0.103042 0.778616 -0.148039
C59   C     C_R   0.405400 0.125527 0.290728 -0.142173
C60   C     C_R   0.595909 0.825783 0.898277 -0.143082
C61   C     C_R   0.035213 0.387119 0.657710 -0.185084
C62   C     C_R   0.958070 0.606534 0.261997 -0.126924
C63   C     C_R   0.117319 0.753780 0.575383 -0.121609
C64   C     C_R   0.953730 0.391324 0.252565 -0.109258
C65   C     C_R   0.410575 0.837820 0.234124 -0.158754
C66   C     C_R   0.443157 0.149358 0.800929 -0.143628
C67   C     C_R   0.400110 0.166888 0.242007 -0.151311
C68   C     C_R   0.541194 0.788696 0.890857 -0.097354
C69   C     C_R   0.980404 0.350042 0.660387 -0.137431
C70   C     C_R   0.935740 0.653091 0.292733 -0.081350
C71   C     C_R   0.044701 0.756455 0.595388 -0.125882
C72   C     C_R   0.935289 0.345508 0.288625 -0.067301
C73   C     C_R   0.456573 0.794328 0.239747 0.061617
C74   C     C_R   0.468476 0.197504 0.773414 0.088776
C75   C     C_R   0.451009 0.208391 0.243918 0.082867
C76   C     C_R   0.517815 0.771367 0.820664 0.072503
C77   C     C_R   0.983443 0.307696 0.710053 0.098095
C78   C     C_R   0.965847 0.701177 0.269881 0.075094
C79   C     C_R   0.023946 0.755638 0.670264 0.083783
C80   C     C_R   0.965664 0.297488 0.267842 0.056119
C81   C     C_R   0.040215 0.306329 0.763136 0.046300
C82   C     C_R   0.020717 0.700826 0.215902 0.076999
C83   C     C_R   0.078282 0.752699 0.725301 0.085800
C84   C     C_R   0.018001 0.297553 0.211440 0.076725
C85   C     C_R   0.511807 0.794548 0.293618 0.085492
C86   C     C_R   0.525859 0.198182 0.721788 0.076582
C87   C     C_R   0.506568 0.207850 0.297361 0.069872
C88   C     C_R   0.559307 0.785644 0.758831 0.059534
C89   C     C_R   0.447850 0.750507 0.193584 -0.131248
C90   C     C_R   0.433329 0.244345 0.790870 -0.202324
C91   C     C_R   0.447177 0.250157 0.193714 -0.144355
C92   C     C_R   0.454874 0.740053 0.811067 -0.212324
C93   C     C_R   0.927710 0.269527 0.712482 -0.216717
C94   C     C_R   0.939522 0.749424 0.295943 -0.182075
C95   C     C_R   0.950957 0.762300 0.691527 -0.197443
C96   C     C_R   0.943631 0.249473 0.299728 -0.146083
C97   C     C_R   0.491670 0.706226 0.202211 0.056884
C98   C     C_R   0.447287 0.288995 0.746973 -0.036090
C99   C     C_R   0.498121 0.291646 0.195494 -0.023240
C100  C     C_R   0.444145 0.713151 0.743239 -0.027410
C101  C     C_R   0.911841 0.248115 0.782471 -0.008293
C102  C     C_R   0.965790 0.796885 0.264178 -0.036123
C103  C     C_R   0.935019 0.774224 0.766248 -0.027580
C104  C     C_R   0.977330 0.202292 0.277090 0.085858
C105  C     C_R   0.969275 0.244182 0.835004 0.046935
C106  C     C_R   0.031805 0.795366 0.226097 0.032078
C107  C     C_R   0.983669 0.757130 0.819904 0.085074
C108  C     C_R   0.041101 0.205889 0.235457 0.043378
C109  C     C_R   0.535513 0.703086 0.265539 0.002701
C110  C     C_R   0.515060 0.292864 0.712833 0.031460
C111  C     C_R   0.546348 0.294362 0.256077 0.075270
C112  C     C_R   0.483153 0.730038 0.681217 0.091568
C113  C     C_R   0.038753 0.267026 0.818973 -0.185319
C114  C     C_R   0.054849 0.748068 0.196245 -0.141613
C115  C     C_R   0.056959 0.750781 0.800431 -0.129045
C116  C     C_R   0.055467 0.251502 0.196135 -0.117864
C117  C     C_R   0.552243 0.749074 0.305164 -0.138620
C118  C     C_R   0.552030 0.246787 0.695041 -0.108113
C119  C     C_R   0.554107 0.250821 0.303096 -0.128222
C120  C     C_R   0.547215 0.759469 0.691013 -0.184443
C121  C     C_R   0.491129 0.663533 0.152146 0.067934
C122  C     C_R   0.397546 0.330141 0.734942 0.036505
C123  C     C_R   0.501780 0.331554 0.140579 -0.046101
C124  C     C_R   0.396431 0.669865 0.733674 -0.016258
C125  C     C_R   0.839542 0.235708 0.804770 0.029821
C126  C     C_R   0.931361 0.846236 0.269195 0.003242
C127  C     C_R   0.873581 0.802396 0.790911 -0.019264
C128  C     C_R   0.953904 0.151478 0.297382 -0.036319
C129  C     C_R   0.514490 0.615113 0.176410 -0.260496
C130  C     C_R   0.424323 0.379208 0.715475 -0.230257
C131  C     C_R   0.542030 0.376664 0.154597 -0.080842
C132  C     C_R   0.371536 0.657037 0.662739 -0.102330
C133  C     C_R   0.828211 0.208484 0.870356 -0.221145
C134  C     C_R   0.973081 0.891665 0.261438 -0.260004
C135  C     C_R   0.848796 0.794991 0.863105 -0.106062
C136  C     C_R   0.004663 0.111519 0.301778 -0.334511
C137  C     C_R   0.884336 0.201941 0.920579 -0.046439
C138  C     C_R   0.044418 0.889465 0.237004 0.011893
C139  C     C_R   0.889457 0.765982 0.913134 0.000385
C140  C     C_R   0.073981 0.118241 0.272830 0.061862
C141  C     C_R   0.544868 0.609477 0.246051 0.026174
C142  C     C_R   0.497302 0.386191 0.698266 -0.009499
C143  C     C_R   0.582195 0.382060 0.219045 -0.000637
C144  C     C_R   0.398950 0.682707 0.601147 -0.022486
C145  C     C_R   0.952913 0.222360 0.904626 -0.121326
C146  C     C_R   0.072629 0.841558 0.216826 -0.108887
C147  C     C_R   0.958121 0.749027 0.892265 -0.234788
C148  C     C_R   0.090053 0.164043 0.235119 -0.122063
C149  C     C_R   0.559964 0.653756 0.287907 -0.131200
C150  C     C_R   0.542112 0.342725 0.694637 -0.088535
C151  C     C_R   0.585978 0.340666 0.268168 -0.209541
C152  C     C_R   0.456387 0.717661 0.610449 -0.225190
H17   H     H_    0.132673 0.353365 0.803277 0.224401
H18   H     H_    0.078256 0.650726 0.138483 0.139364
H19   H     H_    0.196456 0.754102 0.741819 0.162778
H20   H     H_    0.069819 0.345611 0.126936 0.127719
H21   H     H_    0.562410 0.840946 0.381069 0.119758
H22   H     H_    0.593215 0.146989 0.654418 0.195894
H23   H     H_    0.552128 0.163218 0.388682 0.138519
H24   H     H_    0.633538 0.846750 0.720462 0.193109
H25   H     H_    0.132598 0.415631 0.707692 0.211269
H26   H     H_    0.025271 0.570446 0.181417 0.127136
H27   H     H_    0.227397 0.751602 0.613450 0.148260
H28   H     H_    0.014403 0.425955 0.164905 0.125445
H29   H     H_    0.484181 0.915243 0.365792 0.128329
H30   H     H_    0.551089 0.067174 0.707504 0.173456
H31   H     H_    0.464562 0.092523 0.380512 0.137714
H32   H     H_    0.667212 0.877782 0.841477 0.191570
H33   H     H_    0.365897 0.838896 0.195514 0.118392
H34   H     H_    0.396704 0.146384 0.836610 0.153430
H35   H     H_    0.355509 0.165981 0.203229 0.125051
H36   H     H_    0.518515 0.773246 0.940759 0.221426
H37   H     H_    0.933461 0.358020 0.626934 0.172597
H38   H     H_    0.893312 0.650354 0.332896 0.185147
H39   H     H_    0.005858 0.761782 0.551494 0.155205
H40   H     H_    0.896819 0.348837 0.332435 0.181736
H41   H     H_    0.990044 0.224409 0.950123 0.210896
H42   H     H_    0.126624 0.840533 0.193837 0.164424
H43   H     H_    0.991435 0.729657 0.932791 0.122164
H44   H     H_    0.142104 0.167658 0.208233 0.144154
H45   H     H_    0.586825 0.648351 0.339669 0.187862
H46   H     H_    0.597816 0.348040 0.677584 0.171136
H47   H     H_    0.619548 0.345348 0.316271 0.139065
H48   H     H_    0.478763 0.736320 0.562204 0.145656
H49   H     H_    0.005729 0.031856 0.942873 0.191520
H50   H     H_    0.045250 0.962555 0.861714 0.191564
H51   H     H_    0.796509 0.547417 0.241653 0.196203
H52   H     H_    0.803256 0.456252 0.241527 0.206877
C153  C     C_R   0.352975 0.054579 0.101518 -0.102081
C154  C     C_R   0.357832 0.947243 0.094320 -0.128063
C155  C     C_R   0.739250 0.553665 0.628921 -0.134046
C156  C     C_R   0.747094 0.446496 0.629599 -0.082264
C157  C     C_R   0.407217 0.028162 0.138661 -0.144512
C158  C     C_R   0.409472 0.974624 0.135248 -0.163175
C159  C     C_R   0.738613 0.526964 0.695342 -0.127584
C160  C     C_R   0.743127 0.473436 0.695712 -0.085507
C161  C     C_R   0.304580 0.973278 0.051750 0.109885
C162  C     C_R   0.301742 0.027806 0.057073 0.099283
C163  C     C_R   0.747180 0.472914 0.560921 0.092132
C164  C     C_R   0.744432 0.527031 0.560666 0.083931
C165  C     C_R   0.253612 0.947209 0.004511 -0.157808
C166  C     C_R   0.243756 0.053734 0.023154 -0.192787
C167  C     C_R   0.751373 0.446068 0.493455 -0.121061
C168  C     C_R   0.748339 0.553708 0.493118 -0.122402
C169  C     C_R   0.197394 0.975129 0.969647 -0.034368
C170  C     C_R   0.183506 0.024603 0.996698 -0.004449
C171  C     C_R   0.758718 0.472056 0.424244 -0.012228
C172  C     C_R   0.756269 0.527538 0.424221 0.009388
C173  C     C_R   0.150844 0.954942 0.913369 0.033086
C174  C     C_R   0.110476 0.041843 0.995845 0.026831
C175  C     C_R   0.770536 0.445602 0.355002 -0.007432
C176  C     C_R   0.763925 0.554563 0.355168 0.037311
C177  C     C_R   0.082774 0.977636 0.902569 -0.145393
C178  C     C_R   0.061129 0.018586 0.946799 -0.170622
C179  C     C_R   0.790716 0.474665 0.293399 -0.157244
C180  C     C_R   0.787035 0.527677 0.293340 -0.166349
H53   H     H_    0.446243 0.049186 0.172116 0.150220
H54   H     H_    0.450788 0.954102 0.165584 0.153741
H55   H     H_    0.735013 0.547955 0.746696 0.138974
H56   H     H_    0.742988 0.452612 0.747336 0.132676
C181  C     C_2   0.338947 0.449098 0.111565 0.466725
H57   H     H_    0.338240 0.420896 0.155771 0.078923
O53   O     O_2   0.397264 0.463615 0.087258 -0.540489
C182  C     C_2   0.153262 0.551553 0.898315 0.535365
H58   H     H_    0.101738 0.571156 0.892833 0.002862
O54   O     O_2   0.191385 0.546821 0.844125 -0.475139
C183  C     C_2   0.317532 0.554851 0.131527 0.526051
H59   H     H_    0.312266 0.552927 0.190853 0.037584
O55   O     O_2   0.370443 0.576275 0.105284 -0.620313
C184  C     C_2   0.138045 0.442616 0.913237 0.403293
H60   H     H_    0.085627 0.423724 0.919424 0.016284
O56   O     O_2   0.167429 0.441999 0.853328 -0.535833
C185  C     C_2   0.611322 0.946238 0.501432 0.363040
H61   H     H_    0.579412 0.916822 0.473173 0.033898
O57   O     O_2   0.593199 0.959800 0.562917 -0.562270
C186  C     C_2   0.888289 0.053600 0.489962 0.369713
H62   H     H_    0.918187 0.081998 0.457915 0.038112
O58   O     O_2   0.911336 0.041268 0.550422 -0.540967
C187  C     C_2   0.608587 0.054397 0.477390 0.457751
H63   H     H_    0.561545 0.045652 0.443482 0.039614
O59   O     O_2   0.601946 0.083665 0.529571 -0.611888
C188  C     C_2   0.888977 0.945127 0.467543 0.497592
H64   H     H_    0.932807 0.952659 0.429299 0.044548
O60   O     O_2   0.900043 0.916886 0.520126 -0.587296
C189  C     C_2   0.477059 0.668677 0.072253 0.385940
H65   H     H_    0.456986 0.635968 0.040561 0.104532
O61   O     O_2   0.493810 0.708202 0.039708 -0.609163
C190  C     C_2   0.318887 0.319736 0.723546 0.503751
H66   H     H_    0.299152 0.280123 0.718912 0.049497
O62   O     O_2   0.275503 0.355021 0.718781 -0.573134
C191  C     C_2   0.472842 0.325629 0.064719 0.388237
H67   H     H_    0.474772 0.288482 0.037281 0.089519
O63   O     O_2   0.449069 0.362685 0.030996 -0.566943
C192  C     C_2   0.382836 0.632316 0.793890 0.477863
H68   H     H_    0.411907 0.635821 0.845703 0.036315
O64   O     O_2   0.339748 0.596594 0.785817 -0.559522
C193  C     C_2   0.775096 0.260363 0.770346 0.484028
H69   H     H_    0.781609 0.291136 0.730329 -0.008854
O65   O     O_2   0.713650 0.248051 0.788501 -0.581745
C194  C     C_2   0.852282 0.851966 0.257090 0.507713
H70   H     H_    0.821252 0.820530 0.232261 0.098112
O66   O     O_2   0.821124 0.891816 0.273583 -0.598647
C195  C     C_2   0.848286 0.848943 0.750550 0.493957
H71   H     H_    0.879410 0.863797 0.704482 0.098582
O67   O     O_2   0.793301 0.871530 0.768530 -0.617656
C196  C     C_2   0.877941 0.133940 0.288877 0.544252
H72   H     H_    0.858368 0.100826 0.319377 -0.004807
O68   O     O_2   0.838129 0.153949 0.243405 -0.507926
H73   H     H_    0.773827 0.196906 0.886130 0.179580
H74   H     H_    0.948092 0.929221 0.267966 0.160893
H75   H     H_    0.800262 0.814318 0.881584 0.205252
H76   H     H_    0.988114 0.073543 0.321312 0.110315
H77   H     H_    0.510751 0.581809 0.140210 0.181957
H78   H     H_    0.387562 0.411429 0.709216 0.185924
H79   H     H_    0.543226 0.407541 0.114239 0.223594
H80   H     H_    0.332586 0.625805 0.655189 0.222312
H81   H     H_    0.349851 0.095726 0.111117 0.148480
H82   H     H_    0.360697 0.905836 0.098624 0.163287
H83   H     H_    0.736247 0.595416 0.632067 0.128379
H84   H     H_    0.750205 0.404764 0.633321 0.102117
C197  C     C_2   0.174924 0.914400 0.861078 0.436749
H85   H     H_    0.231718 0.904175 0.857924 0.026304
O69   O     O_2   0.131791 0.892379 0.820312 -0.578150
C198  C     C_2   0.082384 0.075939 0.054839 0.500907
H86   H     H_    0.116909 0.086545 0.101023 0.081464
O70   O     O_2   0.020349 0.091940 0.053150 -0.527204
C199  C     C_2   0.756789 0.389307 0.339530 0.287327
H87   H     H_    0.725603 0.364731 0.374866 0.080136
O71   O     O_2   0.775312 0.369747 0.281463 -0.591785
C200  C     C_2   0.741230 0.608863 0.340919 0.372453
H88   H     H_    0.698816 0.626285 0.372155 0.098739
O72   O     O_2   0.766009 0.633798 0.289687 -0.615779
C201  C     C_2   0.868341 0.178385 0.993015 0.467482
H89   H     H_    0.814628 0.162828 0.004110 0.066601
O73   O     O_2   0.914463 0.176311 0.041263 -0.493657
C202  C     C_2   0.085750 0.938056 0.225140 0.408158
H90   H     H_    0.060163 0.974985 0.235329 0.038701
O74   O     O_2   0.148299 0.937548 0.203458 -0.571051
C203  C     C_2   0.864257 0.757302 0.989252 0.415467
H91   H     H_    0.898352 0.736784 0.028134 0.059302
O75   O     O_2   0.805259 0.772788 0.009495 -0.560749
C204  C     C_2   0.127111 0.075876 0.278049 0.381946
H92   H     H_    0.114453 0.041626 0.310183 0.068809
O76   O     O_2   0.185704 0.078792 0.247270 -0.594716
C205  C     C_2   0.561097 0.557070 0.273660 0.427374
H93   H     H_    0.546445 0.523636 0.240633 0.102699
O77   O     O_2   0.588782 0.550455 0.333968 -0.597343
C206  C     C_2   0.523630 0.438282 0.677185 0.417960
H94   H     H_    0.488344 0.471460 0.682570 0.077961
O78   O     O_2   0.584466 0.444819 0.652770 -0.567897
C207  C     C_2   0.622059 0.430559 0.234605 0.422756
H95   H     H_    0.635633 0.440659 0.290808 0.088547
O79   O     O_2   0.639973 0.459782 0.185019 -0.578530
C208  C     C_2   0.371585 0.671050 0.526346 0.409593
H96   H     H_    0.395821 0.689975 0.479056 0.067717
O80   O     O_2   0.321621 0.640439 0.516523 -0.555954
H97   H     H_    0.384556 0.913515 0.274864 0.153858
H98   H     H_    0.453709 0.066592 0.799853 0.148598
H99   H     H_    0.366161 0.094127 0.288332 0.170580
H100  H     H_    0.611945 0.839413 0.952292 0.170844
H101  H     H_    0.031896 0.418897 0.619088 0.157607
H102  H     H_    0.934321 0.570317 0.280232 0.138365
H103  H     H_    0.132231 0.754624 0.517903 0.149829
H104  H     H_    0.930259 0.427568 0.269703 0.136015

loop_
_geom_bond_atom_site_label_1
_geom_bond_atom_site_label_2
_geom_bond_distance
_ccdc_geom_bond_type
C22   C38   1.490771 S    
C171  C172  1.434210 A    
C69   H37   1.077714 S    
H10   C34   1.104228 S    
C41   H17   1.069125 S    
C47   C87   1.418195 A    
O26   C7    1.281102 A    
H11   C34   1.109800 S    
C44   H20   1.081023 S    
C91   C99   1.418961 A    
C25   C37   1.577172 S    
C174  C178  1.402617 A    
O30   C11   1.288242 A    
C66   H34   1.079740 S    
C111  C119  1.421297 A    
C109  C117  1.419833 A    
C207  H95   1.082744 S    
Zn12  O26   1.929747 S    
C73   C85   1.410476 A    
C74   C90   1.414709 A    
C156  C160  1.391789 A    
C27   H3    1.114806 S    
C121  C189  1.481573 S    
C188  H64   1.085528 S    
C98   C110  1.401500 A    
C112  C120  1.409758 A    
C63   C71   1.392297 A    
C189  H65   1.083914 S    
Zn3   O15   1.939733 S    
C29   H5    1.114752 S    
C122  C130  1.402178 A    
C59   C67   1.392405 A    
C26   C182  1.522156 S    
C110  C150  1.416776 A    
O11   C7    1.294682 A    
C198  H86   1.085415 S    
C137  C201  1.481634 S    
O34   C15   1.276729 A    
C133  C137  1.389304 A    
C50   C62   1.385973 A    
C187  H63   1.084390 S    
C80   C84   1.412315 A    
C206  O78   1.219321 D    
Zn1   O44   1.945846 S    
C25   H1    1.115083 S    
C68   H36   1.076755 S    
Zn2   O43   1.945839 S    
C175  C179  1.399266 A    
C128  C136  1.402231 A    
C184  H60   1.085457 S    
C169  C173  1.428424 A    
Zn5   O48   1.945846 S    
C69   C77   1.420488 A    
C106  C146  1.415531 A    
Zn6   O47   1.945839 S    
C102  C106  1.404890 A    
C204  O76   1.221486 D    
C82   C114  1.414769 A    
Zn7   O46   1.946385 S    
C130  H78   1.084256 S    
O16   C12   1.266529 A    
C62   C70   1.392547 A    
Zn16  O4    1.968176 S    
C143  C207  1.473281 S    
Zn12  O4    1.951082 S    
C29   C185  1.522259 S    
C76   C88   1.410953 A    
C26   C28   1.566885 S    
H52   C179  1.083488 S    
Zn4   O16   1.942835 S    
O41   C21   1.269049 A    
C26   C38   1.574450 S    
C27   C38   1.585406 S    
C132  H80   1.083523 S    
C103  C127  1.426724 A    
C28   H4    1.114978 S    
C205  H93   1.083210 S    
C101  C125  1.429563 A    
C49   C61   1.380552 A    
C77   C93   1.418643 A    
C203  H91   1.086039 S    
C46   C54   1.392583 A    
C31   H7    1.114284 S    
C124  C192  1.484266 S    
C105  C113  1.437270 A    
C92   C100  1.427889 A    
C43   C51   1.393193 A    
C35   C39   1.559762 S    
C30   H6    1.109536 S    
Zn10  O22   1.929747 S    
C125  C133  1.400899 A    
C24   C40   1.491161 S    
C197  H85   1.084752 S    
O25   C8    1.302024 A    
Zn13  O29   1.938001 S    
C104  C128  1.427274 A    
Zn10  O2    1.951082 S    
C123  C191  1.484756 S    
C134  H74   1.084643 S    
O29   C12   1.276890 A    
Zn15  O33   1.938001 S    
C196  H72   1.080058 S    
C7    C93   1.503862 S    
C86   C118  1.427440 A    
C191  H67   1.082283 S    
C94   C102  1.436624 A    
C45   C53   1.392992 A    
C42   C50   1.391167 A    
C107  C147  1.415426 A    
O37   C17   1.299855 A    
C10   C114  1.453875 S    
O48   C23   1.273339 A    
C98   C122  1.426979 A    
C2    C92   1.491003 S    
C50   H26   1.082826 S    
C77   C81   1.422018 A    
C67   C75   1.418758 A    
C202  H90   1.084497 S    
C127  C195  1.486886 S    
C97   C121  1.429776 A    
O49   C17   1.269107 A    
Zn16  O35   1.934705 S    
C90   C98   1.425347 A    
C154  H82   1.074219 S    
C93   C101  1.419254 A    
C30   C40   1.571226 S    
C132  C144  1.396767 A    
Zn7   O10   1.942794 S    
C21   C37   1.487045 S    
C28   C37   1.572459 S    
C153  C162  1.416082 A    
O33   C16   1.293921 A    
H51   C180  1.084074 S    
O40   C20   1.274688 A    
C65   H33   1.081023 S    
C165  C169  1.416528 A    
C30   C186  1.521111 S    
C34   C38   1.555196 S    
C14   C118  1.467911 S    
C200  H88   1.071589 S    
C55   C59   1.388332 A    
C48   H24   1.078909 S    
C125  C193  1.489689 S    
C181  O53   1.220996 D    
Zn5   O17   1.934304 S    
C173  C197  1.486813 S    
C70   H38   1.075206 S    
C108  C116  1.402494 A    
C25   C27   1.557907 S    
C23   C39   1.487498 S    
C157  C158  1.385257 A    
C173  C177  1.403916 A    
C189  O61   1.218553 D    
H49   C178  1.083124 S    
C182  O54   1.220500 D    
C193  O65   1.221544 D    
C151  H47   1.075828 S    
C32   H8    1.114242 S    
Zn8   O3    1.940863 S    
C17   C166  1.468171 S    
C51   H27   1.083255 S    
C172  C176  1.444429 A    
C190  H66   1.085892 S    
O38   C18   1.271889 A    
C74   C86   1.418562 A    
C71   C79   1.416887 A    
C135  C139  1.399145 A    
C61   H101  1.082789 S    
O5    C1    1.285295 A    
C187  O59   1.220559 D    
C186  O58   1.220931 D    
O32   C9    1.294639 A    
C41   C81   1.423461 A    
C153  H81   1.079072 S    
C71   H39   1.080175 S    
C60   H100  1.082616 S    
Zn15  O51   1.952173 S    
C169  C170  1.395510 A    
Zn11  O28   1.925786 S    
C144  C208  1.479081 S    
C59   H99   1.082758 S    
C27   C183  1.519716 S    
C52   C64   1.386194 A    
C122  C190  1.486919 S    
Zn7   O4    1.940865 S    
C51   C63   1.387583 A    
C183  O55   1.217213 D    
C79   C95   1.414828 A    
C208  O80   1.221193 D    
C28   C184  1.518807 S    
O8    C4    1.270699 A    
C152  H48   1.083183 S    
C191  O63   1.221039 D    
C147  H43   1.083333 S    
C148  H44   1.083038 S    
C170  C174  1.423004 A    
C70   C78   1.419101 A    
C54   H30   1.082939 S    
O50   C18   1.291765 A    
C101  C105  1.427965 A    
C145  H41   1.072913 S    
C127  C135  1.405397 A    
Zn1   O1    1.941956 S    
C142  C150  1.402205 A    
C57   H97   1.082478 S    
Zn2   O14   1.947793 S    
C60   C68   1.391109 A    
C33   C34   1.537239 S    
C46   H22   1.076086 S    
C16   C120  1.486359 S    
C9    C113  1.513738 S    
O9    C5    1.269313 A    
O39   C19   1.277885 A    
O36   C13   1.268248 A    
C201  O73   1.221186 D    
C47   C55   1.393561 A    
C89   C97   1.415217 A    
C31   C187  1.522185 S    
O13   C9    1.288131 A    
C194  H70   1.086011 S    
C138  C146  1.396520 A    
Zn1   O8    1.947748 S    
Zn2   O7    1.934263 S    
C83   C115  1.424894 A    
Zn3   O6    1.942794 S    
C188  O60   1.220964 D    
O18   C14   1.279990 A    
O31   C10   1.284083 A    
O6    C2    1.279427 A    
C49   H25   1.082802 S    
C31   C40   1.572660 S    
C156  H84   1.082116 S    
C146  H42   1.082769 S    
C43   H19   1.077529 S    
C63   H103  1.082753 S    
C56   H32   1.082005 S    
C136  C140  1.394722 A    
C198  O70   1.220749 D    
H9    C33   1.110660 S    
Zn14  O30   1.926039 S    
Zn15  O3    1.950775 S    
Zn11  O3    1.968481 S    
C75   C87   1.409639 A    
C126  C194  1.483229 S    
C168  C172  1.432506 A    
Zn16  O34   1.926039 S    
C8    C94   1.475337 S    
C44   C52   1.390518 A    
H12   C33   1.109473 S    
C95   C103  1.426302 A    
C184  O56   1.219778 D    
C199  H87   1.069741 S    
C110  C118  1.415414 A    
C139  C203  1.479406 S    
C99   C123  1.437288 A    
C52   H28   1.082779 S    
Zn8   O20   1.942835 S    
C88   C120  1.422240 A    
C96   C104  1.434364 A    
C135  H75   1.084005 S    
C78   C82   1.413803 A    
C139  C147  1.398395 A    
C99   C111  1.414536 A    
C159  C160  1.385916 A    
C4    C90   1.480638 S    
C97   C109  1.407414 A    
C80   C96   1.425985 A    
C121  C129  1.397779 A    
C1    C91   1.444480 S    
Zn8   O9    1.939688 S    
C111  C151  1.412463 A    
C154  C161  1.422370 A    
Zn7   O19   1.939733 S    
C109  C149  1.415024 A    
C185  O57   1.221074 D    
C157  H53   1.082502 S    
C192  H68   1.085655 S    
C161  C165  1.433848 A    
C159  H55   1.082561 S    
C166  C170  1.418511 A    
C163  C167  1.412185 A    
O7    C3    1.281560 A    
C164  C168  1.411064 A    
C11   C115  1.457937 S    
C19   C168  1.441171 S    
C15   C119  1.460076 S    
C54   C58   1.386723 A    
C20   C167  1.435772 S    
C195  H71   1.086354 S    
O19   C15   1.288031 A    
C13   C117  1.456649 S    
C112  C152  1.412172 A    
C100  C112  1.408461 A    
Zn9   O24   1.925786 S    
C153  C157  1.389488 A    
Zn6   O18   1.947793 S    
C175  C199  1.499916 S    
Zn10  O23   1.937750 S    
C155  C159  1.391765 A    
C179  C180  1.371580 A    
C81   C113  1.436754 A    
C58   H98   1.082660 S    
C123  C131  1.398454 A    
Zn15  O36   1.929999 S    
C196  O68   1.221842 D    
O42   C22   1.280086 A    
H50   C177  1.083155 S    
Zn4   O1    1.940863 S    
C30   C32   1.566388 S    
C102  C126  1.432596 A    
C18   C165  1.454670 S    
Zn9   O37   1.943360 S    
C174  C198  1.486239 S    
O12   C8    1.269957 A    
Zn11  O39   1.943360 S    
C106  C114  1.406899 A    
C202  O74   1.221471 D    
C108  C148  1.415058 A    
C53   C57   1.388445 A    
C84   C116  1.409642 A    
C62   H102  1.082203 S    
C42   H18   1.079519 S    
C56   C60   1.385679 A    
C133  H73   1.084253 S    
C206  H94   1.085725 S    
C42   C82   1.419347 A    
C53   H29   1.082540 S    
C35   C36   1.531955 S    
Zn5   O3    1.941956 S    
Zn13  O1    1.950775 S    
C48   C56   1.393032 A    
Zn6   O4    1.941955 S    
C66   C74   1.416806 A    
C100  C124  1.426532 A    
C104  C108  1.404617 A    
C32   C39   1.570833 S    
C141  C149  1.398751 A    
C58   C66   1.391420 A    
C140  C148  1.398015 A    
C204  H92   1.084852 S    
C128  C196  1.476187 S    
C45   H21   1.080913 S    
C46   C86   1.420179 A    
C87   C119  1.411615 A    
O28   C5    1.303860 A    
C200  O72   1.221360 D    
C138  C202  1.478880 S    
C85   C117  1.412646 A    
Zn3   O42   1.946385 S    
C176  C180  1.392320 A    
C129  H77   1.084558 S    
C29   C39   1.571583 S    
C181  H57   1.085467 S    
O21   C4    1.302662 A    
C137  C145  1.397920 A    
C205  O77   1.220862 D    
C64   C72   1.393569 A    
C65   C73   1.417710 A    
H14   C36   1.111049 S    
C73   C89   1.416520 A    
C176  C200  1.489980 S    
C183  H59   1.085275 S    
C68   C76   1.416948 A    
Zn2   O2    1.941955 S    
C177  C178  1.391285 A    
Zn14  O2    1.968176 S    
C171  C175  1.451123 A    
C57   C65   1.393106 A    
Zn13  O49   1.952173 S    
O44   C21   1.274386 A    
C192  O64   1.220549 D    
C45   C85   1.417883 A    
C107  C115  1.410437 A    
Zn12  O27   1.937750 S    
C197  O69   1.221554 D    
C150  H46   1.082432 S    
C141  C205  1.476923 S    
C12   C116  1.446246 S    
Zn3   O2    1.940865 S    
C33   C37   1.554493 S    
C64   H104  1.081520 S    
C199  O71   1.222332 D    
O46   C24   1.274022 A    
O47   C24   1.270851 A    
Zn16  O52   1.943401 S    
C131  C143  1.390317 A    
Zn8   O45   1.946391 S    
C61   C69   1.387199 A    
O27   C6    1.290558 A    
C124  C132  1.406144 A    
C75   C91   1.416010 A    
C76   C92   1.418899 A    
C130  C142  1.393849 A    
Zn1   O13   1.934304 S    
C29   C31   1.569272 S    
C134  C138  1.392793 A    
C78   C94   1.423575 A    
O24   C1    1.272189 A    
C160  H56   1.082601 S    
C129  C141  1.391256 A    
C140  C204  1.478755 S    
C161  C162  1.413189 A    
C149  H45   1.071887 S    
C3    C89   1.447562 S    
C32   C188  1.523139 S    
O43   C22   1.265632 A    
O14   C10   1.274603 A    
Zn4   O41   1.946391 S    
C79   C83   1.416078 A    
C203  O75   1.221562 D    
C142  C206  1.477654 S    
C195  O67   1.220856 D    
Zn5   O12   1.947748 S    
Zn6   O11   1.934263 S    
Zn9   O21   1.934454 S    
Zn14  O50   1.943401 S    
H13   C35   1.111067 S    
C155  C164  1.423289 A    
O35   C14   1.287404 A    
C136  H76   1.085117 S    
C201  H89   1.085662 S    
Zn12  O40   1.952129 S    
Zn9   O1    1.968481 S    
C158  H54   1.081925 S    
C194  O66   1.221638 D    
C162  C166  1.407655 A    
O52   C20   1.280210 A    
C167  C171  1.433660 A    
C163  C164  1.399221 A    
C182  H58   1.085422 S    
C67   H35   1.081425 S    
C41   C49   1.391074 A    
C25   C181  1.527693 S    
O22   C3    1.267547 A    
C154  C158  1.393656 A    
C103  C107  1.397559 A    
C55   H31   1.081663 S    
Zn13  O32   1.929999 S    
O15   C11   1.276559 A    
Zn14  O31   1.934705 S    
C156  C163  1.424031 A    
C143  C151  1.395972 A    
O51   C19   1.277852 A    
C126  C134  1.404806 A    
H16   C35   1.110940 S    
C186  H62   1.085436 S    
C105  C145  1.419335 A    
C47   H23   1.081760 S    
Zn4   O5    1.939688 S    
C207  O79   1.221371 D    
O20   C16   1.273620 A    
C131  H79   1.084518 S    
O10   C6    1.269545 A    
O23   C2    1.290668 A    
Zn11  O25   1.934454 S    
C185  H61   1.084644 S    
Zn10  O38   1.952129 S    
C144  C152  1.395266 A    
C48   C88   1.420122 A    
C5    C95   1.474469 S    
C36   C40   1.559245 S    
C190  O62   1.221458 D    
C6    C96   1.472447 S    
C72   C80   1.417740 A    
C43   C83   1.420203 A    
H15   C36   1.111255 S    
C44   C84   1.418447 A    
C193  H69   1.084434 S    
C208  H96   1.085868 S    
O17   C13   1.286004 A    
O45   C23   1.269621 A    
C26   H2    1.115018 S    
C72   H40   1.073677 S    
C155  H83   1.081842 S    
