data_mof_unit_30680.cif
_audit_creation_date              2012-12-10T19:45:49-0500
_audit_creation_method            fapswitch 2.2
_symmetry_space_group_name_H-M    P1
_symmetry_Int_Tables_number       1
_space_group_crystal_system       triclinic
_cell_length_a                    10.813753
_cell_length_b                    14.68575
_cell_length_c                    14.667289
_cell_angle_alpha                 64.929231
_cell_angle_beta                  104.241925
_cell_angle_gamma                 103.173401
_cell_volume                      2024.60177712

loop_
_atom_site_label
_atom_site_type_symbol
_atom_type_description
_atom_site_fract_x
_atom_site_fract_y
_atom_site_fract_z
_atom_type_partial_charge
C1    C     C_R   0.473334 0.119506 0.311777 0.807000
C2    C     C_R   0.527497 0.880373 0.688040 0.833731
C3    C     C_R   0.870810 0.002388 0.495379 -0.082637
C4    C     C_R   0.129217 0.998228 0.504453 -0.078854
C5    C     C_R   0.904919 0.961088 0.435271 0.012466
C6    C     C_R   0.095088 0.041223 0.563267 0.012615
C7    C     C_R   0.445416 0.186252 0.202993 -0.161302
C8    C     C_R   0.566051 0.812852 0.794938 -0.111871
C9    C     C_R   0.312195 0.228999 0.034061 0.265841
C10   C     C_R   0.720093 0.769932 0.954041 0.209564
C11   C     C_R   0.343846 0.158287 0.134069 0.117645
C12   C     C_R   0.671999 0.842620 0.859097 0.117472
C13   C     C_R   0.513687 0.284027 0.171331 -0.298579
C14   C     C_R   0.507983 0.712072 0.826080 -0.320506
C15   C     C_R   0.484414 0.356914 0.071952 0.056412
C16   C     C_R   0.558715 0.636439 0.916693 0.053278
C17   C     C_R   0.383944 0.327658 0.002200 0.032834
C18   C     C_R   0.663381 0.666473 0.983035 0.062448
C19   C     C_R   0.548487 0.459271 0.041435 0.098961
C20   C     C_R   0.506751 0.531825 0.942973 0.098926
C21   C     C_R   0.417169 0.497095 0.872550 -0.219759
C22   C     C_R   0.652229 0.491932 0.105929 -0.221848
C23   C     C_R   0.262717 0.998892 0.502293 0.784776
C24   C     C_R   0.737270 0.001195 0.497732 0.799230
C25   C     C_R   0.357609 0.397404 0.901550 -0.234956
C26   C     C_R   0.709084 0.592553 0.076729 -0.227173
C27   C     C_R   0.725756 0.289725 0.661639 -0.291898
C28   C     C_R   0.272875 0.709404 0.339742 -0.288289
C29   C     C_R   0.687771 0.206135 0.634744 0.092008
C30   C     C_R   0.310779 0.792969 0.366646 0.079955
C31   C     C_R   0.515247 0.283846 0.510862 0.033033
C32   C     C_R   0.485527 0.716575 0.488506 0.028949
C33   C     C_R   0.548801 0.371613 0.534641 -0.025762
C34   C     C_R   0.451472 0.628480 0.465274 -0.030029
C35   C     C_R   0.656819 0.372625 0.611972 0.167813
C36   C     C_R   0.342750 0.627048 0.388592 0.179358
C37   C     C_R   0.479582 0.457324 0.485420 0.066065
C38   C     C_R   0.520635 0.542732 0.514581 0.062770
C39   C     C_R   0.629051 0.539332 0.592154 -0.243491
C40   C     C_R   0.370602 0.460401 0.408368 -0.237075
C41   C     C_R   0.695286 0.455977 0.639637 -0.203177
C42   C     C_R   0.303980 0.543526 0.361228 -0.193654
C43   C     C_R   0.371374 0.068618 0.771311 -0.113898
C44   C     C_R   0.630443 0.952849 0.219914 -0.146866
C45   C     C_R   0.274419 0.024804 0.713187 -0.152114
C46   C     C_R   0.730670 0.990041 0.281462 -0.136067
C47   C     C_R   0.191203 0.085121 0.630870 0.125812
C48   C     C_R   0.808301 0.923744 0.362971 0.124664
C49   C     C_R   0.203244 0.188980 0.610126 -0.201318
C50   C     C_R   0.787562 0.820465 0.379507 -0.207626
C51   C     C_R   0.299464 0.232553 0.668771 -0.191619
C52   C     C_R   0.687449 0.783353 0.317756 -0.146172
C53   C     C_R   0.385167 0.172767 0.749190 0.230143
C54   C     C_R   0.607232 0.848861 0.238471 0.233076
C55   C     C_R   0.965662 0.042839 0.557595 -0.247283
C56   C     C_R   0.034179 0.957959 0.441991 -0.245171
Cu1   Cu    Cu3+1 0.466270 0.918260 0.475690 0.933865
Cu2   Cu    Cu3+1 0.533730 0.081740 0.524310 0.948713
H1    H     H_    0.392881 0.544870 0.793010 0.144175
H2    H     H_    0.694727 0.441539 0.179448 0.139571
H3    H     H_    0.777810 0.456806 0.698963 0.142694
H4    H     H_    0.220759 0.542295 0.302544 0.138160
H5    H     H_    0.567059 0.724903 0.544983 0.126965
H6    H     H_    0.434657 0.276061 0.453504 0.126963
H7    H     H_    0.256054 0.855993 0.329932 0.113808
H8    H     H_    0.741095 0.142259 0.672721 0.138409
H9    H     H_    0.808521 0.289528 0.720998 0.134548
H10   H     H_    0.189145 0.709040 0.281278 0.131400
H11   H     H_    0.665553 0.600091 0.618530 0.137656
H12   H     H_    0.333528 0.399340 0.382502 0.136394
H13   H     H_    0.436685 0.021660 0.833086 0.130826
H14   H     H_    0.569742 0.004835 0.159081 0.115409
H15   H     H_    0.266311 0.944489 0.730503 0.110372
H16   H     H_    0.745309 0.069964 0.267685 0.112086
H17   H     H_    0.140088 0.236711 0.546912 0.139553
H18   H     H_    0.846049 0.768174 0.442285 0.137997
H19   H     H_    0.308181 0.313076 0.650553 0.138477
H20   H     H_    0.670563 0.703081 0.332836 0.146045
H21   H     H_    0.938811 0.073809 0.604117 0.153178
H22   H     H_    0.060855 0.927341 0.395100 0.150059
H23   H     H_    0.290481 0.375804 0.843564 0.149248
H24   H     H_    0.788279 0.611540 0.130023 0.151303
H25   H     H_    0.422581 0.694662 0.776774 0.162075
H26   H     H_    0.587466 0.301638 0.227951 0.163667
N1    N     N_R   0.584450 0.204570 0.560790 -0.178671
N2    N     N_R   0.415550 0.795430 0.439210 -0.174646
O1    O     O_R   0.455540 0.022090 0.338120 -0.587446
O2    O     O_R   0.544460 0.977910 0.661880 -0.551249
O3    O     O_R   0.512510 0.160150 0.379180 -0.584744
O4    O     O_R   0.487490 0.839850 0.620820 -0.593950
O5    O     O_R   0.291160 0.930970 0.479480 -0.596257
O6    O     O_R   0.708840 0.069030 0.520520 -0.591578
O7    O     O_R   0.348130 0.069020 0.520540 -0.572132
O8    O     O_R   0.651870 0.930980 0.479460 -0.571179
N3    N     N_3   0.487308 0.216749 0.808015 -0.595064
H27   H     H_    0.470253 0.184809 0.883170 0.206886
H28   H     H_    0.485128 0.294707 0.781763 0.225562
N4    N     N_3   0.500977 0.808261 0.179506 -0.596637
H29   H     H_    0.449021 0.866011 0.125235 0.201087
H30   H     H_    0.538493 0.780060 0.139046 0.213784
N5    N     N_2   0.197903 0.203720 0.970933 -0.418971
H31   H     H_    0.141271 0.259470 0.924119 0.237312
C57   C     C_3   0.196642 0.125494 0.935160 -0.652435
H32   H     H_    0.186109 0.158773 0.850704 0.214587
H33   H     H_    0.113015 0.065948 0.957317 0.244723
H34   H     H_    0.286107 0.089493 0.968006 0.220296
N6    N     N_2   0.832443 0.801257 0.014438 -0.446293
H35   H     H_    0.904089 0.755964 0.040433 0.245353
C58   C     C_3   0.807969 0.828353 0.091688 -0.709040
H36   H     H_    0.765698 0.760153 0.151831 0.220873
H37   H     H_    0.741328 0.886229 0.057353 0.234036
H38   H     H_    0.899976 0.860784 0.127586 0.235979
N7    N     N_3   0.735895 0.945347 0.824817 -0.585755
H39   H     H_    0.832269 0.944769 0.824405 0.224406
H40   H     H_    0.732928 0.976588 0.876205 0.230856
N8    N     N_3   0.264768 0.061175 0.165615 -0.570130
H41   H     H_    0.228194 0.049526 0.229994 0.215094
H42   H     H_    0.321034 0.004968 0.182938 0.223871

loop_
_geom_bond_atom_site_label_1
_geom_bond_atom_site_label_2
_ccdc_geom_bond_type
C1    O1    A    
N5    H31   S    
C31   N1    A    
C53   N3    S    
C5    C56   A    
C36   C42   A    
N3    H27   S    
C18   C26   A    
C41   H3    S    
C6    C55   A    
C10   N6    S    
C39   C41   A    
Cu1   N2    S    
C15   C19   A    
C13   H26   S    
C40   H12   S    
C28   H10   S    
Cu2   O7    S    
C21   H1    S    
C37   C40   A    
C24   O8    A    
C58   H37   S    
C22   H2    S    
C38   C39   A    
C27   C29   A    
N8    H41   S    
C45   H15   S    
C2    O4    A    
N7    H39   S    
C3    C55   A    
C43   C53   A    
C19   C20   A    
C44   C46   A    
C49   C51   A    
C50   C52   A    
N6    H35   S    
C31   C33   A    
C2    O2    A    
C14   C16   A    
C30   N2    A    
C42   H4    S    
C29   N1    A    
C44   C54   A    
C16   C20   A    
C9    C11   A    
C40   C42   A    
C26   H24   S    
C34   C38   A    
C4    C56   A    
C25   H23   S    
N6    C58   S    
C3    C24   S    
C14   H25   S    
C52   H20   S    
C24   O6    A    
C52   C54   A    
C45   C47   A    
C5    C48   S    
C46   C48   A    
Cu1   O4    S    
C19   C22   A    
C43   H13   S    
C4    C6    A    
C6    C47   S    
C58   H38   S    
C4    C23   S    
C27   C35   A    
C33   C37   A    
C23   O7    A    
C51   C53   A    
C32   C34   A    
C7    C11   A    
C51   H19   S    
C37   C38   A    
C50   H18   S    
C55   H21   S    
C8    C12   A    
C32   N2    A    
C49   H17   S    
C39   H11   S    
C57   H33   S    
C16   C18   A    
C11   N8    S    
C43   C45   A    
C10   C12   A    
C9    C17   A    
N4    H30   S    
Cu1   O8    S    
C13   C15   A    
C8    C14   A    
Cu2   N1    S    
C46   H16   S    
C12   N7    S    
N5    C57   S    
C15   C17   A    
C21   C25   A    
C1    O3    A    
Cu1   O5    S    
C1    C7    S    
C31   H6    S    
C2    C8    S    
C32   H5    S    
C3    C5    A    
Cu2   O2    S    
N3    H28   S    
C47   C49   A    
C56   H22   S    
C17   C25   A    
C28   C30   A    
C58   H36   S    
Cu1   Cu2   S    
C10   C18   A    
C48   C50   A    
C33   C35   A    
C34   C36   A    
N8    H42   S    
C44   H14   S    
C57   H34   S    
C23   O5    A    
C35   C41   A    
Cu2   O3    S    
C30   H7    S    
C27   H9    S    
C29   H8    S    
Cu1   O1    S    
C7    C13   A    
C20   C21   A    
C28   C36   A    
C9    N5    S    
N4    H29   S    
C22   C26   A    
C57   H32   S    
C54   N4    S    
Cu2   O6    S    
N7    H40   S    
