data_mof_unit_65562.cif
_audit_creation_date              2012-12-10T18:48:33-0500
_audit_creation_method            fapswitch 2.2
_symmetry_space_group_name_H-M    P1
_symmetry_Int_Tables_number       1
_space_group_crystal_system       triclinic
_cell_length_a                    38.785424
_cell_length_b                    38.785425
_cell_length_c                    55.667253
_cell_angle_alpha                 89.998796
_cell_angle_beta                  89.998797
_cell_angle_gamma                 89.975464
_cell_volume                      83740.7505309

loop_
_atom_site_label
_atom_site_type_symbol
_atom_type_description
_atom_site_fract_x
_atom_site_fract_y
_atom_site_fract_z
_atom_type_partial_charge
C1    C     C_R   0.500007 0.932368 0.500019 0.849843
C2    C     C_R   0.067631 0.499993 0.499981 0.849844
C3    C     C_R   0.499993 0.067631 0.500019 0.849842
C4    C     C_R   0.932368 0.500007 0.499981 0.849843
C5    C     C_R   0.000007 0.432368 0.000019 0.849843
C6    C     C_R   0.567631 0.999993 0.999981 0.849843
C7    C     C_R   0.999993 0.567631 0.000019 0.849842
C8    C     C_R   0.432369 0.000007 0.999981 0.849843
C9    C     C_R   0.490693 0.030407 0.610871 -0.030527
C10   C     C_R   0.969695 0.490379 0.610879 -0.029632
C11   C     C_R   0.509304 0.969589 0.610871 -0.030527
C12   C     C_R   0.030305 0.509617 0.610878 -0.029633
C13   C     C_R   0.490382 0.969695 0.389122 -0.029633
C14   C     C_R   0.969592 0.509307 0.389129 -0.030527
C15   C     C_R   0.509621 0.030305 0.389121 -0.029631
C16   C     C_R   0.030411 0.490696 0.389128 -0.030527
C17   C     C_R   0.990693 0.530408 0.110871 -0.030527
C18   C     C_R   0.469695 0.990378 0.110879 -0.029631
C19   C     C_R   0.009304 0.469589 0.110871 -0.030527
C20   C     C_R   0.530305 0.009618 0.110878 -0.029634
C21   C     C_R   0.990382 0.469695 0.889122 -0.029634
C22   C     C_R   0.469593 0.009307 0.889128 -0.030527
C23   C     C_R   0.009622 0.530305 0.889121 -0.029632
C24   C     C_R   0.530411 0.990695 0.889129 -0.030527
C25   C     C_R   0.491889 0.030533 0.585628 0.054146
C26   C     C_R   0.969561 0.491551 0.585634 0.049266
C27   C     C_R   0.508109 0.969464 0.585628 0.054147
C28   C     C_R   0.030438 0.508446 0.585634 0.049270
C29   C     C_R   0.491554 0.969562 0.414366 0.049269
C30   C     C_R   0.969467 0.508111 0.414372 0.054146
C31   C     C_R   0.508449 0.030439 0.414365 0.049266
C32   C     C_R   0.030535 0.491891 0.414372 0.054147
C33   C     C_R   0.991889 0.530533 0.085628 0.054147
C34   C     C_R   0.469562 0.991551 0.085635 0.049265
C35   C     C_R   0.008108 0.469465 0.085628 0.054146
C36   C     C_R   0.530438 0.008446 0.085634 0.049269
C37   C     C_R   0.991554 0.469562 0.914366 0.049270
C38   C     C_R   0.469467 0.008111 0.914372 0.054146
C39   C     C_R   0.008449 0.530438 0.914365 0.049266
C40   C     C_R   0.530535 0.991891 0.914372 0.054147
C41   C     C_R   0.499999 0.999999 0.573162 -0.114308
C42   C     C_R   1.000000 0.499999 0.573166 -0.113750
C43   C     C_R   0.500001 0.000000 0.426834 -0.113750
C44   C     C_R   0.000001 0.500001 0.426838 -0.114308
C45   C     C_R   0.999999 0.499999 0.073162 -0.114308
C46   C     C_R   0.500000 0.999999 0.073166 -0.113750
C47   C     C_R   0.000001 0.500000 0.926834 -0.113750
C48   C     C_R   0.500001 0.000001 0.926838 -0.114307
C49   C     C_R   0.499999 0.999998 0.623447 0.195240
C50   C     C_R   1.000000 0.499998 0.623450 0.196519
C51   C     C_R   0.500002 0.000001 0.376550 0.196520
C52   C     C_R   0.000002 0.500002 0.376553 0.195240
C53   C     C_R   0.999998 0.499998 0.123447 0.195241
C54   C     C_R   0.500000 0.999998 0.123450 0.196520
C55   C     C_R   0.000002 0.500000 0.876550 0.196520
C56   C     C_R   0.500002 0.000001 0.876553 0.195240
C57   C     C_R   0.432889 0.500018 0.500006 0.857319
C58   C     C_R   0.500018 0.432889 0.499994 0.857317
C59   C     C_R   0.567111 0.499982 0.500006 0.857316
C60   C     C_R   0.499982 0.567111 0.499994 0.857319
C61   C     C_R   0.932889 0.000018 0.000006 0.857319
C62   C     C_R   0.000018 0.932889 0.999994 0.857317
C63   C     C_R   0.067111 0.999982 0.000006 0.857316
C64   C     C_R   0.999982 0.067111 0.999994 0.857318
C65   C     C_R   0.471634 0.875529 0.489711 -0.085375
C66   C     C_R   0.124664 0.471017 0.491247 -0.046064
C67   C     C_R   0.528366 0.124472 0.489710 -0.085371
C68   C     C_R   0.875336 0.528982 0.491246 -0.046062
C69   C     C_R   0.471017 0.124664 0.508754 -0.046062
C70   C     C_R   0.124471 0.528366 0.510289 -0.085375
C71   C     C_R   0.528983 0.875336 0.508753 -0.046064
C72   C     C_R   0.875528 0.471634 0.510290 -0.085370
C73   C     C_R   0.971634 0.375528 0.989711 -0.085375
C74   C     C_R   0.624664 0.971017 0.991247 -0.046064
C75   C     C_R   0.028365 0.624472 0.989710 -0.085370
C76   C     C_R   0.375336 0.028982 0.991246 -0.046062
C77   C     C_R   0.971017 0.624664 0.008754 -0.046063
C78   C     C_R   0.624471 0.028366 0.010289 -0.085375
C79   C     C_R   0.028983 0.375335 0.008753 -0.046064
C80   C     C_R   0.375528 0.971634 0.010290 -0.085371
C81   C     C_R   0.472156 0.839200 0.488940 -0.031370
C82   C     C_R   0.160988 0.470318 0.492623 -0.064303
C83   C     C_R   0.527844 0.160800 0.488940 -0.031364
C84   C     C_R   0.839013 0.529682 0.492622 -0.064300
C85   C     C_R   0.470318 0.160987 0.507378 -0.064301
C86   C     C_R   0.160800 0.527844 0.511060 -0.031369
C87   C     C_R   0.529682 0.839012 0.507377 -0.064303
C88   C     C_R   0.839200 0.472156 0.511060 -0.031364
C89   C     C_R   0.972156 0.339200 0.988940 -0.031370
C90   C     C_R   0.660988 0.970318 0.992623 -0.064302
C91   C     C_R   0.027844 0.660800 0.988940 -0.031364
C92   C     C_R   0.339013 0.029682 0.992622 -0.064300
C93   C     C_R   0.970318 0.660987 0.007378 -0.064300
C94   C     C_R   0.660799 0.027844 0.011059 -0.031369
C95   C     C_R   0.029682 0.339012 0.007377 -0.064303
C96   C     C_R   0.339200 0.972156 0.011060 -0.031364
C97   C     C_R   0.501048 0.821293 0.497931 -0.077255
C98   C     C_R   0.178707 0.498952 0.502069 -0.077256
C99   C     C_R   0.498953 0.178707 0.497931 -0.077258
C100  C     C_R   0.821293 0.501047 0.502069 -0.077258
C101  C     C_R   0.001048 0.321293 0.997931 -0.077255
C102  C     C_R   0.678707 0.998952 0.002069 -0.077256
C103  C     C_R   0.998953 0.678707 0.997931 -0.077260
C104  C     C_R   0.321293 0.001047 0.002068 -0.077259
C105  C     C_R   0.500117 0.893957 0.499600 -0.215069
C106  C     C_R   0.106043 0.499883 0.500400 -0.215068
C107  C     C_R   0.499883 0.106043 0.499600 -0.215068
C108  C     C_R   0.893957 0.500117 0.500400 -0.215069
C109  C     C_R   0.000117 0.393957 0.999600 -0.215069
C110  C     C_R   0.606043 0.999883 0.000400 -0.215069
C111  C     C_R   0.999883 0.606043 0.999600 -0.215069
C112  C     C_R   0.393957 0.000117 0.000400 -0.215068
C113  C     C_R   0.500614 0.714352 0.499059 0.479278
C114  C     C_R   0.285648 0.499386 0.500941 0.479277
C115  C     C_R   0.499387 0.285648 0.499062 0.479278
C116  C     C_R   0.714352 0.500612 0.500938 0.479278
C117  C     C_R   0.000614 0.214352 0.999059 0.479277
C118  C     C_R   0.785648 0.999386 0.000941 0.479278
C119  C     C_R   0.999388 0.785648 0.999062 0.479278
C120  C     C_R   0.214352 0.000612 0.000938 0.479278
C121  C     C_R   0.500000 1.000000 0.546964 0.889333
C122  C     C_R   1.000000 0.500000 0.546965 0.892004
C123  C     C_R   0.500000 0.000000 0.453035 0.892004
C124  C     C_R   0.000000 0.500000 0.453036 0.889333
C125  C     C_R   1.000000 0.500000 0.046964 0.889333
C126  C     C_R   0.500000 1.000000 0.046965 0.892005
C127  C     C_R   0.000000 0.500000 0.953034 0.892005
C128  C     C_R   0.500000 0.000000 0.953036 0.889333
C129  C     C_R   0.500893 0.783657 0.498259 0.328576
C130  C     C_R   0.216343 0.499107 0.501741 0.328575
C131  C     C_R   0.499108 0.216343 0.498260 0.328576
C132  C     C_R   0.783657 0.500892 0.501740 0.328576
C133  C     C_R   0.000893 0.283657 0.998259 0.328576
C134  C     C_R   0.716343 0.999107 0.001741 0.328576
C135  C     C_R   0.999108 0.716343 0.998260 0.328577
C136  C     C_R   0.283657 0.000892 0.001740 0.328577
C137  C     C_R   0.474068 0.658910 0.486989 -0.053271
C138  C     C_R   0.341012 0.473597 0.487822 -0.044855
C139  C     C_R   0.525934 0.341090 0.486991 -0.053271
C140  C     C_R   0.658989 0.526401 0.487819 -0.044854
C141  C     C_R   0.473599 0.341011 0.512181 -0.044855
C142  C     C_R   0.341090 0.525932 0.513011 -0.053272
C143  C     C_R   0.526403 0.658988 0.512178 -0.044854
C144  C     C_R   0.658910 0.474066 0.513009 -0.053271
C145  C     C_R   0.974068 0.158910 0.986989 -0.053272
C146  C     C_R   0.841012 0.973597 0.987822 -0.044854
C147  C     C_R   0.025934 0.841090 0.986991 -0.053271
C148  C     C_R   0.158989 0.026401 0.987819 -0.044854
C149  C     C_R   0.973599 0.841011 0.012181 -0.044856
C150  C     C_R   0.841090 0.025932 0.013011 -0.053271
C151  C     C_R   0.026403 0.158988 0.012178 -0.044855
C152  C     C_R   0.158910 0.974066 0.013009 -0.053271
C153  C     C_R   0.474447 0.622673 0.486806 0.089922
C154  C     C_R   0.377238 0.474338 0.487145 0.088696
C155  C     C_R   0.525554 0.377327 0.486807 0.089923
C156  C     C_R   0.622762 0.525660 0.487142 0.088697
C157  C     C_R   0.474340 0.377238 0.512858 0.088697
C158  C     C_R   0.377327 0.525553 0.513194 0.089922
C159  C     C_R   0.525661 0.622762 0.512855 0.088696
C160  C     C_R   0.622673 0.474445 0.513192 0.089922
C161  C     C_R   0.974447 0.122673 0.986806 0.089922
C162  C     C_R   0.877238 0.974338 0.987145 0.088696
C163  C     C_R   0.025554 0.877327 0.986807 0.089922
C164  C     C_R   0.122762 0.025660 0.987142 0.088697
C165  C     C_R   0.974340 0.877237 0.012858 0.088697
C166  C     C_R   0.877327 0.025553 0.013194 0.089922
C167  C     C_R   0.025662 0.122762 0.012855 0.088697
C168  C     C_R   0.122673 0.974445 0.013192 0.089922
C169  C     C_R   0.499985 0.604754 0.499936 -0.139129
C170  C     C_R   0.395245 0.500015 0.500064 -0.139129
C171  C     C_R   0.500016 0.395245 0.499938 -0.139129
C172  C     C_R   0.604754 0.499984 0.500062 -0.139129
C173  C     C_R   0.999985 0.104755 0.999936 -0.139129
C174  C     C_R   0.895245 0.000015 0.000064 -0.139129
C175  C     C_R   0.000016 0.895245 0.999938 -0.139128
C176  C     C_R   0.104755 0.999984 0.000062 -0.139129
C177  C     C_R   0.500359 0.676874 0.499421 -0.081313
C178  C     C_R   0.323126 0.499641 0.500579 -0.081314
C179  C     C_R   0.499643 0.323126 0.499424 -0.081314
C180  C     C_R   0.676874 0.500357 0.500576 -0.081314
C181  C     C_R   0.000359 0.176874 0.999421 -0.081313
C182  C     C_R   0.823126 0.999641 0.000579 -0.081314
C183  C     C_R   0.999643 0.823126 0.999424 -0.081313
C184  C     C_R   0.176874 0.000357 0.000576 -0.081313
C185  C     C_R   0.476504 0.978875 0.737286 0.062468
C186  C     C_R   0.021144 0.476502 0.737284 0.062526
C187  C     C_R   0.523498 0.021122 0.737284 0.062468
C188  C     C_R   0.978857 0.523497 0.737284 0.062526
C189  C     C_R   0.476503 0.021144 0.262716 0.062526
C190  C     C_R   0.021124 0.523497 0.262714 0.062469
C191  C     C_R   0.523499 0.978856 0.262716 0.062526
C192  C     C_R   0.978877 0.476503 0.262716 0.062469
C193  C     C_R   0.976503 0.478876 0.237286 0.062469
C194  C     C_R   0.521145 0.976502 0.237284 0.062526
C195  C     C_R   0.023497 0.521123 0.237284 0.062469
C196  C     C_R   0.478857 0.023497 0.237284 0.062526
C197  C     C_R   0.976503 0.521144 0.762716 0.062526
C198  C     C_R   0.521125 0.023495 0.762714 0.062468
C199  C     C_R   0.023498 0.478856 0.762716 0.062526
C200  C     C_R   0.478878 0.976502 0.762716 0.062468
C201  C     C_R   0.500001 0.999998 0.724577 0.076002
C202  C     C_R   0.000000 0.499999 0.724576 0.076096
C203  C     C_R   0.500001 0.000000 0.275424 0.076096
C204  C     C_R   0.000001 0.500000 0.275423 0.076002
C205  C     C_R   1.000000 0.499999 0.224577 0.076002
C206  C     C_R   0.500000 0.999999 0.224576 0.076096
C207  C     C_R   0.000001 0.500000 0.775424 0.076096
C208  C     C_R   0.500002 0.999999 0.775423 0.076002
C209  C     C_R   0.451306 0.960671 0.724186 -0.264909
C210  C     C_R   0.039389 0.451320 0.724181 -0.263895
C211  C     C_R   0.548696 0.039325 0.724182 -0.264910
C212  C     C_R   0.960611 0.548678 0.724180 -0.263896
C213  C     C_R   0.451322 0.039389 0.275819 -0.263895
C214  C     C_R   0.039327 0.548695 0.275814 -0.264909
C215  C     C_R   0.548681 0.960612 0.275819 -0.263896
C216  C     C_R   0.960674 0.451305 0.275817 -0.264911
C217  C     C_R   0.951305 0.460673 0.224186 -0.264910
C218  C     C_R   0.539390 0.951321 0.224181 -0.263895
C219  C     C_R   0.048695 0.539326 0.224183 -0.264910
C220  C     C_R   0.460611 0.048678 0.224180 -0.263894
C221  C     C_R   0.951322 0.539389 0.775819 -0.263895
C222  C     C_R   0.539329 0.048694 0.775814 -0.264907
C223  C     C_R   0.048680 0.460611 0.775819 -0.263895
C224  C     C_R   0.460675 0.951304 0.775817 -0.264910
C225  C     C_R   0.450733 0.960515 0.699187 -0.009412
C226  C     C_R   0.039579 0.450773 0.699184 -0.011022
C227  C     C_R   0.549269 0.039481 0.699183 -0.009411
C228  C     C_R   0.960421 0.549224 0.699183 -0.011023
C229  C     C_R   0.450776 0.039579 0.300817 -0.011024
C230  C     C_R   0.039484 0.549269 0.300813 -0.009413
C231  C     C_R   0.549228 0.960422 0.300816 -0.011023
C232  C     C_R   0.960518 0.450732 0.300816 -0.009411
C233  C     C_R   0.950732 0.460516 0.199187 -0.009412
C234  C     C_R   0.539579 0.950773 0.199184 -0.011022
C235  C     C_R   0.049267 0.539482 0.199184 -0.009411
C236  C     C_R   0.460421 0.049224 0.199183 -0.011024
C237  C     C_R   0.950776 0.539579 0.800817 -0.011022
C238  C     C_R   0.539485 0.049267 0.800813 -0.009413
C239  C     C_R   0.049227 0.460421 0.800816 -0.011023
C240  C     C_R   0.460519 0.950732 0.800816 -0.009410
C241  C     C_R   0.474603 0.981044 0.686283 -0.037808
C242  C     C_R   0.019017 0.474631 0.686280 -0.037711
C243  C     C_R   0.525397 0.018951 0.686281 -0.037805
C244  C     C_R   0.980982 0.525366 0.686280 -0.037711
C245  C     C_R   0.474635 0.019018 0.313720 -0.037711
C246  C     C_R   0.018954 0.525398 0.313717 -0.037808
C247  C     C_R   0.525369 0.980983 0.313720 -0.037711
C248  C     C_R   0.981048 0.474604 0.313718 -0.037804
C249  C     C_R   0.974602 0.481046 0.186283 -0.037808
C250  C     C_R   0.519018 0.974632 0.186280 -0.037711
C251  C     C_R   0.025396 0.518952 0.186281 -0.037804
C252  C     C_R   0.480982 0.025366 0.186279 -0.037710
C253  C     C_R   0.974634 0.519018 0.813720 -0.037711
C254  C     C_R   0.518956 0.025397 0.813716 -0.037808
C255  C     C_R   0.025369 0.480983 0.813720 -0.037712
C256  C     C_R   0.481049 0.974603 0.813718 -0.037805
C257  C     C_R   0.500000 0.999998 0.699051 -0.072778
C258  C     C_R   1.000000 0.499999 0.699049 -0.071912
C259  C     C_R   0.500002 0.000001 0.300951 -0.071912
C260  C     C_R   0.000001 0.500001 0.300949 -0.072778
C261  C     C_R   0.999999 0.499999 0.199051 -0.072778
C262  C     C_R   0.500000 0.999999 0.199049 -0.071913
C263  C     C_R   0.000001 0.500000 0.800951 -0.071912
C264  C     C_R   0.500002 1.000000 0.800949 -0.072777
C265  C     C_R   0.473430 0.984604 0.661100 0.650235
C266  C     C_R   0.015487 0.473469 0.661095 0.650209
C267  C     C_R   0.526569 0.015390 0.661098 0.650221
C268  C     C_R   0.984512 0.526527 0.661095 0.650216
C269  C     C_R   0.473473 0.015488 0.338905 0.650216
C270  C     C_R   0.015395 0.526570 0.338900 0.650235
C271  C     C_R   0.526531 0.984514 0.338905 0.650209
C272  C     C_R   0.984609 0.473432 0.338901 0.650219
C273  C     C_R   0.973430 0.484605 0.161100 0.650236
C274  C     C_R   0.515487 0.973470 0.161095 0.650210
C275  C     C_R   0.026568 0.515391 0.161098 0.650220
C276  C     C_R   0.484512 0.026527 0.161095 0.650215
C277  C     C_R   0.973473 0.515488 0.838905 0.650215
C278  C     C_R   0.515396 0.026569 0.838900 0.650236
C279  C     C_R   0.026531 0.484513 0.838905 0.650209
C280  C     C_R   0.484610 0.973431 0.838901 0.650221
H1    H     H_    0.431340 0.946095 0.733035 0.135531
H2    H     H_    0.053983 0.431349 0.733023 0.135803
H3    H     H_    0.568663 0.053902 0.733030 0.135531
H4    H     H_    0.946017 0.568649 0.733022 0.135803
H5    H     H_    0.431351 0.053982 0.266978 0.135803
H6    H     H_    0.053904 0.568662 0.266965 0.135531
H7    H     H_    0.568652 0.946018 0.266977 0.135804
H8    H     H_    0.946097 0.431339 0.266970 0.135531
H9    H     H_    0.931339 0.446096 0.233035 0.135531
H10   H     H_    0.553984 0.931350 0.233023 0.135803
H11   H     H_    0.068661 0.553904 0.233030 0.135531
H12   H     H_    0.446017 0.068649 0.233022 0.135803
H13   H     H_    0.931351 0.553983 0.766978 0.135803
H14   H     H_    0.553906 0.068660 0.766965 0.135531
H15   H     H_    0.068651 0.446017 0.766977 0.135803
H16   H     H_    0.446098 0.931338 0.766970 0.135531
N1    N     N_R   0.499999 0.999997 0.649215 -0.315615
N2    N     N_R   0.999999 0.499998 0.649215 -0.316140
N3    N     N_R   0.500002 0.000001 0.350785 -0.316140
N4    N     N_R   0.000002 0.500001 0.350785 -0.315615
N5    N     N_R   0.999999 0.499998 0.149215 -0.315615
N6    N     N_R   0.500000 0.999998 0.149215 -0.316140
N7    N     N_R   0.000002 0.500000 0.850785 -0.316140
N8    N     N_R   0.500003 0.000000 0.850785 -0.315615
N9    N     N_R   0.523650 0.765681 0.484674 -0.127687
N10   N     N_R   0.233474 0.521984 0.487744 -0.144828
N11   N     N_R   0.476351 0.234321 0.484676 -0.127687
N12   N     N_R   0.766527 0.478016 0.487743 -0.144827
N13   N     N_R   0.521984 0.233473 0.512257 -0.144827
N14   N     N_R   0.234319 0.476349 0.515325 -0.127687
N15   N     N_R   0.478016 0.766526 0.512256 -0.144828
N16   N     N_R   0.765679 0.523648 0.515324 -0.127687
N17   N     N_R   0.023651 0.265681 0.984674 -0.127687
N18   N     N_R   0.733474 0.021984 0.987744 -0.144828
N19   N     N_R   0.976352 0.734321 0.984676 -0.127687
N20   N     N_R   0.266527 0.978016 0.987742 -0.144827
N21   N     N_R   0.021984 0.733473 0.012257 -0.144827
N22   N     N_R   0.734319 0.976350 0.015326 -0.127688
N23   N     N_R   0.978016 0.266526 0.012256 -0.144828
N24   N     N_R   0.265679 0.023648 0.015324 -0.127687
N25   N     N_R   0.523518 0.731442 0.485075 -0.121960
N26   N     N_R   0.267707 0.522145 0.487362 -0.127147
N27   N     N_R   0.476484 0.268560 0.485077 -0.121962
N28   N     N_R   0.732295 0.477854 0.487360 -0.127143
N29   N     N_R   0.522146 0.267705 0.512640 -0.127143
N30   N     N_R   0.268558 0.476482 0.514925 -0.121959
N31   N     N_R   0.477855 0.732293 0.512637 -0.127147
N32   N     N_R   0.731440 0.523516 0.514923 -0.121962
N33   N     N_R   0.023518 0.231442 0.985075 -0.121959
N34   N     N_R   0.767707 0.022145 0.987362 -0.127147
N35   N     N_R   0.976484 0.768560 0.985077 -0.121962
N36   N     N_R   0.232295 0.977854 0.987360 -0.127143
N37   N     N_R   0.022146 0.767705 0.012639 -0.127143
N38   N     N_R   0.768558 0.976482 0.014925 -0.121959
N39   N     N_R   0.977855 0.232293 0.012637 -0.127148
N40   N     N_R   0.231440 0.023516 0.014923 -0.121962
O1    O     O_R   0.528740 0.949070 0.500010 -0.642063
O2    O     O_R   0.050930 0.528740 0.500010 -0.631394
O3    O     O_R   0.471260 0.050930 0.500010 -0.642063
O4    O     O_R   0.949070 0.471260 0.500010 -0.631397
O5    O     O_R   0.528740 0.050930 0.499990 -0.631397
O6    O     O_R   0.050930 0.471260 0.499990 -0.642064
O7    O     O_R   0.471260 0.949070 0.499990 -0.631394
O8    O     O_R   0.949070 0.528740 0.499990 -0.642063
O9    O     O_R   0.028740 0.449070 0.000010 -0.642063
O10   O     O_R   0.550930 0.028740 0.000010 -0.631394
O11   O     O_R   0.971260 0.550930 0.000010 -0.642063
O12   O     O_R   0.449070 0.971260 0.000010 -0.631397
O13   O     O_R   0.028740 0.550930 0.999990 -0.631397
O14   O     O_R   0.550930 0.971260 0.999990 -0.642063
O15   O     O_R   0.971260 0.449070 0.999990 -0.631394
O16   O     O_R   0.449070 0.028740 0.999990 -0.642063
O17   O     O_R   0.528740 0.999980 0.535640 -0.619085
O18   O     O_R   0.000020 0.528740 0.535640 -0.614578
O19   O     O_R   0.471260 0.000020 0.535640 -0.619087
O20   O     O_R   0.999980 0.471260 0.535640 -0.614581
O21   O     O_R   0.528740 0.000020 0.464360 -0.614581
O22   O     O_R   0.000020 0.471260 0.464360 -0.619085
O23   O     O_R   0.471260 0.999980 0.464360 -0.614578
O24   O     O_R   0.999980 0.528740 0.464360 -0.619087
O25   O     O_R   0.028740 0.499980 0.035640 -0.619085
O26   O     O_R   0.500020 0.028740 0.035640 -0.614578
O27   O     O_R   0.971260 0.500020 0.035640 -0.619087
O28   O     O_R   0.499980 0.971260 0.035640 -0.614582
O29   O     O_R   0.028740 0.500020 0.964360 -0.614581
O30   O     O_R   0.500020 0.971260 0.964360 -0.619084
O31   O     O_R   0.971260 0.499980 0.964360 -0.614578
O32   O     O_R   0.499980 0.028740 0.964360 -0.619087
O33   O     O_2   0.445966 0.973523 0.648424 -0.514647
O34   O     O_2   0.026683 0.446049 0.648411 -0.513109
O35   O     O_2   0.554033 0.026470 0.648420 -0.514649
O36   O     O_2   0.973316 0.553947 0.648410 -0.513106
O37   O     O_2   0.446053 0.026684 0.351590 -0.513107
O38   O     O_2   0.026476 0.554035 0.351576 -0.514647
O39   O     O_2   0.553951 0.973317 0.351589 -0.513108
O40   O     O_2   0.973529 0.445967 0.351579 -0.514648
O41   O     O_2   0.945966 0.473524 0.148424 -0.514647
O42   O     O_2   0.526684 0.946050 0.148411 -0.513108
O43   O     O_2   0.054033 0.526471 0.148421 -0.514648
O44   O     O_2   0.473315 0.053947 0.148410 -0.513107
O45   O     O_2   0.946053 0.526684 0.851590 -0.513107
O46   O     O_2   0.526477 0.054034 0.851576 -0.514648
O47   O     O_2   0.053951 0.473317 0.851589 -0.513108
O48   O     O_2   0.473529 0.945967 0.851580 -0.514648
O49   O     O_R   0.449130 0.499960 0.520110 -0.615737
O50   O     O_R   0.500040 0.449130 0.520110 -0.615966
O51   O     O_R   0.550870 0.500040 0.520110 -0.615737
O52   O     O_R   0.499960 0.550870 0.520110 -0.615966
O53   O     O_R   0.449130 0.500040 0.479890 -0.615966
O54   O     O_R   0.500040 0.550870 0.479890 -0.615737
O55   O     O_R   0.550870 0.499960 0.479890 -0.615967
O56   O     O_R   0.499960 0.449130 0.479890 -0.615737
O57   O     O_R   0.949130 0.999960 0.020110 -0.615737
O58   O     O_R   0.000040 0.949130 0.020110 -0.615966
O59   O     O_R   0.050870 0.000040 0.020110 -0.615737
O60   O     O_R   0.999960 0.050870 0.020110 -0.615966
O61   O     O_R   0.949130 0.000040 0.979890 -0.615966
O62   O     O_R   0.000040 0.050870 0.979890 -0.615737
O63   O     O_R   0.050870 0.999960 0.979890 -0.615966
O64   O     O_R   0.999960 0.949130 0.979890 -0.615737
Zn1   Zn    Zn3+2 0.538390 0.000000 0.500000 0.975152
Zn2   Zn    Zn3+2 1.000000 0.538390 0.500000 0.975155
Zn3   Zn    Zn3+2 0.461610 0.000000 0.500000 0.975155
Zn4   Zn    Zn3+2 0.000000 0.461610 0.500000 0.975152
Zn5   Zn    Zn3+2 0.038390 0.500000 0.000000 0.975152
Zn6   Zn    Zn3+2 0.500000 0.038390 0.000000 0.975155
Zn7   Zn    Zn3+2 0.961610 0.500000 0.000000 0.975155
Zn8   Zn    Zn3+2 0.500000 0.961610 0.000000 0.975152
Zn9   Zn    Zn3+2 0.500000 0.500000 0.526870 0.937850
Zn10  Zn    Zn3+2 0.500000 0.500000 0.473130 0.937850
Zn11  Zn    Zn3+2 1.000000 0.000000 0.026870 0.937850
Zn12  Zn    Zn3+2 1.000000 0.000000 0.973130 0.937850
C281  C     C_2   0.426256 0.936065 0.687860 0.528212
H17   H     H_    0.400225 0.933764 0.694842 0.044123
O65   O     O_2   0.435672 0.916454 0.672001 -0.499207
C282  C     C_2   0.064084 0.426325 0.687860 0.530672
H18   H     H_    0.066396 0.400280 0.694818 0.044949
O66   O     O_2   0.083724 0.435782 0.672034 -0.495772
C283  C     C_2   0.573745 0.063931 0.687854 0.528210
H19   H     H_    0.599775 0.066233 0.694835 0.044123
O67   O     O_2   0.564327 0.083541 0.671994 -0.499213
C284  C     C_2   0.935915 0.573671 0.687860 0.530672
H20   H     H_    0.933602 0.599716 0.694817 0.044949
O68   O     O_2   0.916275 0.564214 0.672035 -0.495771
C285  C     C_2   0.426329 0.064085 0.312140 0.530673
H21   H     H_    0.400284 0.066397 0.305183 0.044948
O69   O     O_2   0.435785 0.083725 0.327965 -0.495771
C286  C     C_2   0.063934 0.573746 0.312140 0.528214
H22   H     H_    0.066235 0.599776 0.305158 0.044123
O70   O     O_2   0.083545 0.564329 0.327999 -0.499209
C287  C     C_2   0.573676 0.935917 0.312140 0.530674
H23   H     H_    0.599720 0.933605 0.305182 0.044948
O71   O     O_2   0.564219 0.916277 0.327966 -0.495772
C288  C     C_2   0.936068 0.426256 0.312146 0.528209
H24   H     H_    0.933765 0.400226 0.305165 0.044123
O72   O     O_2   0.916458 0.435674 0.328006 -0.499212
C289  C     C_2   0.926255 0.436066 0.187860 0.528210
H25   H     H_    0.900224 0.433765 0.194842 0.044124
O73   O     O_2   0.935672 0.416455 0.172001 -0.499207
C290  C     C_2   0.564085 0.926326 0.187860 0.530671
H26   H     H_    0.566398 0.900281 0.194818 0.044948
O74   O     O_2   0.583725 0.935783 0.172034 -0.495771
C291  C     C_2   0.073743 0.563933 0.187854 0.528208
H27   H     H_    0.099774 0.566235 0.194835 0.044123
O75   O     O_2   0.064326 0.583542 0.171994 -0.499212
C292  C     C_2   0.435915 0.073671 0.187860 0.530674
H28   H     H_    0.433602 0.099716 0.194817 0.044948
O76   O     O_2   0.416275 0.064214 0.172035 -0.495771
C293  C     C_2   0.926329 0.564085 0.812140 0.530672
H29   H     H_    0.900284 0.566398 0.805183 0.044948
O77   O     O_2   0.935786 0.583725 0.827965 -0.495771
C294  C     C_2   0.563936 0.073744 0.812140 0.528211
H30   H     H_    0.566237 0.099775 0.805158 0.044123
O78   O     O_2   0.583546 0.064327 0.827999 -0.499207
C295  C     C_2   0.073674 0.435916 0.812140 0.530675
H31   H     H_    0.099719 0.433603 0.805182 0.044949
O79   O     O_2   0.064218 0.416276 0.827966 -0.495773
C296  C     C_2   0.436069 0.926256 0.812146 0.528210
H32   H     H_    0.433766 0.900225 0.805165 0.044123
O80   O     O_2   0.416459 0.935673 0.828006 -0.499213
C297  C     C_2   0.479023 0.062243 0.623626 0.501313
H33   H     H_    0.477811 0.086673 0.614193 0.115472
O81   O     O_2   0.469615 0.061684 0.644542 -0.561044
C298  C     C_2   0.937976 0.478411 0.623637 0.502543
H34   H     H_    0.913598 0.476789 0.614173 0.117507
O82   O     O_2   0.938579 0.469224 0.644600 -0.560472
C299  C     C_2   0.520975 0.937752 0.623625 0.501316
H35   H     H_    0.522188 0.913323 0.614193 0.115471
O83   O     O_2   0.530381 0.938310 0.644541 -0.561041
C300  C     C_2   0.062023 0.521584 0.623636 0.502545
H36   H     H_    0.086402 0.523205 0.614171 0.117507
O84   O     O_2   0.061420 0.530773 0.644598 -0.560473
C301  C     C_2   0.478416 0.937977 0.376364 0.502544
H37   H     H_    0.476795 0.913598 0.385829 0.117507
O85   O     O_2   0.469228 0.938580 0.355402 -0.560473
C302  C     C_2   0.937757 0.520977 0.376375 0.501314
H38   H     H_    0.913326 0.522189 0.385807 0.115472
O86   O     O_2   0.938315 0.530386 0.355459 -0.561043
C303  C     C_2   0.521589 0.062024 0.376363 0.502543
H39   H     H_    0.523211 0.086402 0.385827 0.117508
O87   O     O_2   0.530776 0.061421 0.355400 -0.560473
C304  C     C_2   0.062247 0.479026 0.376374 0.501316
H40   H     H_    0.086676 0.477812 0.385807 0.115471
O88   O     O_2   0.061690 0.469619 0.355458 -0.561042
C305  C     C_2   0.979023 0.562243 0.123625 0.501314
H41   H     H_    0.977811 0.586673 0.114193 0.115471
O89   O     O_2   0.969614 0.561685 0.144541 -0.561044
C306  C     C_2   0.437977 0.978410 0.123637 0.502543
H42   H     H_    0.413598 0.976788 0.114173 0.117508
O90   O     O_2   0.438580 0.969224 0.144601 -0.560473
C307  C     C_2   0.020974 0.437753 0.123625 0.501313
H43   H     H_    0.022188 0.413324 0.114193 0.115471
O91   O     O_2   0.030381 0.438311 0.144542 -0.561041
C308  C     C_2   0.562023 0.021586 0.123635 0.502544
H44   H     H_    0.586402 0.023207 0.114171 0.117508
O92   O     O_2   0.561419 0.030773 0.144598 -0.560473
C309  C     C_2   0.978415 0.437977 0.876364 0.502547
H45   H     H_    0.976794 0.413598 0.885829 0.117507
O93   O     O_2   0.969227 0.438580 0.855402 -0.560474
C310  C     C_2   0.437757 0.020977 0.876374 0.501313
H46   H     H_    0.413327 0.022189 0.885807 0.115472
O94   O     O_2   0.438316 0.030386 0.855458 -0.561043
C311  C     C_2   0.021589 0.562023 0.876363 0.502543
H47   H     H_    0.023211 0.586402 0.885827 0.117508
O95   O     O_2   0.030776 0.561420 0.855399 -0.560472
C312  C     C_2   0.562247 0.979025 0.876375 0.501315
H48   H     H_    0.586677 0.977811 0.885807 0.115471
O96   O     O_2   0.561690 0.969618 0.855459 -0.561041
N41   N     N_2   0.484342 0.061477 0.572819 -0.308347
H49   H     H_    0.468615 0.058143 0.558100 0.267555
C313  C     C_3   0.514223 0.082488 0.567578 -0.738674
H50   H     H_    0.531604 0.068925 0.554832 0.239225
H51   H     H_    0.528551 0.088515 0.584343 0.254708
H52   H     H_    0.505843 0.107134 0.559284 0.260664
N42   N     N_2   0.938703 0.483659 0.572833 -0.311180
H53   H     H_    0.942203 0.467994 0.558102 0.277025
C314  C     C_3   0.917282 0.513280 0.567638 -0.707809
H54   H     H_    0.930536 0.530782 0.554821 0.238184
H55   H     H_    0.911199 0.527582 0.584407 0.252668
H56   H     H_    0.892679 0.504582 0.559454 0.269438
N43   N     N_2   0.515656 0.938521 0.572818 -0.308349
H57   H     H_    0.531383 0.941856 0.558099 0.267556
C315  C     C_3   0.485775 0.917509 0.567579 -0.738676
H58   H     H_    0.468394 0.931073 0.554834 0.239224
H59   H     H_    0.471447 0.911481 0.584345 0.254708
H60   H     H_    0.494155 0.892865 0.559284 0.260664
N44   N     N_2   0.061297 0.516338 0.572831 -0.311177
H61   H     H_    0.057797 0.532004 0.558100 0.277030
C316  C     C_3   0.082718 0.486717 0.567637 -0.707816
H62   H     H_    0.069465 0.469215 0.554821 0.238185
H63   H     H_    0.088801 0.472415 0.584406 0.252667
H64   H     H_    0.107321 0.495415 0.559451 0.269436
N45   N     N_2   0.483662 0.938703 0.427168 -0.311177
H65   H     H_    0.467996 0.942203 0.441900 0.277030
C317  C     C_3   0.513283 0.917282 0.432363 -0.707817
H66   H     H_    0.530785 0.930535 0.445179 0.238185
H67   H     H_    0.527584 0.911199 0.415594 0.252667
H68   H     H_    0.504585 0.892679 0.440548 0.269437
N46   N     N_2   0.938523 0.515658 0.427181 -0.308347
H69   H     H_    0.941857 0.531385 0.441900 0.267555
C318  C     C_3   0.917511 0.485776 0.432422 -0.738676
H70   H     H_    0.931075 0.468395 0.445168 0.239226
H71   H     H_    0.911484 0.471448 0.415657 0.254708
H72   H     H_    0.892866 0.494157 0.440716 0.260663
N47   N     N_2   0.516341 0.061297 0.427167 -0.311180
H73   H     H_    0.532006 0.057797 0.441898 0.277025
C319  C     C_3   0.486719 0.082718 0.432362 -0.707812
H74   H     H_    0.469218 0.069464 0.445178 0.238185
H75   H     H_    0.472418 0.088801 0.415593 0.252668
H76   H     H_    0.495417 0.107321 0.440546 0.269439
N48   N     N_2   0.061478 0.484344 0.427181 -0.308349
H77   H     H_    0.058144 0.468617 0.441900 0.267556
C320  C     C_3   0.082490 0.514225 0.432421 -0.738677
H78   H     H_    0.068927 0.531606 0.445166 0.239224
H79   H     H_    0.088518 0.528553 0.415655 0.254707
H80   H     H_    0.107135 0.505845 0.440715 0.260664
N49   N     N_2   0.984342 0.561477 0.072818 -0.308347
H81   H     H_    0.968615 0.558143 0.058100 0.267555
C321  C     C_3   0.014223 0.582489 0.067578 -0.738674
H82   H     H_    0.031604 0.568925 0.054832 0.239225
H83   H     H_    0.028551 0.588516 0.084343 0.254708
H84   H     H_    0.005843 0.607134 0.059284 0.260663
N50   N     N_2   0.438703 0.983658 0.072833 -0.311181
H85   H     H_    0.442204 0.967993 0.058102 0.277025
C322  C     C_3   0.417282 0.013279 0.067639 -0.707808
H86   H     H_    0.430535 0.030781 0.054821 0.238183
H87   H     H_    0.411198 0.027580 0.084407 0.252668
H88   H     H_    0.392679 0.004581 0.059454 0.269439
N51   N     N_2   0.015656 0.438522 0.072819 -0.308349
H89   H     H_    0.031383 0.441856 0.058100 0.267557
C323  C     C_3   0.985775 0.417510 0.067579 -0.738679
H90   H     H_    0.968394 0.431073 0.054834 0.239225
H91   H     H_    0.971447 0.411482 0.084345 0.254707
H92   H     H_    0.994156 0.392865 0.059285 0.260665
N52   N     N_2   0.561297 0.016339 0.072831 -0.311178
H93   H     H_    0.557796 0.032005 0.058100 0.277030
C324  C     C_3   0.582718 0.986718 0.067637 -0.707816
H94   H     H_    0.569465 0.969216 0.054821 0.238184
H95   H     H_    0.588802 0.972417 0.084406 0.252667
H96   H     H_    0.607321 0.995417 0.059451 0.269437
N53   N     N_2   0.983661 0.438703 0.927168 -0.311177
H97   H     H_    0.967996 0.442203 0.941900 0.277029
C325  C     C_3   0.013282 0.417282 0.932363 -0.707816
H98   H     H_    0.030784 0.430535 0.945179 0.238185
H99   H     H_    0.027584 0.411199 0.915594 0.252667
H100  H     H_    0.004584 0.392679 0.940548 0.269437
N54   N     N_2   0.438523 0.015658 0.927181 -0.308348
H101  H     H_    0.441857 0.031385 0.941900 0.267556
C326  C     C_3   0.417511 0.985777 0.932422 -0.738675
H102  H     H_    0.431075 0.968396 0.945168 0.239225
H103  H     H_    0.411484 0.971449 0.915656 0.254708
H104  H     H_    0.392866 0.994157 0.940716 0.260664
N55   N     N_2   0.016341 0.561297 0.927167 -0.311180
H105  H     H_    0.032007 0.557796 0.941898 0.277025
C327  C     C_3   0.986720 0.582718 0.932361 -0.707808
H106  H     H_    0.969218 0.569465 0.945179 0.238183
H107  H     H_    0.972419 0.588801 0.915593 0.252668
H108  H     H_    0.995418 0.607321 0.940546 0.269438
N56   N     N_2   0.561479 0.984344 0.927182 -0.308349
H109  H     H_    0.558144 0.968616 0.941901 0.267556
C328  C     C_3   0.582490 0.014225 0.932421 -0.738678
H110  H     H_    0.568927 0.031606 0.945166 0.239224
H111  H     H_    0.588519 0.028553 0.915655 0.254707
H112  H     H_    0.607136 0.005844 0.940715 0.260664
C329  C     C_2   0.441309 0.893730 0.479366 0.348382
H113  H     H_    0.425632 0.910536 0.490446 0.112950
O97   O     O_2   0.433048 0.889124 0.458445 -0.555683
C330  C     C_2   0.106834 0.442361 0.478604 0.490511
H114  H     H_    0.088418 0.426210 0.487955 0.102479
O98   O     O_2   0.113668 0.435905 0.457670 -0.548860
C331  C     C_2   0.558690 0.106271 0.479363 0.348366
H115  H     H_    0.574366 0.089463 0.490441 0.112955
O99   O     O_2   0.566950 0.110879 0.458442 -0.555684
C332  C     C_2   0.893167 0.557639 0.478602 0.490502
H116  H     H_    0.911583 0.573789 0.487953 0.102481
O100  O     O_2   0.886333 0.564096 0.457669 -0.548858
C333  C     C_2   0.442361 0.106833 0.521398 0.490502
H117  H     H_    0.426210 0.088417 0.512047 0.102481
O101  O     O_2   0.435904 0.113667 0.542331 -0.548859
C334  C     C_2   0.106270 0.558691 0.520634 0.348379
H118  H     H_    0.089464 0.574367 0.509554 0.112950
O102  O     O_2   0.110876 0.566951 0.541555 -0.555682
C335  C     C_2   0.557639 0.893165 0.521396 0.490510
H119  H     H_    0.573790 0.911582 0.512044 0.102479
O103  O     O_2   0.564095 0.886332 0.542330 -0.548860
C336  C     C_2   0.893729 0.441310 0.520637 0.348364
H120  H     H_    0.910537 0.425634 0.509559 0.112956
O104  O     O_2   0.889121 0.433050 0.541558 -0.555683
C337  C     C_2   0.941309 0.393730 0.979366 0.348381
H121  H     H_    0.925632 0.410536 0.990446 0.112950
O105  O     O_2   0.933048 0.389124 0.958446 -0.555683
C338  C     C_2   0.606835 0.942361 0.978604 0.490513
H122  H     H_    0.588418 0.926209 0.987956 0.102478
O106  O     O_2   0.613668 0.935905 0.957670 -0.548861
C339  C     C_2   0.058690 0.606271 0.979363 0.348367
H123  H     H_    0.074366 0.589463 0.990441 0.112955
O107  O     O_2   0.066950 0.610879 0.958442 -0.555684
C340  C     C_2   0.393167 0.057639 0.978602 0.490499
H124  H     H_    0.411583 0.073789 0.987953 0.102481
O108  O     O_2   0.386333 0.064096 0.957669 -0.548857
C341  C     C_2   0.942361 0.606833 0.021397 0.490499
H125  H     H_    0.926210 0.588417 0.012046 0.102481
O109  O     O_2   0.935903 0.613667 0.042331 -0.548857
C342  C     C_2   0.606270 0.058691 0.020633 0.348382
H126  H     H_    0.589464 0.074368 0.009554 0.112949
O110  O     O_2   0.610876 0.066952 0.041554 -0.555683
C343  C     C_2   0.057639 0.393166 0.021396 0.490511
H127  H     H_    0.073790 0.411582 0.012045 0.102479
O111  O     O_2   0.064095 0.386332 0.042330 -0.548861
C344  C     C_2   0.393729 0.941310 0.020637 0.348366
H128  H     H_    0.410537 0.925634 0.009559 0.112956
O112  O     O_2   0.389120 0.933050 0.041558 -0.555685
C345  C     C_2   0.441945 0.820149 0.478826 0.513257
H129  H     H_    0.416049 0.830163 0.481239 0.073172
O113  O     O_2   0.445713 0.793825 0.467080 -0.493649
C346  C     C_2   0.181046 0.439865 0.483879 0.507071
H130  H     H_    0.206054 0.443418 0.475496 0.091014
O114  O     O_2   0.170439 0.410508 0.486720 -0.518801
C347  C     C_2   0.558055 0.179852 0.478824 0.513259
H131  H     H_    0.583951 0.169837 0.481236 0.073172
O115  O     O_2   0.554288 0.206178 0.467080 -0.493648
C348  C     C_2   0.818955 0.560134 0.483877 0.507077
H132  H     H_    0.793947 0.556581 0.475495 0.091012
O116  O     O_2   0.829561 0.589491 0.486718 -0.518798
C349  C     C_2   0.439866 0.181045 0.516123 0.507079
H133  H     H_    0.443418 0.206053 0.524505 0.091011
O117  O     O_2   0.410509 0.170439 0.513282 -0.518799
C350  C     C_2   0.179851 0.558055 0.521174 0.513256
H134  H     H_    0.169837 0.583951 0.518761 0.073172
O118  O     O_2   0.206175 0.554287 0.532920 -0.493647
C351  C     C_2   0.560135 0.818954 0.516121 0.507073
H135  H     H_    0.556582 0.793946 0.524503 0.091014
O119  O     O_2   0.589492 0.829561 0.513279 -0.518802
C352  C     C_2   0.820148 0.441944 0.521176 0.513257
H136  H     H_    0.830163 0.416048 0.518764 0.073172
O120  O     O_2   0.793822 0.445712 0.532920 -0.493647
C353  C     C_2   0.941945 0.320149 0.978826 0.513255
H137  H     H_    0.916049 0.330162 0.981239 0.073172
O121  O     O_2   0.945713 0.293824 0.967080 -0.493647
C354  C     C_2   0.681046 0.939865 0.983879 0.507071
H138  H     H_    0.706054 0.943418 0.975497 0.091014
O122  O     O_2   0.670439 0.910508 0.986721 -0.518802
C355  C     C_2   0.058056 0.679852 0.978825 0.513258
H139  H     H_    0.083952 0.669837 0.981236 0.073173
O123  O     O_2   0.054288 0.706178 0.967080 -0.493648
C356  C     C_2   0.318955 0.060134 0.983877 0.507077
H140  H     H_    0.293947 0.056581 0.975495 0.091012
O124  O     O_2   0.329561 0.089491 0.986718 -0.518798
C357  C     C_2   0.939866 0.681045 0.016123 0.507078
H141  H     H_    0.943419 0.706053 0.024505 0.091011
O125  O     O_2   0.910509 0.670439 0.013281 -0.518799
C358  C     C_2   0.679851 0.058055 0.021174 0.513256
H142  H     H_    0.669837 0.083951 0.018761 0.073171
O126  O     O_2   0.706175 0.054287 0.032919 -0.493648
C359  C     C_2   0.060135 0.318954 0.016121 0.507071
H143  H     H_    0.056582 0.293946 0.024503 0.091014
O127  O     O_2   0.089492 0.329561 0.013279 -0.518801
C360  C     C_2   0.320148 0.941945 0.021175 0.513256
H144  H     H_    0.330162 0.916048 0.018764 0.073173
O128  O     O_2   0.293822 0.945712 0.032919 -0.493647
C361  C     C_2   0.445443 0.677193 0.474285 0.428231
H145  H     H_    0.420860 0.664375 0.471687 0.102694
O129  O     O_2   0.449099 0.706048 0.465907 -0.511220
C362  C     C_2   0.322673 0.444845 0.475309 0.419546
H146  H     H_    0.335764 0.420494 0.472299 0.111374
O130  O     O_2   0.293414 0.448140 0.467556 -0.568043
C363  C     C_2   0.554560 0.322808 0.474287 0.428230
H147  H     H_    0.579142 0.335627 0.471688 0.102694
O131  O     O_2   0.550904 0.293953 0.465909 -0.511219
C364  C     C_2   0.677328 0.555152 0.475305 0.419543
H148  H     H_    0.664238 0.579503 0.472294 0.111376
O132  O     O_2   0.706588 0.551857 0.467552 -0.568042
C365  C     C_2   0.444847 0.322672 0.524695 0.419545
H149  H     H_    0.420496 0.335762 0.527706 0.111375
O133  O     O_2   0.448142 0.293412 0.532447 -0.568043
C366  C     C_2   0.322807 0.554557 0.525715 0.428231
H150  H     H_    0.335625 0.579139 0.528313 0.102694
O134  O     O_2   0.293952 0.550900 0.534093 -0.511220
C367  C     C_2   0.555155 0.677327 0.524691 0.419546
H151  H     H_    0.579506 0.664236 0.527701 0.111374
O135  O     O_2   0.551859 0.706586 0.532443 -0.568043
C368  C     C_2   0.677192 0.445440 0.525713 0.428230
H152  H     H_    0.664373 0.420858 0.528312 0.102693
O136  O     O_2   0.706046 0.449096 0.534091 -0.511219
C369  C     C_2   0.945443 0.177193 0.974285 0.428231
H153  H     H_    0.920861 0.164375 0.971687 0.102694
O137  O     O_2   0.949100 0.206048 0.965907 -0.511220
C370  C     C_2   0.822673 0.944845 0.975309 0.419546
H154  H     H_    0.835764 0.920494 0.972299 0.111374
O138  O     O_2   0.793414 0.948140 0.967557 -0.568043
C371  C     C_2   0.054560 0.822808 0.974287 0.428231
H155  H     H_    0.079142 0.835627 0.971688 0.102694
O139  O     O_2   0.050904 0.793954 0.965909 -0.511220
C372  C     C_2   0.177328 0.055153 0.975305 0.419544
H156  H     H_    0.164238 0.079504 0.972294 0.111375
O140  O     O_2   0.206588 0.051858 0.967552 -0.568042
C373  C     C_2   0.944847 0.822672 0.024695 0.419546
H157  H     H_    0.920496 0.835762 0.027706 0.111375
O141  O     O_2   0.948142 0.793412 0.032447 -0.568043
C374  C     C_2   0.822807 0.054557 0.025715 0.428231
H158  H     H_    0.835625 0.079140 0.028313 0.102694
O142  O     O_2   0.793952 0.050901 0.034093 -0.511220
C375  C     C_2   0.055155 0.177327 0.024691 0.419548
H159  H     H_    0.079506 0.164236 0.027701 0.111374
O143  O     O_2   0.051860 0.206586 0.032443 -0.568044
C376  C     C_2   0.177192 0.945440 0.025713 0.428232
H160  H     H_    0.164373 0.920858 0.028312 0.102693
O144  O     O_2   0.206046 0.949096 0.034091 -0.511220
N57   N     N_2   0.448357 0.604430 0.473852 -0.329726
H161  H     H_    0.440380 0.581539 0.481409 0.223503
C377  C     C_3   0.454048 0.601927 0.448197 -0.707382
H162  H     H_    0.477736 0.586836 0.444352 0.256491
H163  H     H_    0.456651 0.627910 0.440044 0.245096
H164  H     H_    0.431738 0.588817 0.439673 0.235690
N58   N     N_2   0.395395 0.448413 0.473965 -0.329376
H165  H     H_    0.418457 0.440493 0.481307 0.224515
C378  C     C_3   0.397418 0.454315 0.448317 -0.709471
H166  H     H_    0.412349 0.478084 0.444440 0.255981
H167  H     H_    0.371272 0.456896 0.440411 0.244279
H168  H     H_    0.410464 0.432115 0.439594 0.237110
N59   N     N_2   0.551645 0.395571 0.473852 -0.329726
H169  H     H_    0.559621 0.418462 0.481409 0.223504
C379  C     C_3   0.545953 0.398074 0.448197 -0.707383
H170  H     H_    0.522266 0.413166 0.444352 0.256492
H171  H     H_    0.543350 0.372092 0.440045 0.245097
H172  H     H_    0.568264 0.411185 0.439673 0.235690
N60   N     N_2   0.604606 0.551585 0.473962 -0.329376
H173  H     H_    0.581545 0.559506 0.481304 0.224515
C380  C     C_3   0.602584 0.545683 0.448314 -0.709475
H174  H     H_    0.587653 0.521915 0.444438 0.255980
H175  H     H_    0.628730 0.543102 0.440408 0.244280
H176  H     H_    0.589539 0.567884 0.439590 0.237110
N61   N     N_2   0.448415 0.395394 0.526038 -0.329376
H177  H     H_    0.440494 0.418455 0.518696 0.224516
C381  C     C_3   0.454316 0.397416 0.551686 -0.709473
H178  H     H_    0.478085 0.412347 0.555562 0.255979
H179  H     H_    0.456898 0.371270 0.559592 0.244279
H180  H     H_    0.432116 0.410462 0.560410 0.237110
N62   N     N_2   0.395570 0.551643 0.526148 -0.329726
H181  H     H_    0.418460 0.559620 0.518591 0.223503
C382  C     C_3   0.398073 0.545951 0.551803 -0.707383
H182  H     H_    0.413164 0.522264 0.555648 0.256491
H183  H     H_    0.372090 0.543348 0.559955 0.245097
H184  H     H_    0.411183 0.568262 0.560326 0.235690
N63   N     N_2   0.551587 0.604605 0.526035 -0.329375
H185  H     H_    0.559507 0.581543 0.518693 0.224514
C383  C     C_3   0.545685 0.602582 0.551683 -0.709472
H186  H     H_    0.521916 0.587651 0.555560 0.255981
H187  H     H_    0.543104 0.628728 0.559589 0.244280
H188  H     H_    0.567885 0.589535 0.560406 0.237110
N64   N     N_2   0.604428 0.448355 0.526148 -0.329726
H189  H     H_    0.581538 0.440379 0.518591 0.223504
C384  C     C_3   0.601926 0.454046 0.551803 -0.707382
H190  H     H_    0.586835 0.477734 0.555648 0.256491
H191  H     H_    0.627908 0.456648 0.559954 0.245096
H192  H     H_    0.588814 0.431736 0.560327 0.235689
N65   N     N_2   0.948357 0.104430 0.973852 -0.329726
H193  H     H_    0.940380 0.081540 0.981409 0.223502
C385  C     C_3   0.954049 0.101928 0.948197 -0.707384
H194  H     H_    0.977736 0.086835 0.944352 0.256492
H195  H     H_    0.956652 0.127910 0.940044 0.245097
H196  H     H_    0.931738 0.088818 0.939673 0.235691
N66   N     N_2   0.895395 0.948413 0.973965 -0.329375
H197  H     H_    0.918457 0.940493 0.981307 0.224514
C386  C     C_3   0.897418 0.954315 0.948317 -0.709467
H198  H     H_    0.912348 0.978084 0.944440 0.255980
H199  H     H_    0.871272 0.956896 0.940411 0.244278
H200  H     H_    0.910465 0.932115 0.939594 0.237108
N67   N     N_2   0.051645 0.895571 0.973852 -0.329726
H201  H     H_    0.059621 0.918462 0.981409 0.223503
C387  C     C_3   0.045954 0.898074 0.948197 -0.707385
H202  H     H_    0.022266 0.913165 0.944352 0.256493
H203  H     H_    0.043351 0.872092 0.940045 0.245097
H204  H     H_    0.068264 0.911185 0.939673 0.235690
N68   N     N_2   0.104606 0.051585 0.973962 -0.329375
H205  H     H_    0.081545 0.059506 0.981304 0.224515
C388  C     C_3   0.102584 0.045684 0.948314 -0.709474
H206  H     H_    0.087653 0.021915 0.944438 0.255980
H207  H     H_    0.128730 0.043102 0.940408 0.244278
H208  H     H_    0.089538 0.067884 0.939590 0.237110
N69   N     N_2   0.948415 0.895394 0.026038 -0.329376
H209  H     H_    0.940494 0.918455 0.018696 0.224515
C389  C     C_3   0.954316 0.897416 0.051686 -0.709477
H210  H     H_    0.978085 0.912347 0.055562 0.255980
H211  H     H_    0.956898 0.871270 0.059592 0.244280
H212  H     H_    0.932116 0.910462 0.060410 0.237110
N70   N     N_2   0.895570 0.051643 0.026148 -0.329726
H213  H     H_    0.918460 0.059620 0.018591 0.223503
C390  C     C_3   0.898073 0.045952 0.051803 -0.707380
H214  H     H_    0.913164 0.022264 0.055648 0.256491
H215  H     H_    0.872090 0.043349 0.059955 0.245096
H216  H     H_    0.911183 0.068262 0.060326 0.235689
N71   N     N_2   0.051587 0.104605 0.026035 -0.329376
H217  H     H_    0.059507 0.081543 0.018693 0.224514
C391  C     C_3   0.045685 0.102582 0.051683 -0.709469
H218  H     H_    0.021916 0.087651 0.055560 0.255980
H219  H     H_    0.043104 0.128728 0.059589 0.244279
H220  H     H_    0.067885 0.089535 0.060406 0.237109
N72   N     N_2   0.104428 0.948355 0.026148 -0.329725
H221  H     H_    0.081538 0.940379 0.018591 0.223503
C392  C     C_3   0.101926 0.954046 0.051803 -0.707383
H222  H     H_    0.086834 0.977734 0.055648 0.256492
H223  H     H_    0.127908 0.956649 0.059954 0.245096
H224  H     H_    0.088815 0.931736 0.060327 0.235690

loop_
_geom_bond_atom_site_label_1
_geom_bond_atom_site_label_2
_ccdc_geom_bond_type
O58   Zn11  S    
C113  C177  S    
N56   H109  S    
N52   C324  S    
C229  C285  S    
C340  H124  S    
C266  N2    A    
C33   C45   A    
C285  H21   S    
O13   Zn5   S    
N66   H197  S    
C121  O19   A    
C320  H79   S    
C54   N6    S    
C302  O86   D    
C123  O23   A    
N23   N39   A    
C326  H102  S    
C189  C203  A    
C355  O123  D    
C236  C292  S    
C34   N50   S    
N9    N25   A    
C238  C254  A    
C155  C171  A    
C40   N56   S    
C347  O115  D    
C243  C267  A    
C337  O105  D    
C126  O26   A    
C278  O46   S    
C166  N70   S    
C22   C38   A    
C331  H115  S    
C315  H58   S    
C334  H118  S    
C154  C170  A    
C343  O111  D    
C320  H78   S    
C317  H68   S    
C390  H215  S    
C148  C372  S    
C7    O13   A    
O2    Zn2   S    
C13   C51   A    
C129  N9    A    
C14   C52   A    
C377  H162  S    
C338  O106  D    
C298  H34   S    
C293  O77   D    
C225  C281  S    
C224  H16   S    
C4    O8    A    
C15   C51   A    
C144  C160  A    
C134  N18   A    
C230  C246  A    
C89   C101  A    
O9    Zn5   S    
C138  C154  A    
C231  C287  S    
C116  C180  S    
C72   C88   A    
C388  H207  S    
C221  H13   S    
N70   H213  S    
C281  O65   D    
C292  H28   S    
C382  H182  S    
C76   C112  A    
C307  O91   D    
C61   O57   A    
C27   N43   S    
C160  N64   S    
C376  O144  D    
C58   O50   A    
C227  C283  S    
C274  N6    A    
C59   O55   A    
C374  H158  S    
C358  O126  D    
C336  H120  S    
C352  O120  D    
C38   N54   S    
O4    Zn4   S    
C23   C311  S    
C166  C174  A    
N54   C326  S    
C150  C374  S    
C79   C109  A    
C233  C249  A    
N50   H85   S    
C84   C100  A    
C63   C176  S    
C244  C258  A    
C164  N68   S    
C20   C54   A    
C25   C41   A    
C156  C172  A    
C314  H55   S    
C115  N27   A    
C22   C56   A    
C130  N10   A    
N42   C314  S    
C312  H48   S    
N49   H81   S    
C138  C178  A    
C221  C237  A    
C159  N63   S    
C387  H202  S    
N65   H193  S    
C11   C49   A    
C96   C360  S    
C66   C82   A    
C146  C162  A    
C351  H135  S    
C8    O16   A    
C11   C27   A    
C305  O89   D    
C324  H96   S    
C222  H14   S    
C22   C310  S    
C10   C26   A    
C192  C204  A    
C385  H196  S    
C137  C153  A    
C375  O143  D    
N45   C317  S    
C85   C349  S    
C127  O31   A    
C140  C156  A    
C83   C347  S    
C316  H63   S    
C135  N19   A    
C331  O99   D    
C187  C211  A    
C71   C105  A    
C304  O88   D    
C378  H167  S    
C239  C255  A    
C320  H80   S    
C185  C209  A    
C186  C199  A    
O15   Zn7   S    
C360  O128  D    
C35   C45   A    
O56   Zn10  S    
C213  C229  A    
C39   C47   A    
C326  H104  S    
C13   C29   A    
C381  H179  S    
C292  O76   D    
C158  N62   S    
C28   C42   A    
C11   C299  S    
C75   C111  A    
C231  C247  A    
C91   C103  A    
C346  H130  S    
C246  C270  A    
C74   C110  A    
C325  H100  S    
C100  C132  S    
C23   C55   A    
C206  C262  A    
C153  N57   S    
C318  H72   S    
O25   Zn5   S    
C333  H117  S    
C240  C296  S    
C122  O20   A    
C282  H18   S    
C74   C90   A    
C379  H170  S    
C58   C171  S    
C191  C194  A    
C50   N2    S    
C223  C239  A    
C157  C171  A    
O11   Zn7   S    
N62   C382  S    
C189  C196  A    
C190  C204  A    
O63   Zn12  S    
C314  H54   S    
C145  C161  A    
C78   C94   A    
C80   C344  S    
C62   C175  S    
C188  C202  A    
C306  H42   S    
C140  C180  A    
C215  H7    S    
C216  H8    S    
C196  C206  A    
N53   H97   S    
C116  N32   A    
C356  O124  D    
C291  O75   D    
C139  C179  A    
C344  H128  S    
C92   C104  A    
O60   Zn11  S    
C73   C89   A    
C327  H108  S    
C94   C102  A    
C228  C284  S    
C388  H206  S    
C382  H184  S    
C295  O79   D    
O8    Zn2   S    
C19   C35   A    
C239  C295  S    
C328  H110  S    
C87   C97   A    
C312  O96   D    
C146  C370  S    
N58   H165  S    
C1    C105  S    
C117  N39   A    
C157  N61   S    
C67   C83   A    
C329  H113  S    
C119  N37   A    
C33   N49   S    
C245  C269  A    
C283  H19   S    
O20   Zn4   S    
C7    O11   A    
C269  O37   S    
C93   C103  A    
C255  C279  A    
C195  C219  A    
C69   C107  A    
C287  O71   D    
C297  H33   S    
C62   O58   A    
C193  C217  A    
C131  N13   A    
C186  C202  A    
C318  H70   S    
C31   C43   A    
C60   C169  S    
C1    O1    A    
C350  H134  S    
N66   C386  S    
C370  O138  D    
C197  C221  A    
C359  O127  D    
N61   H177  S    
C315  H60   S    
C151  C167  A    
C226  C242  A    
C128  O32   A    
C185  C201  A    
C150  C166  A    
C145  C181  A    
C209  H1    S    
C310  H46   S    
C380  H174  S    
C114  N30   A    
C32   N48   S    
C361  O129  D    
C90   C102  A    
C268  N2    A    
O22   Zn4   S    
C143  C367  S    
C327  H106  S    
C271  O39   S    
C114  C178  S    
O12   Zn8   S    
C289  O73   D    
C309  O93   D    
C36   C46   A    
C34   C46   A    
C37   C47   A    
C38   C48   A    
C123  O21   A    
C156  N60   S    
C75   C91   A    
C253  C277  A    
C229  C245  A    
C253  C263  A    
N64   C384  S    
C313  H52   S    
C254  C264  A    
C18   C306  S    
N57   H161  S    
C3    C107  S    
C210  C226  A    
N16   N32   A    
C64   O62   A    
C236  C252  A    
C86   C98   A    
C358  H142  S    
C65   C105  A    
N55   C327  S    
C70   C334  S    
C139  C363  S    
C2    O6    A    
C321  H84   S    
N69   C389  S    
C15   C303  S    
C308  O92   D    
N59   C379  S    
C193  C205  A    
C296  H32   S    
C82   C98   A    
C187  C198  A    
C122  O18   A    
C219  C235  A    
O51   Zn9   S    
C319  H76   S    
C149  C165  A    
C133  N23   A    
C78   C110  A    
C162  N66   S    
C62   O64   A    
N72   C392  S    
C69   C333  S    
C300  H36   S    
C158  C170  A    
C379  H172  S    
C77   C341  S    
C7    C111  S    
C13   C301  S    
C384  H190  S    
C154  N58   S    
C233  C289  S    
C2    C106  S    
C46   C126  S    
C19   C307  S    
C232  C248  A    
C362  O130  D    
C1    O7    A    
O29   Zn5   S    
C305  H41   S    
C85   C99   A    
C3    O5    A    
C202  C258  A    
C120  C184  S    
C287  H23   S    
N14   N30   A    
C139  C155  A    
C388  H208  S    
O16   Zn6   S    
C330  H114  S    
C60   O52   A    
C31   N47   S    
O52   Zn9   S    
C377  H163  S    
C119  C183  S    
C328  H112  S    
C332  O100  D    
C224  C240  A    
C59   O51   A    
C189  C213  A    
C190  C195  A    
C251  C261  A    
C145  C369  S    
C342  O110  D    
C366  O134  D    
C357  H141  S    
C368  O136  D    
C389  H211  S    
C284  H20   S    
N63   C383  S    
C117  N33   A    
C153  C169  A    
N42   H53   S    
C43   C123  S    
C251  C275  A    
C69   C85   A    
C286  H22   S    
C26   C42   A    
C66   C330  S    
C57   C170  S    
C130  N14   A    
C322  H88   S    
C57   O49   A    
C168  C176  A    
O19   Zn3   S    
C323  H92   S    
C340  O108  D    
C104  C136  S    
O17   Zn1   S    
C138  C362  S    
C61   C174  S    
C294  H30   S    
O31   Zn7   S    
C364  O132  D    
C228  C244  A    
C15   C31   A    
C8    O12   A    
C301  O85   D    
C74   C338  S    
C103  C135  S    
C234  C290  S    
C380  H176  S    
C58   O56   A    
C52   N4    S    
N57   C377  S    
C360  H144  S    
C53   N5    S    
C387  H203  S    
C147  C163  A    
C337  H121  S    
C223  H15   S    
C212  H4    S    
C389  H210  S    
C220  H12   S    
C142  C178  A    
C205  C261  A    
C136  N24   A    
C88   C352  S    
C81   C345  S    
C373  O141  D    
C8    C112  S    
C334  O102  D    
C267  N1    A    
O50   Zn9   S    
C348  O116  D    
C242  C266  A    
C372  H156  S    
C201  C257  A    
N52   H93   S    
C235  C291  S    
C323  H90   S    
C200  C208  A    
C293  H29   S    
C392  H223  S    
C268  O36   S    
N46   H69   S    
C367  O135  D    
O62   Zn12  S    
N45   H65   S    
C307  H43   S    
C113  N25   A    
N15   N31   A    
C313  H50   S    
C341  O109  D    
C383  H186  S    
C84   C348  S    
C281  H17   S    
O26   Zn6   S    
N19   N35   A    
C149  C373  S    
C303  H39   S    
C133  N17   A    
O10   Zn6   S    
N13   N29   A    
C51   N3    S    
C288  H24   S    
C129  N15   A    
C9    C25   A    
C343  H127  S    
N68   C388  S    
C338  H122  S    
C384  H192  S    
C17   C33   A    
C4    C108  S    
N18   N34   A    
C353  H137  S    
C199  C223  A    
C191  C203  A    
C12   C28   A    
C75   C339  S    
C247  C259  A    
C237  C253  A    
N48   C320  S    
C142  C158  A    
C386  H200  S    
O30   Zn8   S    
C93   C357  S    
C345  O113  D    
C3    O3    A    
N41   H49   S    
C114  N26   A    
N51   C323  S    
C125  O25   A    
O14   Zn8   S    
C60   O54   A    
C316  H64   S    
C290  H26   S    
O57   Zn11  S    
C381  H178  S    
C392  H222  S    
N70   C390  S    
N17   N33   A    
C77   C111  A    
C78   C342  S    
C30   N46   S    
C131  N11   A    
C191  C215  A    
C248  C260  A    
C6    C110  S    
C151  C375  S    
C204  C260  A    
C203  C259  A    
C324  H95   S    
N71   C391  S    
N64   H189  S    
C351  O119  D    
C349  O117  D    
C36   N52   S    
C267  O35   S    
C272  N4    A    
C167  C173  A    
O27   Zn7   S    
C97   C129  S    
C65   C329  S    
C163  C175  A    
C295  H31   S    
C83   C99   A    
C378  H166  S    
C29   C43   A    
C238  C294  S    
C285  O69   D    
C30   C44   A    
C124  O24   A    
C210  H2    S    
C209  C225  A    
C132  N12   A    
C315  H59   S    
C217  H9    S    
C302  H38   S    
C118  N38   A    
C161  N65   S    
C151  C181  A    
C369  O137  D    
C120  N36   A    
C124  O22   A    
C386  H198  S    
C73   C337  S    
C146  C182  A    
C367  H151  S    
C68   C84   A    
O24   Zn2   S    
C279  N7    A    
C39   N55   S    
C346  O114  D    
C199  C207  A    
C70   C106  A    
C371  H155  S    
C325  H99   S    
C135  N21   A    
C234  C250  A    
C92   C356  S    
C322  H86   S    
N20   N36   A    
C391  H218  S    
O6    Zn4   S    
C282  O66   D    
C80   C96   A    
O64   Zn12  S    
C390  H216  S    
C359  H143  S    
C79   C95   A    
C144  C180  A    
C48   C128  S    
C247  C271  A    
C12   C50   A    
N68   H205  S    
C248  C272  A    
C12   C300  S    
C188  C212  A    
O21   Zn1   S    
C98   C130  S    
C306  O90   D    
N67   C387  S    
C252  C276  A    
C256  C264  A    
C141  C365  S    
C47   C127  S    
C89   C353  S    
C88   C100  A    
C296  O80   D    
C274  O42   S    
C71   C87   A    
C243  C257  A    
C82   C346  S    
C354  H138  S    
C327  H107  S    
C186  C210  A    
C382  H183  S    
O32   Zn6   S    
C197  C207  A    
C220  C236  A    
C16   C32   A    
C376  H160  S    
C152  C168  A    
C217  C233  A    
C59   C172  S    
C10   C50   A    
C17   C53   A    
C336  O104  D    
C21   C55   A    
C352  H136  S    
N44   C316  S    
C10   C298  S    
C40   C48   A    
C63   O63   A    
C159  C169  A    
C90   C354  S    
C141  C179  A    
N63   H185  S    
N22   N38   A    
C369  H153  S    
C16   C52   A    
C68   C332  S    
C6    O14   A    
C326  H103  S    
C391  H219  S    
O61   Zn12  S    
C73   C109  A    
C125  O27   A    
C99   C131  S    
O18   Zn2   S    
C187  C201  A    
C297  O81   D    
C265  N1    A    
C208  C264  A    
C350  O118  D    
C14   C30   A    
C271  N3    A    
N72   H221  S    
N65   C385  S    
C28   N44   S    
C362  H146  S    
O49   Zn9   S    
C254  C278  A    
C55   N7    S    
C5    C109  S    
C188  C197  A    
C56   N8    S    
C77   C93   A    
C5    O15   A    
C319  H74   S    
C310  O94   D    
C164  C176  A    
C300  O84   D    
C361  H145  S    
C245  C259  A    
C71   C335  S    
C276  O44   S    
C147  C371  S    
C128  O30   A    
C363  H147  S    
C212  C228  A    
C291  H27   S    
C21   C37   A    
C386  H199  S    
C304  H40   S    
C378  H168  S    
C44   C124  S    
C149  C183  A    
C25   N41   S    
C311  H47   S    
C250  C274  A    
C226  C282  S    
C64   C173  S    
N71   H217  S    
C276  N6    A    
C142  C366  S    
C277  N7    A    
C379  H171  S    
C120  N40   A    
C381  H180  S    
C278  N8    A    
C355  H139  S    
C313  H51   S    
C237  C293  S    
C374  O142  D    
C37   N53   S    
N46   C318  S    
C289  H25   S    
C76   C340  S    
C365  H149  S    
C335  H119  S    
C4    O4    A    
C235  C251  A    
C24   C56   A    
N54   H101  S    
C219  H11   S    
C134  N22   A    
C144  C368  S    
N55   H105  S    
O23   Zn3   S    
C339  H123  S    
C194  C218  A    
N69   H209  S    
C136  N20   A    
C333  O101  D    
C275  O43   S    
N59   H169  S    
O55   Zn10  S    
O7    Zn3   S    
C215  C231  A    
O3    Zn3   S    
C317  H67   S    
C61   O61   A    
C198  C222  A    
O5    Zn1   S    
C14   C302  S    
C272  O40   S    
N56   C328  S    
C227  C243  A    
C249  C273  A    
C117  C181  S    
C383  H187  S    
C152  C376  S    
N44   H61   S    
C72   C336  S    
C101  C133  S    
C161  C173  A    
C21   C309  S    
C309  H45   S    
C64   O60   A    
C225  C241  A    
C41   C121  S    
N53   C325  S    
C140  C364  S    
C356  H140  S    
C86   C350  S    
N47   C319  S    
O28   Zn8   S    
C65   C81   A    
C250  C262  A    
C385  H194  S    
N21   N37   A    
C342  H126  S    
C357  O125  D    
N47   H73   S    
C266  O34   S    
C317  H66   S    
C155  N59   S    
C9    C49   A    
C364  H148  S    
C314  H56   S    
C328  H111  S    
N43   H57   S    
C242  C258  A    
N67   H201  S    
C67   C331  S    
C275  N5    A    
C273  N5    A    
C19   C53   A    
C143  C177  A    
C321  H83   S    
C380  H175  S    
C329  O97   D    
C211  C227  A    
C284  O68   D    
C354  O122  D    
N24   N40   A    
C80   C112  A    
C390  H214  S    
C280  N8    A    
C63   O59   A    
C66   C106  A    
C20   C308  S    
C347  H131  S    
C196  C220  A    
C286  O70   D    
C127  O29   A    
N49   C321  S    
N50   C322  S    
C322  H87   S    
C160  C172  A    
C194  C206  A    
C323  H91   S    
C339  O107  D    
C148  C164  A    
C198  C208  A    
O53   Zn10  S    
C200  C224  A    
C299  H35   S    
C72   C108  A    
C95   C359  S    
C121  O17   A    
C370  H154  S    
C218  C234  A    
C335  O103  D    
C365  O133  D    
N41   C313  S    
N48   H77   S    
N61   C381  S    
C383  H188  S    
C20   C36   A    
C94   C358  S    
C147  C183  A    
N58   C378  S    
C301  H37   S    
C241  C257  A    
C222  C238  A    
C5    O9    A    
C330  O98   D    
C244  C268  A    
C385  H195  S    
C49   N1    S    
C102  C134  S    
C45   C125  S    
C371  O139  D    
C126  O28   A    
C27   C41   A    
C321  H82   S    
C195  C205  A    
O59   Zn11  S    
C148  C184  A    
C165  N69   S    
C311  O95   D    
C316  H62   S    
C373  H157  S    
C57   O53   A    
C137  C177  A    
N10   N26   A    
N11   N27   A    
C132  N16   A    
C372  O140  D    
C18   C34   A    
C270  O38   S    
C240  C256  A    
C118  N34   A    
C344  O112  D    
C76   C92   A    
C70   C86   A    
C298  O82   D    
N43   C315  S    
C168  N72   S    
C218  H10   S    
C324  H94   S    
C190  C214  A    
C319  H75   S    
C392  H224  S    
C137  C361  S    
C389  H212  S    
C2    O2    A    
C152  C184  A    
C277  O45   S    
N60   H173  S    
C116  N28   A    
C269  N3    A    
N60   C380  S    
C42   C122  S    
C279  O47   S    
C341  H125  S    
C118  C182  S    
C141  C157  A    
C16   C304  S    
C308  H44   S    
C214  H6    S    
C299  O83   D    
C270  N4    A    
C256  C280  A    
C26   N42   S    
C255  C263  A    
C150  C182  A    
N12   N28   A    
C288  O72   D    
N62   H181  S    
C303  O87   D    
C162  C174  A    
C252  C262  A    
C165  C175  A    
C79   C343  S    
O1    Zn1   S    
C91   C355  S    
C35   N51   S    
C391  H220  S    
C265  O33   S    
C192  C193  A    
C294  O78   D    
C96   C104  A    
C113  N31   A    
C273  O41   S    
C283  O67   D    
C325  H98   S    
C167  N71   S    
C6    O10   A    
C345  H129  S    
C115  N29   A    
C384  H191  S    
C67   C107  A    
N51   H89   S    
O54   Zn10  S    
C81   C97   A    
C207  C263  A    
C23   C39   A    
C375  H159  S    
C24   C312  S    
C24   C40   A    
C290  O74   D    
C377  H164  S    
C241  C265  A    
C143  C159  A    
C185  C200  A    
C332  H116  S    
C387  H204  S    
C232  C288  S    
C213  H5    S    
C18   C54   A    
C163  N67   S    
C95   C101  A    
C318  H71   S    
C211  H3    S    
C366  H150  S    
C32   C44   A    
C353  O121  D    
C368  H152  S    
C119  N35   A    
C87   C351  S    
C17   C305  S    
C348  H132  S    
C216  C232  A    
C9    C297  S    
C68   C108  A    
C249  C261  A    
C349  H133  S    
C280  O48   S    
C29   N45   S    
C192  C216  A    
C246  C260  A    
C115  C179  S    
C230  C286  S    
C363  O131  D    
C214  C230  A    
