data_mof_unit_67548.cif
_audit_creation_date              2012-10-26T18:48:16-0400
_audit_creation_method            fapswitch 2.2
_symmetry_space_group_name_H-M    P1
_symmetry_Int_Tables_number       1
_space_group_crystal_system       triclinic
_cell_length_a                    10.645372
_cell_length_b                    8.718986
_cell_length_c                    7.49872
_cell_angle_alpha                 102.947745
_cell_angle_beta                  94.858689
_cell_angle_gamma                 93.313221
_cell_volume                      673.758486867

loop_
_atom_site_label
_atom_site_type_symbol
_atom_type_description
_atom_site_fract_x
_atom_site_fract_y
_atom_site_fract_z
_atom_type_partial_charge
C1    C     C_R   0.492171 0.200169 0.454074 0.571114
C2    C     C_3   0.124057 0.493180 0.500702 0.040757
C3    C     C_3   0.970683 0.533145 0.672480 0.178238
C4    C     C_3   0.029317 0.466855 0.327520 0.178240
C5    C     C_2   0.474105 0.032082 0.433065 0.287475
C6    C     C_2   0.525895 0.967917 0.566935 0.287475
C7    C     C_2   0.071441 0.255079 0.674477 0.285996
C8    C     C_2   0.928559 0.744920 0.325523 0.285998
C9    C     C_R   0.507829 0.799831 0.545925 0.571114
C10   C     C_R   0.259963 0.495673 0.500309 0.609755
C11   C     C_R   0.740037 0.504327 0.499691 0.609755
C12   C     C_3   0.037049 0.386336 0.585456 -0.032690
C13   C     C_3   0.962950 0.613664 0.414544 -0.032686
C14   C     C_3   0.942953 0.361313 0.411834 0.156148
C15   C     C_3   0.057047 0.638687 0.588166 0.156150
C16   C     C_3   0.875943 0.506820 0.499298 0.040759
Cu1   Cu    Cu3+1 0.514140 0.517380 0.684380 1.190871
Cu2   Cu    Cu3+1 0.485860 0.482620 0.315620 1.190871
H1    H     H_    0.947486 0.147598 0.276495 0.343988
H2    H     H_    0.640456 0.990412 0.791529 0.340458
H3    H     H_    0.052513 0.852401 0.723505 0.343990
H4    H     H_    0.002826 0.203786 0.747748 0.139021
H5    H     H_    0.997174 0.796213 0.252252 0.139024
H6    H     H_    0.016634 0.621056 0.929207 0.362512
H7    H     H_    0.983369 0.378929 0.070794 0.362505
H8    H     H_    0.337483 0.294844 0.004977 0.351579
H9    H     H_    0.662516 0.705156 0.995023 0.351580
H10   H     H_    0.359544 0.009588 0.208471 0.340458
N1    N     N_2   0.464560 0.456420 0.038510 0.093370
N2    N     N_2   0.535440 0.543580 0.961490 0.093370
O1    O     O_R   0.509190 0.286130 0.619780 -0.422835
O2    O     O_3   0.120087 0.782829 0.683016 -0.659263
O3    O     O_2   0.174864 0.202704 0.661337 -0.474543
O4    O     O_2   0.825136 0.797295 0.338661 -0.474543
O5    O     O_3   0.937761 0.572578 0.852683 -0.676170
O6    O     O_3   0.062239 0.427422 0.147317 -0.676173
O7    O     O_3   0.381966 0.350320 0.924072 -0.515554
O8    O     O_3   0.618032 0.649681 0.075928 -0.515553
O9    O     O_3   0.397906 0.940550 0.283018 -0.677129
O10   O     O_3   0.602094 0.059450 0.716982 -0.677129
O11   O     O_R   0.490810 0.713870 0.380220 -0.422835
O12   O     O_R   0.485310 0.256770 0.308360 -0.551002
O13   O     O_R   0.514690 0.743230 0.691640 -0.551002
O14   O     O_R   0.328790 0.514640 0.655680 -0.445758
O15   O     O_R   0.671210 0.485360 0.344320 -0.445758
O16   O     O_R   0.304910 0.485280 0.344260 -0.496342
O17   O     O_R   0.695090 0.514720 0.655740 -0.496342
O18   O     O_3   0.879913 0.217171 0.316984 -0.659265

loop_
_geom_bond_atom_site_label_1
_geom_bond_atom_site_label_2
_ccdc_geom_bond_type
C10   O16   A    
C2    C4    S    
Cu1   O13   S    
H8    O7    S    
N1    N2    D    
Cu1   N2    S    
C7    H4    S    
C11   C16   S    
C11   O17   A    
H10   O9    S    
C3    O5    S    
C2    C12   S    
C6    C9    S    
C5    O9    S    
Cu1   Cu2   S    
C13   C16   S    
Cu1   O14   S    
C15   O2    S    
Cu2   N1    S    
C8    O4    D    
C2    C15   S    
C7    O3    D    
C8    C13   S    
C1    C5    S    
Cu2   O16   S    
Cu1   O1    S    
C12   C14   S    
C6    O10   S    
C13   C15   S    
C4    C14   S    
C5    C6    D    
H2    O10   S    
H3    O2    S    
C14   C16   S    
C7    C12   S    
C11   O15   A    
H6    O5    S    
C9    O13   A    
H9    O8    S    
C10   O14   A    
C2    C10   S    
Cu2   O15   S    
C1    O12   A    
C1    O1    A    
C8    H5    S    
C3    C15   S    
C4    O6    S    
N2    O8    S    
Cu2   O11   S    
N1    O7    S    
C4    C13   S    
H1    O18   S    
C14   O18   S    
C3    C12   S    
H7    O6    S    
Cu2   O12   S    
C9    O11   A    
C3    C16   S    
Cu1   O17   S    
