data_mof_unit_6088.cif
_audit_creation_date              2012-12-10T17:21:15-0500
_audit_creation_method            fapswitch 2.2
_symmetry_space_group_name_H-M    P1
_symmetry_Int_Tables_number       1
_space_group_crystal_system       triclinic
_cell_length_a                    9.614365
_cell_length_b                    10.856788
_cell_length_c                    13.877104
_cell_angle_alpha                 94.013682
_cell_angle_beta                  85.033835
_cell_angle_gamma                 90.421263
_cell_volume                      1439.52944127

loop_
_atom_site_label
_atom_site_type_symbol
_atom_type_description
_atom_site_fract_x
_atom_site_fract_y
_atom_site_fract_z
_atom_type_partial_charge
C1    C     C_R   0.499663 0.737168 0.513764 0.855109
C2    C     C_1   0.465866 0.492014 0.785257 -0.189882
C3    C     C_R   0.255851 0.882568 0.609789 0.540056
C4    C     C_R   0.124891 0.935986 0.608374 -0.204291
C5    C     C_R   0.112206 0.043941 0.562104 -0.246521
C6    C     C_R   0.230856 0.105721 0.525805 -0.155835
C7    C     C_R   0.366745 0.058869 0.533740 0.006350
C8    C     C_R   0.374191 0.936023 0.560179 -0.038806
C9    C     C_R   0.500721 0.871705 0.538855 -0.245436
C10   C     C_R   0.626360 0.939828 0.537398 0.205728
C11   C     C_R   0.621280 0.068008 0.538370 0.214247
C12   C     C_R   0.477643 0.499247 0.682718 0.813662
C13   C     C_R   0.494679 0.127848 0.521645 -0.231381
C14   C     C_R   0.884252 0.364081 0.341739 0.440339
C15   C     C_R   0.973944 0.343851 0.255752 0.431236
C16   C     C_R   0.115240 0.329610 0.266118 -0.391740
C17   C     C_R   0.165588 0.361876 0.354405 -0.246786
C18   C     C_R   0.084848 0.433009 0.427002 0.145851
C19   C     C_R   0.935783 0.433528 0.424417 0.025597
C20   C     C_R   0.917535 0.560976 0.571315 -0.075995
C21   C     C_R   0.064951 0.560706 0.571284 -0.047742
C22   C     C_R   0.498276 0.261855 0.505317 0.832703
C23   C     C_R   0.522380 0.501174 0.317327 0.858451
C24   C     C_1   0.535144 0.509502 0.214930 -0.176942
C25   C     C_2   0.556549 0.532033 0.025884 0.302657
C26   C     C_2   0.459719 0.475335 0.974170 -0.245519
C27   C     C_1   0.460475 0.484425 0.871389 -0.004884
C28   C     C_1   0.545270 0.519219 0.128975 -0.023964
Cu1   Cu    Cu3+1 0.359340 0.500010 0.500010 0.963719
Cu2   Cu    Cu3+1 0.640660 0.499990 0.499990 0.966877
H1    H     H_    0.377577 0.420718 0.009502 0.126993
H2    H     H_    0.185096 0.287532 0.207923 0.179224
H3    H     H_    0.268687 0.331016 0.362185 0.223859
H4    H     H_    0.111803 0.608770 0.630833 0.188881
H5    H     H_    0.033177 0.893382 0.642870 0.157966
H6    H     H_    0.010350 0.082669 0.557263 0.194754
H7    H     H_    0.209640 0.187232 0.490658 0.179640
H8    H     H_    0.855814 0.610950 0.630000 0.123801
N1    N     N_R   0.852210 0.498790 0.499090 -0.168799
N2    N     N_R   0.148080 0.498710 0.499060 -0.175384
O1    O     O_R   0.381190 0.680360 0.500010 -0.537912
O2    O     O_R   0.618760 0.680340 0.500000 -0.596842
O3    O     O_R   0.364420 0.499990 0.637850 -0.552792
O4    O     O_R   0.601990 0.499960 0.637840 -0.599339
O5    O     O_R   0.381240 0.319660 0.500000 -0.624314
O6    O     O_R   0.618810 0.319640 0.499990 -0.514378
O7    O     O_R   0.398010 0.500040 0.362160 -0.596325
O8    O     O_R   0.635580 0.500010 0.362150 -0.523138
O9    O     O_3   0.754784 0.307133 0.346316 -0.535229
C29   C     C_3   0.761880 0.180663 0.312744 -0.298367
H9    H     H_    0.859465 0.134987 0.329485 0.124654
H10   H     H_    0.748616 0.169343 0.234057 0.218310
H11   H     H_    0.673028 0.131117 0.348495 0.154133
O10   O     O_3   0.916778 0.313227 0.168484 -0.573363
C30   C     C_3   0.996659 0.361906 0.089652 -0.327531
H12   H     H_    0.085748 0.300099 0.063958 0.164206
H13   H     H_    0.034126 0.457535 0.107373 0.154589
H14   H     H_    0.929688 0.365948 0.028744 0.191997
N3    N     N_2   0.664318 0.606382 0.980936 -0.417553
H15   H     H_    0.702540 0.576074 0.911657 0.254585
C31   C     C_3   0.768354 0.660832 0.040382 -0.690578
H16   H     H_    0.840921 0.718663 0.996027 0.219081
H17   H     H_    0.829179 0.587415 0.069328 0.231074
H18   H     H_    0.717561 0.720933 0.101266 0.236788
N4    N     N_2   0.758235 0.883605 0.545018 -0.405587
H19   H     H_    0.759253 0.813212 0.591005 0.254215
C32   C     C_3   0.846466 0.865856 0.455180 -0.633240
H20   H     H_    0.944682 0.819280 0.468527 0.223874
H21   H     H_    0.873492 0.956230 0.425855 0.212677
H22   H     H_    0.793137 0.807848 0.400420 0.231296
O11   O     O_3   0.267818 0.781624 0.663867 -0.599433
C33   C     C_3   0.319412 0.821777 0.752841 -0.375848
H23   H     H_    0.251230 0.894056 0.793121 0.166832
H24   H     H_    0.428587 0.856022 0.741965 0.163691
H25   H     H_    0.320207 0.742052 0.798570 0.199183
N5    N     N_2   0.744146 0.133384 0.562150 -0.415137
H26   H     H_    0.798099 0.180925 0.509244 0.274996
C34   C     C_3   0.742729 0.186413 0.660780 -0.630794
H27   H     H_    0.845244 0.230232 0.672261 0.213123
H28   H     H_    0.724155 0.112986 0.712303 0.221583
H29   H     H_    0.659799 0.257392 0.675862 0.229024

loop_
_geom_bond_atom_site_label_1
_geom_bond_atom_site_label_2
_ccdc_geom_bond_type
C30   H12   S    
C2    C12   S    
C7    C8    A    
C25   C28   S    
C26   C27   S    
Cu1   O7    S    
Cu2   O8    S    
N5    C34   S    
C12   O3    A    
C11   N5    S    
C5    C6    A    
C34   H28   S    
C14   O9    S    
C15   C16   A    
C5    H6    S    
C18   C19   A    
C31   H17   S    
C18   N2    A    
C8    C9    A    
N4    C32   S    
Cu2   N1    S    
C29   H10   S    
C23   C24   S    
C2    C27   T    
C9    C10   A    
C4    H5    S    
N3    H15   S    
Cu1   O3    S    
Cu2   O4    S    
C17   H3    S    
C33   H25   S    
C29   H9    S    
N3    C31   S    
C29   H11   S    
C23   O7    A    
C32   H20   S    
C15   O10   S    
C1    C9    S    
N5    H26   S    
C33   H24   S    
C3    C8    A    
C20   N1    A    
C34   H27   S    
C33   H23   S    
C21   H4    S    
C25   C26   D    
Cu1   O5    S    
C32   H21   S    
C31   H18   S    
C3    O11   S    
Cu1   Cu2   S    
C20   H8    S    
C17   C18   A    
C6    H7    S    
C19   N1    A    
C1    O1    A    
C22   O6    A    
N4    H19   S    
C30   H13   S    
C3    C4    A    
C10   N4    S    
O10   C30   S    
C23   O8    A    
Cu1   O1    S    
C26   H1    S    
C14   C19   A    
Cu2   O6    S    
C24   C28   T    
C4    C5    A    
C6    C7    A    
C16   H2    S    
C32   H22   S    
O11   C33   S    
C12   O4    A    
C11   C13   A    
C34   H29   S    
C16   C17   A    
C21   N2    A    
Cu1   N2    S    
C13   C22   S    
C31   H16   S    
C10   C11   A    
C1    O2    A    
C7    C13   A    
C22   O5    A    
C20   C21   A    
O9    C29   S    
C30   H14   S    
C14   C15   A    
Cu2   O2    S    
C25   N3    S    
