data_mof_unit_6262.cif
_audit_creation_date              2012-12-11T15:07:11-0500
_audit_creation_method            fapswitch 2.2
_symmetry_space_group_name_H-M    P1
_symmetry_Int_Tables_number       1
_space_group_crystal_system       triclinic
_cell_length_a                    19.664283
_cell_length_b                    11.382977
_cell_length_c                    18.69698
_cell_angle_alpha                 89.999987
_cell_angle_beta                  89.649599
_cell_angle_gamma                 90.0
_cell_volume                      4185.01786222

loop_
_atom_site_label
_atom_site_type_symbol
_atom_type_description
_atom_site_fract_x
_atom_site_fract_y
_atom_site_fract_z
_atom_type_partial_charge
C1    C     C_R   0.761788 0.524517 0.639312 0.550890
C2    C     C_R   0.238212 0.524517 0.360688 0.550889
C3    C     C_R   0.261788 0.024517 0.639312 0.550890
C4    C     C_R   0.738212 0.024517 0.360688 0.550889
C5    C     C_3   0.804539 0.142584 0.448494 -0.264363
C6    C     C_3   0.195461 0.142584 0.551506 -0.264364
C7    C     C_3   0.304539 0.642584 0.448494 -0.264363
C8    C     C_3   0.695461 0.642584 0.551506 -0.264363
C9    C     C_3   0.744519 0.060539 0.436639 0.059197
C10   C     C_3   0.255481 0.060539 0.563361 0.059197
C11   C     C_3   0.244519 0.560539 0.436639 0.059197
C12   C     C_3   0.755481 0.560539 0.563361 0.059197
C13   C     C_3   0.759107 0.094454 0.574303 0.037928
C14   C     C_3   0.240893 0.094454 0.425697 0.037928
C15   C     C_3   0.259107 0.594454 0.574303 0.037928
C16   C     C_3   0.740893 0.594454 0.425697 0.037928
C17   C     C_3   0.750597 0.963778 0.561344 -0.272161
C18   C     C_3   0.249403 0.963778 0.438657 -0.272160
C19   C     C_3   0.250597 0.463778 0.561344 -0.272161
C20   C     C_3   0.749403 0.463778 0.438657 -0.272161
C21   C     C_3   0.820714 0.138521 0.528669 -0.229913
C22   C     C_3   0.179286 0.138521 0.471331 -0.229914
C23   C     C_3   0.320714 0.638521 0.528669 -0.229913
C24   C     C_3   0.679286 0.638521 0.471331 -0.229914
C25   C     C_3   0.003732 0.200537 0.458666 -0.223752
C26   C     C_3   0.996268 0.200537 0.541334 -0.223752
C27   C     C_3   0.503732 0.700537 0.458666 -0.223752
C28   C     C_3   0.496268 0.700537 0.541334 -0.223752
C29   C     C_3   0.063208 0.399258 0.472208 -0.217980
C30   C     C_3   0.936792 0.399258 0.527792 -0.217980
C31   C     C_3   0.563208 0.899258 0.472208 -0.217980
C32   C     C_3   0.436792 0.899258 0.527792 -0.217980
C33   C     C_3   0.940193 0.384328 0.446436 -0.274256
C34   C     C_3   0.059807 0.384328 0.553564 -0.274255
C35   C     C_3   0.440193 0.884328 0.446436 -0.274256
C36   C     C_3   0.559807 0.884328 0.553564 -0.274255
C37   C     C_3   0.008807 0.328711 0.430334 0.057428
C38   C     C_3   0.991193 0.328711 0.569666 0.057428
C39   C     C_3   0.508807 0.828711 0.430334 0.057428
C40   C     C_3   0.491193 0.828711 0.569666 0.057428
C41   C     C_3   0.819507 0.026478 0.046247 -0.235202
C42   C     C_3   0.180493 0.026478 0.953753 -0.235202
C43   C     C_3   0.319507 0.526478 0.046247 -0.235202
C44   C     C_3   0.680493 0.526478 0.953753 -0.235203
C45   C     C_R   0.774256 0.122133 0.649450 0.540933
C46   C     C_R   0.225744 0.122133 0.350550 0.540931
C47   C     C_R   0.274256 0.622133 0.649450 0.540932
C48   C     C_R   0.725744 0.622133 0.350550 0.540931
C49   C     C_3   0.818543 0.022679 0.965547 -0.233505
C50   C     C_3   0.181457 0.022680 0.034453 -0.233505
C51   C     C_3   0.318543 0.522679 0.965547 -0.233505
C52   C     C_3   0.681457 0.522680 0.034453 -0.233505
C53   C     C_3   0.691307 0.016219 0.032548 -0.224382
C54   C     C_3   0.308692 0.016219 0.967452 -0.224382
C55   C     C_3   0.191307 0.516219 0.032548 -0.224382
C56   C     C_3   0.808692 0.516219 0.967452 -0.224382
C57   C     C_3   0.745169 0.202434 0.061268 -0.253203
C58   C     C_3   0.254831 0.202434 0.938732 -0.253203
C59   C     C_3   0.245169 0.702434 0.061268 -0.253203
C60   C     C_3   0.754831 0.702434 0.938732 -0.253203
C61   C     C_3   0.749482 0.071673 0.075681 0.061650
C62   C     C_3   0.250518 0.071673 0.924319 0.061650
C63   C     C_3   0.249482 0.571673 0.075681 0.061650
C64   C     C_3   0.750518 0.571673 0.924319 0.061650
C65   C     C_3   0.760587 0.103748 0.936206 0.061025
C66   C     C_3   0.239412 0.103748 0.063794 0.061025
C67   C     C_3   0.260587 0.603748 0.936206 0.061025
C68   C     C_3   0.739412 0.603748 0.063794 0.061025
C69   C     C_3   0.693672 0.042130 0.951206 -0.253948
C70   C     C_3   0.306328 0.042130 0.048793 -0.253948
C71   C     C_3   0.193672 0.542130 0.951206 -0.253948
C72   C     C_3   0.806327 0.542130 0.048793 -0.253948
C73   C     C_3   0.758021 0.219176 0.980078 -0.230929
C74   C     C_3   0.241979 0.219176 0.019922 -0.230929
C75   C     C_3   0.258021 0.719176 0.980078 -0.230929
C76   C     C_3   0.741979 0.719176 0.019922 -0.230929
C77   C     C_3   0.998770 0.479719 0.040709 -0.236143
C78   C     C_3   0.001230 0.479719 0.959291 -0.236143
C79   C     C_3   0.498770 0.979719 0.040709 -0.236143
C80   C     C_3   0.501230 0.979719 0.959291 -0.236143
C81   C     C_3   0.067903 0.293137 0.024833 -0.231193
C82   C     C_3   0.932096 0.293137 0.975167 -0.231192
C83   C     C_3   0.567903 0.793137 0.024833 -0.231193
C84   C     C_3   0.432096 0.793137 0.975167 -0.231192
C85   C     C_3   0.947629 0.280503 0.055514 -0.253737
C86   C     C_3   0.052370 0.280503 0.944487 -0.253737
C87   C     C_3   0.447629 0.780503 0.055514 -0.253736
C88   C     C_3   0.552370 0.780503 0.944487 -0.253737
C89   C     C_R   0.970570 0.341365 0.645855 0.529359
C90   C     C_R   0.029429 0.341365 0.354145 0.529359
C91   C     C_R   0.470570 0.841365 0.645855 0.529359
C92   C     C_R   0.529429 0.841365 0.354145 0.529359
C93   C     C_3   0.010981 0.352212 0.069366 0.063088
C94   C     C_3   0.989019 0.352212 0.930634 0.063088
C95   C     C_3   0.510981 0.852212 0.069366 0.063088
C96   C     C_3   0.489019 0.852212 0.930634 0.063088
C97   C     C_R   0.759696 0.535363 0.847972 0.533880
C98   C     C_R   0.240304 0.535363 0.152028 0.533880
C99   C     C_R   0.259696 0.035363 0.847972 0.533880
C100  C     C_R   0.740304 0.035363 0.152028 0.533880
C101  C     C_R   0.774096 0.132439 0.858823 0.533980
C102  C     C_R   0.225904 0.132439 0.141177 0.533980
C103  C     C_R   0.274096 0.632439 0.858823 0.533980
C104  C     C_R   0.725904 0.632440 0.141177 0.533980
C105  C     C_R   0.967619 0.353548 0.854226 0.532207
C106  C     C_R   0.032381 0.353548 0.145774 0.532207
C107  C     C_R   0.467619 0.853548 0.854226 0.532207
C108  C     C_R   0.532381 0.853548 0.145774 0.532207
C109  C     C_3   0.680348 0.120546 0.470096 -0.041569
C110  C     C_3   0.319651 0.120547 0.529905 -0.041569
C111  C     C_3   0.180348 0.620546 0.470096 -0.041569
C112  C     C_3   0.819651 0.620547 0.529905 -0.041568
C113  C     C_3   0.692216 0.152236 0.548445 -0.209565
C114  C     C_3   0.307784 0.152237 0.451555 -0.209565
C115  C     C_3   0.192216 0.652237 0.548445 -0.209565
C116  C     C_3   0.807784 0.652237 0.451555 -0.209565
C117  C     C_3   0.757899 0.944734 0.480178 -0.246023
C118  C     C_3   0.242101 0.944733 0.519822 -0.246022
C119  C     C_3   0.257899 0.444734 0.480178 -0.246023
C120  C     C_3   0.742101 0.444733 0.519822 -0.246022
Cr1   Cr    Cr6+3 0.885690 0.492860 0.745310 1.037610
Cr2   Cr    Cr6+3 0.114310 0.492860 0.254690 1.037610
Cr3   Cr    Cr6+3 0.385690 0.992860 0.745310 1.037610
Cr4   Cr    Cr6+3 0.614310 0.992860 0.254690 1.037610
Cr5   Cr    Cr6+3 0.729880 0.332270 0.748190 1.004981
Cr6   Cr    Cr6+3 0.270120 0.332270 0.251810 1.004981
Cr7   Cr    Cr6+3 0.229880 0.832270 0.748190 1.004981
Cr8   Cr    Cr6+3 0.770120 0.832270 0.251810 1.004981
Cr9   Cr    Cr6+3 0.888120 0.178590 0.753010 1.013024
Cr10  Cr    Cr6+3 0.111880 0.178590 0.246990 1.013025
Cr11  Cr    Cr6+3 0.388120 0.678590 0.753010 1.013024
Cr12  Cr    Cr6+3 0.611880 0.678590 0.246990 1.013025
H1    H     H_    0.645333 0.051506 0.473850 0.136878
H2    H     H_    0.354667 0.051507 0.526150 0.136878
H3    H     H_    0.145333 0.551506 0.473850 0.136878
H4    H     H_    0.854667 0.551507 0.526150 0.136878
H5    H     H_    0.861638 0.072757 0.535350 0.150768
H6    H     H_    0.138362 0.072757 0.464650 0.150768
H7    H     H_    0.361638 0.572757 0.535350 0.150768
H8    H     H_    0.638362 0.572757 0.464650 0.150768
H9    H     H_    0.811578 0.919625 0.469971 0.165662
H10   H     H_    0.188422 0.919625 0.530029 0.165662
H11   H     H_    0.311578 0.419625 0.469971 0.165662
H12   H     H_    0.688422 0.419625 0.530029 0.165662
H13   H     H_    0.788774 0.914493 0.591367 0.183896
H14   H     H_    0.211227 0.914492 0.408633 0.183896
H15   H     H_    0.288774 0.414493 0.591367 0.183896
H16   H     H_    0.711227 0.414492 0.408633 0.183896
H17   H     H_    0.047244 0.148498 0.441424 0.143898
H18   H     H_    0.952756 0.148498 0.558576 0.143898
H19   H     H_    0.547244 0.648498 0.441424 0.143898
H20   H     H_    0.452756 0.648498 0.558576 0.143898
H21   H     H_    0.959621 0.155181 0.434586 0.116211
H22   H     H_    0.040379 0.155181 0.565414 0.116210
H23   H     H_    0.459621 0.655181 0.434586 0.116211
H24   H     H_    0.540379 0.655181 0.565414 0.116210
H25   H     H_    0.614195 0.881504 0.451405 0.102916
H26   H     H_    0.385805 0.881504 0.548595 0.102916
H27   H     H_    0.114195 0.381504 0.451405 0.102916
H28   H     H_    0.885805 0.381504 0.548595 0.102916
H29   H     H_    0.601700 0.827822 0.572854 0.105705
H30   H     H_    0.398300 0.827822 0.427146 0.105705
H31   H     H_    0.101700 0.327822 0.572854 0.105705
H32   H     H_    0.898300 0.327822 0.427146 0.105705
H33   H     H_    0.934964 0.471202 0.419811 0.134176
H34   H     H_    0.065036 0.471202 0.580189 0.134176
H35   H     H_    0.434964 0.971202 0.419811 0.134176
H36   H     H_    0.565036 0.971202 0.580189 0.134176
H37   H     H_    0.949672 0.492871 0.538314 0.170803
H38   H     H_    0.050328 0.492871 0.461686 0.170803
H39   H     H_    0.449671 0.992871 0.538314 0.170803
H40   H     H_    0.550328 0.992871 0.461686 0.170803
H41   H     H_    0.834695 0.937908 0.064421 0.140433
H42   H     H_    0.165305 0.937908 0.935579 0.140433
H43   H     H_    0.334695 0.437908 0.064421 0.140433
H44   H     H_    0.665305 0.437908 0.935579 0.140433
H45   H     H_    0.860254 0.085809 0.064949 0.116070
H46   H     H_    0.139745 0.085809 0.935050 0.116070
H47   H     H_    0.360254 0.585809 0.064949 0.116070
H48   H     H_    0.639745 0.585809 0.935050 0.116070
H49   H     H_    0.870474 0.043635 0.946922 0.136753
H50   H     H_    0.129526 0.043636 0.053078 0.136753
H51   H     H_    0.370474 0.543636 0.946922 0.136753
H52   H     H_    0.629526 0.543636 0.053078 0.136753
H53   H     H_    0.809679 0.931520 0.947093 0.118777
H54   H     H_    0.190320 0.931521 0.052907 0.118777
H55   H     H_    0.309679 0.431520 0.947093 0.118777
H56   H     H_    0.690320 0.431521 0.052907 0.118777
H57   H     H_    0.700030 0.924888 0.041382 0.107639
H58   H     H_    0.299969 0.924887 0.958619 0.107640
H59   H     H_    0.200030 0.424888 0.041382 0.107639
H60   H     H_    0.799969 0.424887 0.958619 0.107640
H61   H     H_    0.689412 0.959628 0.919824 0.102646
H62   H     H_    0.310588 0.959629 0.080176 0.102646
H63   H     H_    0.189412 0.459628 0.919824 0.102646
H64   H     H_    0.810588 0.459629 0.080176 0.102646
H65   H     H_    0.693899 0.235671 0.076440 0.123840
H66   H     H_    0.306101 0.235671 0.923560 0.123841
H67   H     H_    0.193899 0.735671 0.076440 0.123841
H68   H     H_    0.806101 0.735671 0.923560 0.123841
H69   H     H_    0.783428 0.251019 0.093265 0.102042
H70   H     H_    0.216573 0.251020 0.906735 0.102042
H71   H     H_    0.283428 0.751019 0.093265 0.102042
H72   H     H_    0.716573 0.751019 0.906735 0.102042
H73   H     H_    0.808322 0.252109 0.974878 0.108878
H74   H     H_    0.191678 0.252109 0.025121 0.108878
H75   H     H_    0.308322 0.752109 0.974878 0.108878
H76   H     H_    0.691678 0.752109 0.025121 0.108878
H77   H     H_    0.720167 0.279980 0.957675 0.125684
H78   H     H_    0.279832 0.279981 0.042325 0.125684
H79   H     H_    0.220167 0.779980 0.957675 0.125684
H80   H     H_    0.779832 0.779981 0.042325 0.125684
H81   H     H_    0.641769 0.043282 0.054597 0.131009
H82   H     H_    0.358231 0.043281 0.945402 0.131009
H83   H     H_    0.141769 0.543282 0.054597 0.131009
H84   H     H_    0.858231 0.543281 0.945402 0.131009
H85   H     H_    0.693928 0.246127 0.555521 0.159712
H86   H     H_    0.306072 0.246127 0.444479 0.159711
H87   H     H_    0.193928 0.746127 0.555521 0.159712
H88   H     H_    0.806072 0.746128 0.444479 0.159711
H89   H     H_    0.651107 0.101014 0.935969 0.119963
H90   H     H_    0.348893 0.101014 0.064031 0.119963
H91   H     H_    0.151107 0.601014 0.935969 0.119963
H92   H     H_    0.848893 0.601015 0.064031 0.119963
H93   H     H_    0.035145 0.546184 0.059910 0.134539
H94   H     H_    0.964855 0.546184 0.940090 0.134539
H95   H     H_    0.535145 0.046184 0.059910 0.134539
H96   H     H_    0.464855 0.046184 0.940090 0.134539
H97   H     H_    0.948501 0.510691 0.059629 0.118194
H98   H     H_    0.051498 0.510691 0.940371 0.118194
H99   H     H_    0.448501 0.010691 0.059629 0.118194
H100  H     H_    0.551498 0.010691 0.940371 0.118194
H101  H     H_    0.608448 0.854116 0.028810 0.108859
H102  H     H_    0.391551 0.854116 0.971189 0.108858
H103  H     H_    0.108448 0.354116 0.028810 0.108859
H104  H     H_    0.891551 0.354117 0.971190 0.108858
H105  H     H_    0.595717 0.812125 0.911234 0.100711
H106  H     H_    0.404283 0.812125 0.088766 0.100711
H107  H     H_    0.095717 0.312125 0.911234 0.100711
H108  H     H_    0.904283 0.312125 0.088766 0.100711
H109  H     H_    0.957308 0.186920 0.069085 0.123183
H110  H     H_    0.042691 0.186920 0.930915 0.123183
H111  H     H_    0.457308 0.686920 0.069085 0.123183
H112  H     H_    0.542691 0.686920 0.930915 0.123183
H113  H     H_    0.918589 0.207280 0.952600 0.133380
H114  H     H_    0.081410 0.207280 0.047400 0.133380
H115  H     H_    0.418590 0.707280 0.952600 0.133380
H116  H     H_    0.581410 0.707280 0.047400 0.133380
H117  H     H_    0.648478 0.122688 0.582054 0.120763
H118  H     H_    0.351522 0.122689 0.417946 0.120763
H119  H     H_    0.148478 0.622688 0.582054 0.120763
H120  H     H_    0.851522 0.622689 0.417946 0.120763
H121  H     H_    0.724010 0.873854 0.463169 0.106115
H122  H     H_    0.275989 0.873853 0.536831 0.106115
H123  H     H_    0.224010 0.373854 0.463169 0.106115
H124  H     H_    0.775989 0.373853 0.536831 0.106115
H125  H     H_    0.700274 0.933623 0.580969 0.101405
H126  H     H_    0.299727 0.933624 0.419031 0.101404
H127  H     H_    0.200274 0.433623 0.580969 0.101405
H128  H     H_    0.799727 0.433624 0.419031 0.101404
H129  H     H_    0.849439 0.113935 0.416755 0.124376
H130  H     H_    0.150561 0.113935 0.583245 0.124377
H131  H     H_    0.349439 0.613935 0.416755 0.124376
H132  H     H_    0.650561 0.613935 0.583245 0.124377
H133  H     H_    0.791111 0.232627 0.431518 0.132227
H134  H     H_    0.208888 0.232627 0.568482 0.132227
H135  H     H_    0.291111 0.732627 0.431518 0.132227
H136  H     H_    0.708888 0.732627 0.568482 0.132227
H137  H     H_    0.839587 0.222158 0.547948 0.110721
H138  H     H_    0.160413 0.222158 0.452052 0.110721
H139  H     H_    0.339587 0.722158 0.547948 0.110722
H140  H     H_    0.660413 0.722158 0.452052 0.110722
O1    O     O_R   0.957210 0.449410 0.665480 -0.507001
O2    O     O_R   0.042790 0.449410 0.334520 -0.507000
O3    O     O_R   0.457210 0.949410 0.665480 -0.507001
O4    O     O_R   0.542790 0.949410 0.334520 -0.507000
O5    O     O_R   0.736260 0.212010 0.826560 -0.510497
O6    O     O_R   0.263740 0.212010 0.173440 -0.510497
O7    O     O_R   0.236260 0.712010 0.826560 -0.510497
O8    O     O_R   0.763740 0.712010 0.173440 -0.510497
O9    O     O_R   0.832520 0.095300 0.836000 -0.530060
O10   O     O_R   0.167480 0.095300 0.164000 -0.530060
O11   O     O_R   0.332520 0.595300 0.836000 -0.530060
O12   O     O_R   0.667480 0.595300 0.164000 -0.530060
O13   O     O_R   0.946380 0.253940 0.826940 -0.515063
O14   O     O_R   0.053620 0.253940 0.173060 -0.515063
O15   O     O_R   0.446380 0.753940 0.826940 -0.515063
O16   O     O_R   0.553620 0.753940 0.173060 -0.515063
O17   O     O_3   0.834560 0.334570 0.748840 -0.285975
O18   O     O_3   0.165440 0.334570 0.251160 -0.285975
O19   O     O_3   0.334560 0.834570 0.748840 -0.285975
O20   O     O_3   0.665440 0.834570 0.251160 -0.285975
O21   O     O_R   0.820730 0.541240 0.668250 -0.472844
O22   O     O_R   0.179270 0.541240 0.331750 -0.472844
O23   O     O_R   0.320730 0.041240 0.668250 -0.472844
O24   O     O_R   0.679270 0.041240 0.331750 -0.472844
O25   O     O_R   0.714240 0.455060 0.663710 -0.531533
O26   O     O_R   0.285760 0.455060 0.336290 -0.531533
O27   O     O_R   0.214240 0.955060 0.663710 -0.531533
O28   O     O_R   0.785760 0.955060 0.336290 -0.531533
O29   O     O_R   0.736780 0.204870 0.675910 -0.516571
O30   O     O_R   0.263220 0.204870 0.324090 -0.516570
O31   O     O_R   0.236780 0.704870 0.675910 -0.516571
O32   O     O_R   0.763220 0.704870 0.324090 -0.516571
O33   O     O_R   0.833070 0.087590 0.673490 -0.507887
O34   O     O_R   0.166930 0.087590 0.326510 -0.507886
O35   O     O_R   0.333070 0.587590 0.673490 -0.507887
O36   O     O_R   0.666930 0.587590 0.326510 -0.507887
O37   O     O_R   0.946890 0.246800 0.676300 -0.512311
O38   O     O_R   0.053110 0.246800 0.323700 -0.512311
O39   O     O_R   0.446890 0.746800 0.676300 -0.512311
O40   O     O_R   0.553110 0.746800 0.323700 -0.512311
O41   O     O_R   0.956650 0.457120 0.827980 -0.529562
O42   O     O_R   0.043350 0.457120 0.172020 -0.529562
O43   O     O_R   0.456650 0.957120 0.827980 -0.529562
O44   O     O_R   0.543350 0.957120 0.172020 -0.529562
O45   O     O_R   0.820220 0.548390 0.818890 -0.505620
O46   O     O_R   0.179780 0.548390 0.181110 -0.505621
O47   O     O_R   0.320220 0.048390 0.818890 -0.505620
O48   O     O_R   0.679780 0.048390 0.181110 -0.505621
O49   O     O_R   0.713680 0.462770 0.826210 -0.532684
O50   O     O_R   0.286320 0.462770 0.173790 -0.532683
O51   O     O_R   0.213680 0.962770 0.826210 -0.532684
O52   O     O_R   0.786320 0.962770 0.173790 -0.532683
I1    I     I_    0.616575 0.243764 0.414419 -0.446584
I2    I     I_    0.383425 0.243764 0.585582 -0.446584
I3    I     I_    0.116575 0.743764 0.414419 -0.446584
I4    I     I_    0.883425 0.743764 0.585582 -0.446584

loop_
_geom_bond_atom_site_label_1
_geom_bond_atom_site_label_2
_ccdc_geom_bond_type
C78   H94   S    
C5    H133  S    
C82   C94   S    
C119  H11   S    
C120  H12   S    
C21   H5    S    
C53   C69   S    
C104  O8    A    
C56   H60   S    
C43   C63   S    
C44   C64   S    
Cr6   O6    S    
Cr11  O35   S    
C84   H115  S    
C112  H4    S    
C63   C98   S    
C51   H51   S    
Cr2   O2    S    
C19   H127  S    
C35   C39   S    
C31   H40   S    
C28   C40   S    
C72   H92   S    
C36   H36   S    
C30   C38   S    
C113  H85   S    
C75   H75   S    
C112  I4    S    
C56   C72   S    
C45   O33   A    
C110  I2    S    
C18   C118  S    
C81   C86   S    
C83   C88   S    
C87   H106  S    
C48   O32   A    
C5    H129  S    
C41   C49   S    
Cr8   O28   S    
Cr1   O45   S    
Cr2   O42   S    
Cr3   O47   S    
Cr4   O48   S    
C26   C38   S    
Cr10  O34   S    
C14   C114  S    
Cr11  O39   S    
C60   C76   S    
C24   H8    S    
Cr8   O52   S    
C55   H59   S    
C30   H37   S    
C88   H112  S    
C54   C70   S    
C48   O36   A    
C68   C72   S    
C23   H139  S    
C69   H61   S    
C13   C21   S    
C99   O47   A    
C3    O27   A    
C31   H25   S    
C64   C97   S    
C36   H29   S    
C15   C115  S    
C20   C120  S    
C101  O5    A    
C54   H82   S    
C57   H65   S    
C59   C63   S    
C52   H52   S    
Cr4   O20   S    
C72   H64   S    
C57   C61   S    
C82   C85   S    
Cr6   O50   S    
C77   H97   S    
Cr11  O19   S    
C60   C64   S    
Cr9   O13   S    
C13   C45   S    
C102  O6    A    
C78   C94   S    
C91   O3    A    
C69   H89   S    
C95   C108  S    
C60   H68   S    
C62   C99   S    
C107  O43   A    
C5    C21   S    
C58   H70   S    
C79   H95   S    
C31   C36   S    
C47   O35   A    
C4    O28   A    
C97   O45   A    
Cr5   O17   S    
C90   O38   A    
Cr1   O21   S    
C84   H102  S    
Cr2   O18   S    
C65   C101  S    
Cr10  O14   S    
Cr3   O23   S    
Cr11  O11   S    
C67   C103  S    
C66   C70   S    
C37   C90   S    
C24   H140  S    
C41   H45   S    
C42   H46   S    
C55   H83   S    
C115  H119  S    
C66   C74   S    
C113  H117  S    
C25   H17   S    
C57   C73   S    
C53   C61   S    
C60   H72   S    
C83   H101  S    
C55   C63   S    
C6    H134  S    
C56   C64   S    
C7    H131  S    
Cr7   O51   S    
C116  H88   S    
C42   C62   S    
Cr5   O29   S    
C76   H80   S    
C50   H50   S    
C1    C12   S    
Cr9   O33   S    
C80   H100  S    
C2    C11   S    
Cr3   O3    S    
C6    H130  S    
C42   H42   S    
Cr9   O37   S    
C25   C26   S    
C105  O13   A    
C107  O15   A    
C5    C9    S    
C108  O16   A    
C93   C106  S    
C71   H63   S    
C8    C12   S    
C90   O2    A    
C51   C67   S    
C43   H47   S    
C7    H135  S    
C42   C50   S    
C49   H49   S    
Cr2   O46   S    
Cr3   O43   S    
C110  H2    S    
C61   C100  S    
C67   C75   S    
C17   H125  S    
C50   H54   S    
C112  C116  S    
C58   C74   S    
Cr10  O38   S    
C41   H41   S    
C53   H81   S    
C54   H58   S    
C81   H114  S    
C33   H33   S    
C44   H44   S    
C68   C76   S    
C1    O21   A    
C98   O46   A    
C85   H108  S    
C14   C22   S    
C3    O23   A    
C27   C39   S    
C7    C23   S    
C8    C24   S    
C40   C91   S    
C101  O9    A    
C56   H84   S    
C8    H132  S    
Cr7   O27   S    
C46   O30   A    
C99   O51   A    
Cr8   O20   S    
C114  H86   S    
C49   H53   S    
C57   H69   S    
C52   H56   S    
Cr7   O7    S    
C4    C9    S    
Cr4   O24   S    
C53   H57   S    
Cr8   O8    S    
C86   H110  S    
C58   C62   S    
C89   O1    A    
C88   C96   S    
C94   C105  S    
C77   H93   S    
C82   H104  S    
C79   H99   S    
C12   C112  S    
C44   H48   S    
C21   H137  S    
C14   C46   S    
C77   C78   S    
C15   C19   S    
C75   H79   S    
C1    O25   A    
C92   O40   A    
C6    C22   S    
C2    O22   A    
C73   H73   S    
Cr6   O18   S    
Cr2   O22   S    
C103  O7    A    
Cr3   O19   S    
C46   O34   A    
C109  I1    S    
C82   H113  S    
C17   C117  S    
C19   C119  S    
C27   H23   S    
C81   H103  S    
Cr12  O36   S    
C16   C116  S    
C76   H76   S    
C9    C109  S    
C25   H21   S    
C26   H18   S    
C105  O41   A    
C54   C62   S    
C18   H14   S    
C109  H1    S    
C29   C34   S    
C108  O44   A    
C33   C37   S    
C41   C61   S    
C30   H28   S    
C79   C95   S    
Cr5   O25   S    
Cr6   O30   S    
C70   H62   S    
C85   H109  S    
C86   H107  S    
C80   H96   S    
Cr12  O12   S    
C32   H39   S    
C91   O39   A    
C100  O52   A    
C39   C92   S    
C73   H77   S    
C27   H19   S    
C106  O14   A    
C14   C18   S    
C68   C104  S    
C119  H123  S    
C17   H13   S    
C6    C10   S    
C13   C17   S    
C78   H98   S    
C22   H6    S    
Cr5   O49   S    
C19   H15   S    
C104  O12   A    
C43   C51   S    
Cr5   O5    S    
C65   C69   S    
C77   C93   S    
C70   H90   S    
C10   C110  S    
C67   C71   S    
C111  H3    S    
Cr1   O1    S    
C18   H126  S    
C51   H55   S    
C59   H71   S    
C29   C37   S    
C11   C111  S    
C34   H34   S    
C43   H43   S    
C9    C117  S    
C102  O10   A    
C117  H9    S    
C84   C87   S    
C15   C47   S    
C8    H136  S    
C11   C119  S    
C16   C48   S    
C29   H27   S    
C7    C11   S    
C38   C89   S    
C49   C65   S    
C74   H78   S    
C23   H7    S    
Cr7   O31   S    
Cr8   O32   S    
Cr1   O41   S    
C114  H118  S    
C65   C73   S    
C84   C96   S    
Cr4   O44   S    
C118  H122  S    
C25   C37   S    
C12   C120  S    
C59   H67   S    
C83   H116  S    
C35   H35   S    
Cr12  O20   S    
C55   C71   S    
C29   H38   S    
C80   C96   S    
C86   C94   S    
C52   C68   S    
C16   C20   S    
C22   H138  S    
C15   C23   S    
Cr9   O17   S    
C16   C24   S    
C115  H87   S    
C85   C93   S    
C2    O26   A    
C103  O11   A    
C32   H26   S    
C35   H30   S    
C71   H91   S    
C117  H121  S    
C32   C35   S    
C36   C40   S    
C33   H32   S    
C34   H31   S    
C97   O49   A    
C66   C102  S    
Cr7   O19   S    
C116  H120  S    
C87   C95   S    
C120  H124  S    
C10   C118  S    
C81   C93   S    
C87   H111  S    
C83   C95   S    
Cr10  O18   S    
C20   H16   S    
Cr12  O40   S    
Cr9   O9    S    
C50   C66   S    
C100  O48   A    
C20   H128  S    
C28   H20   S    
C45   O29   A    
C26   H22   S    
C92   O4    A    
C59   C75   S    
C106  O42   A    
C74   H74   S    
C110  C114  S    
C58   H66   S    
C30   C33   S    
C34   C38   S    
C96   C107  S    
C47   O31   A    
C4    O24   A    
C118  H10   S    
C89   O37   A    
Cr6   O26   S    
C109  C113  S    
Cr1   O17   S    
Cr10  O10   S    
C3    C10   S    
Cr11  O15   S    
Cr4   O4    S    
C44   C52   S    
Cr12  O16   S    
C88   H105  S    
C31   C39   S    
C32   C40   S    
C79   C80   S    
C98   O50   A    
C27   C28   S    
C28   H24   S    
C111  C115  S    
C111  I3    S    
C13   C113  S    
