data_mof_unit_35751.cif
_audit_creation_date              2012-10-26T20:48:02-0400
_audit_creation_method            fapswitch 2.2
_symmetry_space_group_name_H-M    P1
_symmetry_Int_Tables_number       1
_space_group_crystal_system       triclinic
_cell_length_a                    15.107299
_cell_length_b                    13.828342
_cell_length_c                    10.730646
_cell_angle_alpha                 90.118441
_cell_angle_beta                  90.014579
_cell_angle_gamma                 89.987831
_cell_volume                      2241.72251022

loop_
_atom_site_label
_atom_site_type_symbol
_atom_type_description
_atom_site_fract_x
_atom_site_fract_y
_atom_site_fract_z
_atom_type_partial_charge
C1    C     C_R   0.330138 0.500009 0.500010 0.617399
C2    C     C_R   0.905905 0.588010 0.515275 -0.012863
C3    C     C_R   0.813594 0.412875 0.487025 -0.144170
C4    C     C_R   0.813593 0.587006 0.513402 -0.144282
C5    C     C_R   0.767246 0.499958 0.500138 -0.019806
C6    C     C_R   0.952642 0.499898 0.500334 0.016918
C7    C     C_R   0.572328 0.107129 0.546231 -0.147205
C8    C     C_R   0.572850 0.892878 0.455527 -0.147008
C9    C     C_R   0.499476 0.499798 0.259621 0.553550
C10   C     C_R   0.570724 0.208953 0.546783 0.035630
C11   C     C_R   0.571250 0.791054 0.454890 0.036379
C12   C     C_3   0.583497 0.550090 0.928325 -0.235639
C13   C     C_R   0.429218 0.209013 0.453124 0.031084
C14   C     C_R   0.428705 0.791039 0.545263 0.031665
C15   C     C_R   0.427191 0.107206 0.454051 -0.152036
C16   C     C_R   0.426684 0.892848 0.544296 -0.151956
C17   C     C_R   0.499690 0.054449 0.500148 0.022743
C18   C     C_R   0.499696 0.945582 0.499909 0.022743
C19   C     C_R   0.670369 0.499989 0.500024 0.543772
C20   C     C_R   0.499480 0.499907 0.740392 0.554794
C21   C     C_3   0.416445 0.553386 0.072105 -0.230846
C22   C     C_3   0.497259 0.393945 0.071045 -0.233761
C23   C     C_R   0.095680 0.554151 0.411502 -0.120859
C24   C     C_3   0.416340 0.553272 0.928211 -0.241579
C25   C     C_3   0.497301 0.394008 0.928383 -0.232110
C26   C     C_3   0.583559 0.549922 0.072096 -0.237177
C27   C     C_3   0.499148 0.499258 0.121775 0.043706
C28   C     C_3   0.499132 0.499389 0.878263 0.048041
C29   C     C_3   0.221424 0.710177 0.347882 0.005685
C30   C     C_3   0.286997 0.767154 0.269485 -0.372493
C31   C     C_3   0.222399 0.289869 0.651820 0.006438
C32   C     C_3   0.288465 0.233135 0.729790 -0.370799
C33   C     C_R   0.951700 0.317880 0.465894 0.030736
C34   C     C_R   0.095853 0.445681 0.588923 -0.120972
C35   C     C_R   0.011159 0.305423 0.366332 -0.086455
C36   C     C_R   0.056059 0.217789 0.350930 -0.123206
C37   C     C_R   0.041321 0.141638 0.433751 -0.119177
C38   C     C_R   0.981385 0.152865 0.531889 -0.125230
C39   C     C_R   0.936548 0.240519 0.547930 -0.112927
C40   C     C_R   0.951699 0.681910 0.534831 0.030758
C41   C     C_R   0.011155 0.694291 0.634447 -0.086413
C42   C     C_R   0.056075 0.781886 0.649934 -0.123169
C43   C     C_R   0.041364 0.858072 0.567140 -0.119218
C44   C     C_R   0.981435 0.846921 0.468943 -0.125359
C45   C     C_R   0.187987 0.557844 0.414104 0.202566
C46   C     C_R   0.936576 0.759306 0.452819 -0.113085
C47   C     C_R   0.188158 0.442143 0.586191 0.202352
C48   C     C_R   0.234029 0.500013 0.500106 0.032356
C49   C     C_R   0.049750 0.499900 0.500256 -0.058911
C50   C     C_R   0.905909 0.411811 0.485348 -0.012918
Cu1   Cu    Cu3+1 0.499990 0.596430 0.500000 0.929713
Cu2   Cu    Cu3+1 0.499990 0.403570 0.500000 0.928534
H1    H     H_    0.416115 0.629379 0.106444 0.134512
H2    H     H_    0.372692 0.752121 0.582591 0.117296
H3    H     H_    0.369959 0.069958 0.416691 0.085484
H4    H     H_    0.369032 0.930115 0.580332 0.085384
H5    H     H_    0.355079 0.518103 0.107048 0.143008
H6    H     H_    0.437064 0.355748 0.105067 0.124672
H7    H     H_    0.355084 0.517552 0.893358 0.139186
H8    H     H_    0.437143 0.355781 0.894056 0.133880
H9    H     H_    0.415630 0.629200 0.893991 0.124332
H10   H     H_    0.556109 0.353247 0.894235 0.123068
H11   H     H_    0.586668 0.625776 0.106753 0.124691
H12   H     H_    0.556036 0.353138 0.105020 0.130859
H13   H     H_    0.643658 0.511901 0.106717 0.110124
H14   H     H_    0.586437 0.626022 0.894350 0.130694
H15   H     H_    0.643628 0.512259 0.893307 0.108995
H16   H     H_    0.059658 0.593937 0.340944 0.126468
H17   H     H_    0.059987 0.405799 0.659508 0.126710
H18   H     H_    0.232965 0.729066 0.447707 0.129441
H19   H     H_    0.153310 0.732517 0.320948 0.132369
H20   H     H_    0.275186 0.752952 0.168938 0.142675
H21   H     H_    0.279040 0.845732 0.287900 0.085425
H22   H     H_    0.355756 0.745525 0.293228 0.181345
H23   H     H_    0.777935 0.345427 0.475366 0.126314
H24   H     H_    0.233951 0.271364 0.551874 0.129316
H25   H     H_    0.154451 0.266969 0.678726 0.132009
H26   H     H_    0.276791 0.247023 0.830434 0.142890
H27   H     H_    0.280931 0.154545 0.711095 0.084912
H28   H     H_    0.357048 0.255267 0.705910 0.181849
H29   H     H_    0.022963 0.363629 0.301056 0.111790
H30   H     H_    0.102281 0.208911 0.274714 0.099406
H31   H     H_    0.076197 0.073895 0.421680 0.094451
H32   H     H_    0.969908 0.093739 0.595822 0.105140
H33   H     H_    0.891003 0.248588 0.625194 0.096986
H34   H     H_    0.777934 0.654472 0.525008 0.125931
H35   H     H_    0.022943 0.636054 0.699697 0.111771
H36   H     H_    0.102294 0.790705 0.726193 0.099449
H37   H     H_    0.076257 0.925785 0.579274 0.094476
H38   H     H_    0.969984 0.906071 0.405027 0.105154
H39   H     H_    0.891042 0.751294 0.375506 0.096991
H40   H     H_    0.629434 0.069800 0.583668 0.091856
H41   H     H_    0.630380 0.930190 0.419443 0.091866
H42   H     H_    0.626512 0.247883 0.585079 0.116717
H43   H     H_    0.627479 0.752165 0.417837 0.116832
H44   H     H_    0.373628 0.248000 0.414583 0.117008
N1    N     N_R   0.500020 0.258690 0.500000 -0.223366
N2    N     N_R   0.500020 0.741310 0.500000 -0.222983
O1    O     O_R   0.371450 0.581430 0.500010 -0.495224
O2    O     O_3   0.234395 0.389676 0.674618 -0.562320
O3    O     O_R   0.371450 0.418570 0.500010 -0.495039
O4    O     O_R   0.499980 0.581440 0.317690 -0.503903
O5    O     O_R   0.499980 0.418560 0.317690 -0.508721
O6    O     O_R   0.628540 0.581440 0.499990 -0.515849
O7    O     O_R   0.628540 0.418560 0.499990 -0.515314
O8    O     O_R   0.500010 0.581440 0.682310 -0.507230
O9    O     O_R   0.500010 0.418560 0.682310 -0.505577
O10   O     O_3   0.234064 0.610388 0.325631 -0.564144

loop_
_geom_bond_atom_site_label_1
_geom_bond_atom_site_label_2
_ccdc_geom_bond_type
C7    C10   A    
Cu2   O5    S    
C24   H9    S    
C23   C45   A    
C41   C42   A    
C35   C36   A    
C43   C44   A    
C1    O1    A    
C35   H29   S    
Cu1   O4    S    
C40   C46   A    
C26   C27   S    
C43   H37   S    
C12   C28   S    
C11   N2    A    
C36   C37   A    
C37   C38   A    
Cu1   O8    S    
C38   C39   A    
C30   H22   S    
C23   C49   A    
C4    H34   S    
C10   H42   S    
Cu2   N1    S    
C24   H7    S    
C31   C32   S    
Cu2   O9    S    
C36   H30   S    
C9    O4    A    
C7    C17   A    
C22   C25   S    
C29   O10   S    
C31   H25   S    
C25   H8    S    
C3    H23   S    
C45   O10   S    
C20   O9    A    
Cu1   N2    S    
C21   C27   S    
C2    C6    A    
C3    C50   A    
C44   C46   A    
C14   N2    A    
C20   O8    A    
Cu1   O1    S    
C41   H35   S    
C12   H15   S    
Cu2   O3    S    
C13   H44   S    
Cu1   Cu2   S    
C30   H21   S    
C46   H39   S    
C20   C28   S    
C33   C50   S    
C12   H14   S    
C8    C18   A    
C47   O2    S    
C12   C26   S    
C25   C28   S    
C15   H3    S    
C23   H16   S    
C10   N1    A    
C2    C4    A    
C26   H11   S    
C16   H4    S    
C21   H5    S    
C29   C30   S    
C32   H28   S    
C19   O6    A    
C47   C48   A    
C9    O5    A    
C17   C18   S    
C33   C39   A    
C31   O2    S    
C6    C50   A    
C34   H17   S    
C19   O7    A    
C40   C41   A    
C14   H2    S    
Cu2   O7    S    
C22   C27   S    
C13   C15   A    
C14   C16   A    
C42   H36   S    
C42   C43   A    
C39   H33   S    
C1    O3    A    
C44   H38   S    
C9    C27   S    
C29   H18   S    
C45   C48   A    
C11   H43   S    
C15   C17   A    
C34   C49   A    
C38   H32   S    
C26   H13   S    
C8    H41   S    
C24   C28   S    
C4    C5    A    
C3    C5    A    
C22   H6    S    
C30   H20   S    
C1    C48   S    
C5    C19   S    
Cu1   O6    S    
C32   H27   S    
C21   H1    S    
C31   H24   S    
C8    C11   A    
C7    H40   S    
C33   C35   A    
C25   H10   S    
C6    C49   S    
C13   N1    A    
C32   H26   S    
C2    C40   S    
C16   C18   A    
C21   C24   S    
C37   H31   S    
C34   C47   A    
C22   H12   S    
C29   H19   S    
