data_mof_unit_48790.cif
_audit_creation_date              2012-12-10T18:08:46-0500
_audit_creation_method            fapswitch 2.2
_symmetry_space_group_name_H-M    P1
_symmetry_Int_Tables_number       1
_space_group_crystal_system       triclinic
_cell_length_a                    12.722765
_cell_length_b                    13.871004
_cell_length_c                    23.463404
_cell_angle_alpha                 90.145321
_cell_angle_beta                  91.832203
_cell_angle_gamma                 98.61193
_cell_volume                      4091.87178048

loop_
_atom_site_label
_atom_site_type_symbol
_atom_type_description
_atom_site_fract_x
_atom_site_fract_y
_atom_site_fract_z
_atom_type_partial_charge
C1    C     C_R   0.482973 0.315639 0.499219 0.811161
C2    C     C_R   0.516980 0.684337 0.500728 0.806467
C3    C     C_R   0.592941 0.583780 0.243268 0.007158
C4    C     C_R   0.508343 0.410163 0.760909 0.063118
C5    C     C_R   0.586602 0.577720 0.303266 -0.063633
C6    C     C_R   0.520617 0.415339 0.701200 -0.113145
C7    C     C_R   0.507456 0.508351 0.327761 -0.226200
C8    C     C_R   0.492211 0.496922 0.671521 -0.212312
C9    C     C_R   0.434947 0.445376 0.292317 -0.060248
C10   C     C_R   0.443997 0.567218 0.700896 -0.066986
C11   C     C_R   0.444438 0.449417 0.232357 0.009429
C12   C     C_R   0.429201 0.555744 0.760007 0.024315
C13   C     C_R   0.522956 0.518782 0.208385 0.137481
C14   C     C_R   0.490869 0.495271 0.790687 0.140678
C15   C     C_1   0.527451 0.787905 0.502101 -0.163814
C16   C     C_1   0.472203 0.211997 0.498171 -0.167303
C17   C     C_2   0.544526 0.980544 0.505310 0.392465
C18   C     C_2   0.454726 0.019308 0.495593 0.391456
C19   C     C_1   0.463097 0.124665 0.497031 -0.051039
C20   C     C_1   0.536155 0.875181 0.503537 -0.051548
C21   C     C_2   0.026235 0.462148 0.492840 0.301340
C22   C     C_2   0.973688 0.537721 0.506227 0.302028
C23   C     C_R   0.501817 0.501704 0.390669 0.754620
C24   C     C_R   0.498419 0.501045 0.609101 0.755196
C25   C     C_1   0.854913 0.522949 0.508058 0.175379
C26   C     C_1   0.145078 0.477052 0.491584 0.158127
C27   C     C_R   0.508417 0.598828 0.878420 0.533632
C28   C     C_R   0.579573 0.455103 0.120128 0.545207
C29   C     C_R   0.586768 0.456043 0.880139 0.652970
C30   C     C_R   0.491588 0.595714 0.117989 0.540721
C31   C     C_R   0.588334 0.454184 0.940289 -0.116683
C32   C     C_R   0.498330 0.601314 0.058174 -0.086672
C33   C     C_R   0.544325 0.526964 0.969292 -0.075067
C34   C     C_R   0.542016 0.527626 0.029385 -0.080408
C35   C     C_R   0.508088 0.602280 0.938125 -0.047867
C36   C     C_R   0.584476 0.455061 0.060568 -0.058137
C37   C     C_R   0.631047 0.381690 0.972134 0.458950
C38   C     C_R   0.462470 0.677396 0.026362 0.459621
C39   C     C_R   0.630503 0.383985 0.031722 -0.223679
C40   C     C_R   0.471246 0.678700 0.966881 -0.254976
Cu1   Cu    Cu3+1 0.395330 0.493960 0.496390 0.987663
Cu2   Cu    Cu3+1 0.604670 0.506040 0.503610 1.007086
H1    H     H_    0.664918 0.328666 0.055242 0.197789
H2    H     H_    0.446155 0.738637 0.943209 0.191175
N1    N     N_R   0.526324 0.515329 0.850681 -0.438940
N2    N     N_R   0.531660 0.523369 0.147337 -0.495392
N3    N     N_1   0.238030 0.484870 0.490960 -0.153952
N4    N     N_1   0.761970 0.515130 0.509040 -0.150665
O1    O     O_R   0.399110 0.356330 0.496510 -0.590292
O2    O     O_R   0.600890 0.643670 0.503490 -0.590913
O3    O     O_R   0.575900 0.366540 0.502610 -0.540025
O4    O     O_R   0.424100 0.633460 0.497390 -0.547493
O5    O     O_R   0.411590 0.494870 0.414830 -0.567590
O6    O     O_R   0.588410 0.505130 0.585170 -0.551688
O7    O     O_R   0.588370 0.505070 0.420930 -0.566794
O8    O     O_R   0.411630 0.494930 0.579070 -0.582048
O9    O     O_2   0.495108 0.679746 0.849003 -0.524383
O10   O     O_2   0.621320 0.386952 0.150753 -0.518049
O11   O     O_2   0.649526 0.403356 0.851955 -0.484281
O12   O     O_2   0.444858 0.661119 0.146856 -0.477441
O13   O     O_3   0.673777 0.307846 0.945704 -0.566364
C41   C     C_3   0.593274 0.226949 0.934834 0.118566
H3    H     H_    0.601860 0.201585 0.890499 0.204632
H4    H     H_    0.510330 0.243993 0.937202 0.148505
C42   C     C_3   0.608255 0.143899 0.975718 -0.376146
H5    H     H_    0.690331 0.126349 0.972675 0.250524
H6    H     H_    0.597073 0.166955 0.020189 0.225181
C43   C     C_3   0.528764 0.052487 0.961837 -0.866932
H7    H     H_    0.446060 0.067847 0.965762 0.258431
H8    H     H_    0.541903 0.993778 0.992155 0.272483
H9    H     H_    0.539293 0.026610 0.917839 0.268983
O14   O     O_3   0.428384 0.755249 0.053730 -0.559025
C44   C     C_3   0.320511 0.760673 0.038982 0.094674
H10   H     H_    0.274578 0.750582 0.078573 0.195319
H11   H     H_    0.282283 0.703533 0.008073 0.114128
C45   C     C_3   0.311850 0.861628 0.014888 -0.369214
H12   H     H_    0.346793 0.918484 0.046360 0.249636
H13   H     H_    0.357291 0.872562 0.975195 0.223198
C46   C     C_3   0.196361 0.873426 0.001466 -0.848750
H14   H     H_    0.160449 0.818523 0.969159 0.263088
H15   H     H_    0.193061 0.947378 0.984147 0.265491
H16   H     H_    0.149532 0.864516 0.040762 0.263485
C47   C     C_2   0.670501 0.658530 0.215256 0.516133
H17   H     H_    0.705199 0.641327 0.175522 0.057695
O15   O     O_2   0.692284 0.741215 0.234512 -0.497643
C48   C     C_2   0.482586 0.312573 0.788000 0.408752
H18   H     H_    0.506347 0.248008 0.769400 0.125367
O16   O     O_2   0.429300 0.302468 0.830560 -0.587302
C49   C     C_2   0.661665 0.644125 0.340883 0.498583
H19   H     H_    0.632568 0.678457 0.377623 0.045041
O17   O     O_2   0.756947 0.657747 0.332482 -0.525443
C50   C     C_2   0.558715 0.335015 0.669312 0.377261
H20   H     H_    0.530613 0.317835 0.625817 0.066475
O18   O     O_2   0.625140 0.289780 0.690590 -0.522364
C51   C     C_2   0.350065 0.375497 0.318488 0.489298
H21   H     H_    0.368035 0.334938 0.356159 0.048445
O19   O     O_2   0.258564 0.365639 0.299522 -0.520763
C52   C     C_2   0.415893 0.655140 0.670992 0.475148
H22   H     H_    0.404034 0.655912 0.625098 0.060336
O20   O     O_2   0.410317 0.730093 0.697401 -0.479006
C53   C     C_2   0.375359 0.380593 0.193241 0.502800
H23   H     H_    0.352719 0.404375 0.151179 0.049227
O21   O     O_2   0.347496 0.295674 0.206283 -0.500774
C54   C     C_2   0.330798 0.580252 0.786122 0.516471
H24   H     H_    0.314680 0.561854 0.830220 0.054732
O22   O     O_2   0.263575 0.615691 0.758327 -0.500397
O23   O     O_3   0.359704 0.956751 0.482511 -0.622438
C55   C     C_3   0.267256 0.002219 0.483350 0.070838
H25   H     H_    0.202970 0.953902 0.459545 0.177115
H26   H     H_    0.276380 0.072683 0.460230 0.143082
C56   C     C_3   0.231529 0.012695 0.544601 -0.337332
H27   H     H_    0.215169 0.939282 0.564158 0.239199
H28   H     H_    0.295525 0.057480 0.570521 0.220076
C57   C     C_3   0.131361 0.060762 0.545902 -0.941327
H29   H     H_    0.148055 0.136307 0.529548 0.258672
H30   H     H_    0.105072 0.063742 0.590454 0.271473
H31   H     H_    0.066227 0.018512 0.519515 0.244488
O24   O     O_3   0.639885 0.043205 0.517582 -0.618519
C58   C     C_3   0.729825 0.995275 0.526090 0.067100
H32   H     H_    0.801452 0.049001 0.517574 0.170782
H33   H     H_    0.731526 0.934719 0.495134 0.139423
C59   C     C_3   0.738911 0.961840 0.588091 -0.330487
H34   H     H_    0.748730 0.026617 0.616828 0.246837
H35   H     H_    0.665400 0.913142 0.599675 0.226197
C60   C     C_3   0.833548 0.907303 0.597356 -0.902814
H36   H     H_    0.822316 0.839693 0.571082 0.252781
H37   H     H_    0.840135 0.886927 0.642917 0.277519
H38   H     H_    0.908419 0.953935 0.585760 0.254587
O25   O     O_3   0.035702 0.627737 0.519328 -0.620778
C61   C     C_3   0.979111 0.708094 0.514901 0.051188
H39   H     H_    0.029116 0.771545 0.536025 0.181950
H40   H     H_    0.904124 0.696728 0.538712 0.139230
C62   C     C_3   0.960284 0.734757 0.452274 -0.334793
H41   H     H_    0.038227 0.758257 0.432615 0.233054
H42   H     H_    0.918874 0.670414 0.428104 0.242761
C63   C     C_3   0.892924 0.816669 0.447206 -0.883837
H43   H     H_    0.812621 0.792145 0.463837 0.254533
H44   H     H_    0.883871 0.836586 0.401702 0.289888
H45   H     H_    0.931467 0.882130 0.471401 0.235764
O26   O     O_3   0.963987 0.372439 0.479146 -0.620877
C64   C     C_3   0.022820 0.294164 0.473367 0.046317
H46   H     H_    0.968792 0.225789 0.482645 0.175561
H47   H     H_    0.089869 0.297178 0.505322 0.131001
C65   C     C_3   0.059656 0.287048 0.412052 -0.305588
H48   H     H_    0.988860 0.270475 0.382719 0.240751
H49   H     H_    0.105499 0.357485 0.398898 0.238143
C66   C     C_3   0.129444 0.207430 0.406291 -0.885705
H50   H     H_    0.203227 0.225509 0.433221 0.249319
H51   H     H_    0.151945 0.201800 0.361217 0.294925
H52   H     H_    0.085858 0.135871 0.419345 0.246404

loop_
_geom_bond_atom_site_label_1
_geom_bond_atom_site_label_2
_ccdc_geom_bond_type
C38   C40   A    
C21   C26   S    
C53   H23   S    
Cu1   Cu2   S    
C51   H21   S    
C45   C46   S    
C54   O22   D    
C57   H29   S    
C41   C42   S    
C28   N2    A    
C66   H51   S    
C45   H13   S    
C12   C54   S    
C64   H47   S    
C13   N2    S    
C48   O16   D    
C4    C48   S    
C24   O6    A    
C17   C20   S    
C55   H25   S    
C17   C18   D    
C18   C19   S    
C44   H10   S    
C10   C52   S    
C18   O23   S    
C41   H4    S    
C2    O2    A    
C66   H50   S    
C33   C35   A    
O24   C58   S    
C29   O11   S    
C43   H7    S    
C42   H6    S    
C22   C25   S    
C30   O12   S    
C62   C63   S    
O23   C55   S    
C31   C33   A    
C32   C38   A    
C49   O17   D    
C9    C51   S    
Cu1   O4    S    
C3    C13   A    
Cu2   O3    S    
C11   C53   S    
C27   N1    A    
C53   O21   D    
C21   C22   D    
C62   H42   S    
C44   H11   S    
C65   C66   S    
C10   C12   A    
Cu1   O1    S    
C54   H24   S    
C23   O5    A    
C14   N1    S    
C58   H33   S    
C39   H1    S    
C15   C20   T    
C38   O14   S    
C66   H52   S    
O26   C64   S    
C65   H49   S    
C27   O9    S    
C64   C65   S    
C5    C7    A    
C48   H18   S    
O14   C44   S    
C6    C8    A    
C27   C35   A    
C31   C37   A    
C29   N1    A    
C63   H45   S    
C61   H40   S    
Cu1   O8    S    
C41   H3    S    
Cu2   O7    S    
C60   H38   S    
C1    O3    A    
C57   H30   S    
C47   H17   S    
C29   C31   A    
C42   C43   S    
C50   O18   D    
C33   C34   A    
Cu1   N3    S    
C56   H28   S    
C1    C16   S    
Cu2   N4    S    
C45   H12   S    
C2    C15   S    
C9    C11   A    
C25   N4    T    
Cu1   O5    S    
C2    O4    A    
C17   O24   S    
Cu2   O2    S    
C43   H9    S    
C26   N3    T    
C4    C6    A    
C47   O15   D    
C12   C14   A    
C52   H22   S    
C52   O20   D    
C22   O25   S    
C3    C47   S    
C62   H41   S    
C44   C45   S    
C61   C62   S    
C59   H35   S    
C63   H44   S    
C46   H15   S    
O25   C61   S    
C58   C59   S    
C7    C9    A    
C56   H27   S    
C30   N2    A    
C36   C39   A    
C65   H48   S    
C3    C5    A    
C46   H16   S    
C37   O13   S    
C58   H32   S    
C51   O19   D    
C23   O7    A    
C28   O10   S    
C24   O8    A    
C55   C56   S    
C59   C60   S    
C35   C40   A    
C49   H19   S    
C37   C39   A    
C64   H46   S    
Cu2   O6    S    
C30   C32   A    
C11   C13   A    
C60   H36   S    
C16   C19   T    
C7    C23   S    
C50   H20   S    
C8    C24   S    
C55   H26   S    
C61   H39   S    
C56   C57   S    
C34   C36   A    
C6    C50   S    
C4    C14   A    
O13   C41   S    
C57   H31   S    
C46   H14   S    
C40   H2    S    
C28   C36   A    
C8    C10   A    
C42   H5    S    
C60   H37   S    
C43   H8    S    
C63   H43   S    
C21   O26   S    
C59   H34   S    
C1    O1    A    
C5    C49   S    
C32   C34   A    
