data_mof_unit_54823.cif
_audit_creation_date              2013-03-05T16:51:31-0500
_audit_creation_method            fapswitch 2.2
_symmetry_space_group_name_H-M    P1
_symmetry_Int_Tables_number       1
_space_group_crystal_system       triclinic
_cell_length_a                    15.827974
_cell_length_b                    15.079367
_cell_length_c                    10.612388
_cell_angle_alpha                 89.331228
_cell_angle_beta                  90.153509
_cell_angle_gamma                 90.096409
_cell_volume                      2532.73541412

loop_
_atom_site_label
_atom_site_type_symbol
_atom_site_description
_atom_site_fract_x
_atom_site_fract_y
_atom_site_fract_z
_atom_type_partial_charge
O1    O     O_R   0.378020 0.573650 0.500040 -0.605037
O2    O     O_R   0.621980 0.426350 0.499960 -0.597639
O3    O     O_R   0.621980 0.573650 0.499960 -0.620314
O4    O     O_R   0.378020 0.426350 0.500040 -0.625066
C1    C     C_R   0.338892 0.499955 0.499341 0.929232
C2    C     C_R   0.661058 0.500046 0.500581 0.954797
O5    O     O_R   0.499980 0.573650 0.313960 -0.601743
O6    O     O_R   0.500020 0.426350 0.686040 -0.597891
O7    O     O_R   0.500020 0.573650 0.686040 -0.577512
O8    O     O_R   0.499980 0.426350 0.313960 -0.569049
C3    C     C_R   0.501827 0.500713 0.257428 1.042062
C4    C     C_R   0.500439 0.499518 0.742557 1.073394
Zn1   Zn    Zn3+2 0.500000 0.598370 0.500000 1.055938
Zn2   Zn    Zn3+2 0.500000 0.401630 0.500000 1.071108
C5    C     C_1   0.250581 0.499732 0.503405 -0.125565
C6    C     C_1   0.749197 0.499834 0.508307 -0.094828
C7    C     C_R   0.467643 0.952374 0.393067 0.375930
C8    C     C_R   0.502113 0.046195 0.614522 0.336609
C9    C     C_R   0.508338 0.951867 0.613696 0.303886
C10   C     C_R   0.468687 0.046891 0.391047 0.336897
C11   C     C_R   0.492144 0.904702 0.502367 -0.270141
C12   C     C_R   0.490728 0.094614 0.501007 -0.297164
C13   C     C_3   0.510307 0.584841 0.037473 0.160487
C14   C     C_3   0.496001 0.416880 0.962421 0.180824
C15   C     C_3   0.574905 0.535713 0.956105 0.156033
C16   C     C_3   0.431249 0.465861 0.043593 0.177986
C17   C     C_3   0.437297 0.548212 0.957766 0.166160
C18   C     C_3   0.568698 0.453457 0.042290 0.156056
C19   C     C_3   0.501937 0.499109 0.875648 -0.420532
C20   C     C_3   0.504010 0.502379 0.124225 -0.408103
C21   C     C_1   0.497079 0.806959 0.501347 0.257843
C22   C     C_1   0.496411 0.192846 0.500281 0.248445
N1    N     N_1   0.500000 0.270550 0.500000 -0.087513
N2    N     N_1   0.500000 0.729450 0.500000 -0.097262
C23   C     C_1   0.823837 0.498493 0.515719 0.116297
C24   C     C_1   0.175829 0.498869 0.508811 0.101182
C25   C     C_R   0.956656 0.564370 0.582014 0.358630
C26   C     C_R   0.042850 0.429729 0.453783 0.340312
C27   C     C_R   0.044631 0.562346 0.585062 0.347424
C28   C     C_R   0.955190 0.426291 0.462720 0.358978
C29   C     C_R   0.912726 0.495784 0.522061 -0.250929
C30   C     C_R   0.086939 0.496796 0.516593 -0.242748
O9    O     O_3   0.448433 0.090838 0.279556 -0.584476
C31   C     C_3   0.370217 0.135598 0.292281 0.104782
H1    H     H_    0.382220 0.206080 0.315714 0.192643
H2    H     H_    0.328771 0.106456 0.367261 0.085966
C32   C     C_3   0.322743 0.133145 0.166916 -0.290760
H3    H     H_    0.358343 0.172597 0.096094 0.282129
H4    H     H_    0.318388 0.063953 0.132843 0.200848
C33   C     C_3   0.233749 0.170663 0.179556 -0.925345
H5    H     H_    0.196290 0.129707 0.246869 0.249268
H6    H     H_    0.201383 0.170113 0.086693 0.264844
H7    H     H_    0.236301 0.239913 0.213579 0.307439
O10   O     O_3   0.521016 0.904931 0.725019 -0.620614
C34   C     C_3   0.606461 0.910840 0.763767 0.153401
H8    H     H_    0.606812 0.925656 0.866099 0.204338
H9    H     H_    0.643429 0.964794 0.716193 0.128304
C35   C     C_3   0.650170 0.821649 0.743337 -0.333933
H10   H     H_    0.610719 0.767294 0.783661 0.292486
H11   H     H_    0.657336 0.810256 0.640656 0.198514
C36   C     C_3   0.737157 0.819036 0.805499 -0.845247
H12   H     H_    0.777978 0.872519 0.766209 0.238982
H13   H     H_    0.767363 0.753996 0.787676 0.302803
H14   H     H_    0.731322 0.827447 0.908963 0.292530
O11   O     O_3   0.505952 0.091733 0.727015 -0.589772
C37   C     C_3   0.427778 0.082912 0.791418 0.189295
H15   H     H_    0.437214 0.108138 0.888319 0.212905
H16   H     H_    0.408131 0.012327 0.802553 0.151365
C38   C     C_3   0.356770 0.136880 0.727237 -0.381497
H17   H     H_    0.377791 0.206551 0.712513 0.274928
H18   H     H_    0.341593 0.108181 0.633947 0.183298
C39   C     C_3   0.276115 0.136083 0.805476 -0.907094
H19   H     H_    0.255397 0.066892 0.825162 0.253066
H20   H     H_    0.225144 0.171128 0.752936 0.269303
H21   H     H_    0.286697 0.170775 0.895513 0.295695
O12   O     O_3   0.447052 0.906027 0.285175 -0.560268
C40   C     C_3   0.357989 0.898658 0.273042 0.152763
H22   H     H_    0.343751 0.891442 0.171100 0.193882
H23   H     H_    0.323596 0.958555 0.304650 0.091868
C41   C     C_3   0.323347 0.817226 0.344274 -0.354251
H24   H     H_    0.361982 0.757955 0.323249 0.285557
H25   H     H_    0.326152 0.829160 0.447279 0.200632
C42   C     C_3   0.231724 0.798301 0.308161 -0.890341
H26   H     H_    0.191335 0.856436 0.329180 0.250223
H27   H     H_    0.208234 0.740209 0.363127 0.280553
H28   H     H_    0.226964 0.782992 0.206232 0.281688
N3    N     N_R   0.364805 0.600049 0.914285 0.260642
O13   O     O_R   0.318803 0.642215 0.995255 -0.351854
O14   O     O_R   0.342285 0.599847 0.796430 -0.424842
N4    N     N_R   0.641825 0.402541 0.085244 0.264775
O15   O     O_R   0.691818 0.366889 0.003136 -0.304413
O16   O     O_R   0.661172 0.397899 0.204253 -0.375491
N5    N     N_R   0.517469 0.676745 0.077717 0.264612
O17   O     O_R   0.582383 0.724607 0.045125 -0.347939
O18   O     O_R   0.456513 0.712921 0.140554 -0.337995
N6    N     N_R   0.488556 0.325732 0.919909 0.255314
O19   O     O_R   0.417868 0.283075 0.934255 -0.413162
O20   O     O_R   0.550675 0.288544 0.860603 -0.309876
N7    N     N_R   0.654906 0.572318 0.911161 0.261400
O21   O     O_R   0.712811 0.595016 0.991793 -0.322090
O22   O     O_R   0.670793 0.578185 0.791260 -0.414155
N8    N     N_R   0.353691 0.427231 0.094132 0.244422
O23   O     O_R   0.280419 0.457135 0.058193 -0.406482
O24   O     O_R   0.357504 0.360896 0.173203 -0.409176
O25   O     O_3   0.088310 0.631301 0.640828 -0.631805
C43   C     C_3   0.120204 0.604000 0.759844 0.141224
H29   H     H_    0.175913 0.646355 0.780308 0.227142
H30   H     H_    0.143129 0.534063 0.761700 0.142380
C44   C     C_3   0.054335 0.617672 0.863496 -0.361700
H31   H     H_    0.025819 0.684690 0.853087 0.254993
H32   H     H_    0.003425 0.567326 0.854233 0.242646
C45   C     C_3   0.093843 0.609033 0.994481 -0.878237
H33   H     H_    0.126655 0.544405 0.005322 0.294682
H34   H     H_    0.043752 0.613245 0.067202 0.256941
H35   H     H_    0.139950 0.663461 0.009888 0.293044
O26   O     O_3   0.911090 0.359941 0.401685 -0.612074
C46   C     C_3   0.884856 0.294333 0.489851 0.132471
H36   H     H_    0.824978 0.265336 0.454029 0.189860
H37   H     H_    0.870390 0.321189 0.585006 0.130131
C47   C     C_3   0.950965 0.220491 0.500804 -0.341922
H38   H     H_    0.966452 0.195816 0.405315 0.241301
H39   H     H_    0.009554 0.247139 0.544130 0.241752
C48   C     C_3   0.918985 0.143322 0.581955 -0.957000
H40   H     H_    0.903625 0.166434 0.678217 0.277473
H41   H     H_    0.968717 0.091665 0.589379 0.264531
H42   H     H_    0.861740 0.113429 0.538893 0.273790
O27   O     O_3   0.914072 0.631053 0.643904 -0.608300
C49   C     C_3   0.886881 0.697026 0.556778 0.139380
H43   H     H_    0.817226 0.703563 0.566001 0.171308
H44   H     H_    0.900021 0.681854 0.455736 0.117484
C50   C     C_3   0.928448 0.785506 0.589376 -0.337090
H45   H     H_    0.917834 0.800112 0.690531 0.231959
H46   H     H_    0.997656 0.780911 0.573360 0.253406
C51   C     C_3   0.892776 0.861289 0.508984 -0.962106
H47   H     H_    0.903930 0.848713 0.407411 0.275361
H48   H     H_    0.924534 0.924325 0.534533 0.269538
H49   H     H_    0.823832 0.868411 0.525559 0.269944
O28   O     O_3   0.085597 0.364951 0.388293 -0.634806
C52   C     C_3   0.095425 0.391307 0.260512 0.144326
H50   H     H_    0.164180 0.392456 0.239802 0.203457
H51   H     H_    0.070568 0.458919 0.236842 0.122973
C53   C     C_3   0.052269 0.323402 0.175549 -0.334158
H52   H     H_    0.072892 0.255509 0.202969 0.228736
H53   H     H_    0.982755 0.327090 0.187954 0.272944
C54   C     C_3   0.072923 0.339851 0.036840 -0.917272
H54   H     H_    0.048386 0.405459 0.005650 0.272135
H55   H     H_    0.042572 0.287857 0.978829 0.265819
H56   H     H_    0.142257 0.337316 0.021416 0.299473

loop_
_geom_bond_atom_site_label_1
_geom_bond_atom_site_label_2
_geom_bond_distance
_ccdc_geom_bond_type
C37   H16   1.113428 S    
C34   H8    1.111283 S    
N5    O17   1.299909 A    
C4    C19   1.412497 S    
C17   C19   1.541710 S    
C24   C30   1.409856 S    
O28   C52   1.417537 S    
N3    O13   1.300179 A    
C50   C51   1.526236 S    
C49   H43   1.111730 S    
C54   H56   1.110781 S    
C51   H49   1.111371 S    
C45   H34   1.110313 S    
C54   H54   1.110014 S    
C48   H40   1.110904 S    
C32   H4    1.110203 S    
C40   H22   1.111030 S    
C31   H1    1.110297 S    
C8    O11   1.385300 S    
O5    C3    1.259383 A    
C11   C21   1.476272 S    
C16   C17   1.534441 S    
C12   C22   1.483791 S    
O1    C1    1.271368 A    
C9    C11   1.408814 A    
C14   C16   1.536270 S    
C26   C30   1.401759 A    
C46   H37   1.116807 S    
C6    C23   1.184001 T    
C52   C53   1.531008 S    
C48   H41   1.110361 S    
C37   C38   1.541236 S    
C43   H29   1.110354 S    
C35   H11   1.111262 S    
C7    C10   1.425233 A    
O26   C46   1.416238 S    
C36   H13   1.110252 S    
C8    C9    1.426111 A    
C38   H18   1.110645 S    
O7    Zn1   2.004929 S    
C14   C19   1.538757 S    
C15   N7    1.459574 S    
N7    O21   1.300358 A    
C3    C20   1.414050 S    
C47   H39   1.110693 S    
N6    O20   1.300268 A    
C7    O12   1.386211 S    
C33   H6    1.109585 S    
C13   C17   1.536082 S    
C27   C30   1.405369 A    
C36   H12   1.110673 S    
O3    Zn1   1.966968 S    
C47   C48   1.526087 S    
C39   H19   1.110810 S    
O3    C2    1.271460 A    
C35   C36   1.525483 S    
C37   H15   1.110238 S    
N5    O18   1.298790 A    
C25   C29   1.403028 A    
C53   C54   1.526125 S    
O2    C2    1.270999 A    
Zn2   N1    1.976605 S    
C39   H21   1.106900 S    
O2    Zn2   1.965735 S    
C45   H33   1.109721 S    
C54   H55   1.110366 S    
C31   H2    1.118162 S    
C32   C33   1.525671 S    
C40   H23   1.111009 S    
C15   C19   1.539842 S    
C33   H7    1.109525 S    
N8    O23   1.299681 A    
C13   C20   1.541789 S    
O12   C40   1.419498 S    
C39   H20   1.110486 S    
O8    Zn2   2.004931 S    
C44   C45   1.526976 S    
C41   H24   1.108942 S    
C48   H42   1.110953 S    
C51   H48   1.110585 S    
C50   H46   1.111373 S    
C35   H10   1.111930 S    
C7    C11   1.411268 A    
C13   N5    1.459063 S    
C15   C18   1.535667 S    
C38   C39   1.524683 S    
N8    O24   1.299499 A    
O9    C31   1.418544 S    
N4    O16   1.299881 A    
C42   H26   1.110924 S    
O6    C4    1.261949 A    
N6    O19   1.298064 A    
C14   N6    1.456086 S    
C33   H5    1.110841 S    
C26   O28   1.384038 S    
C21   N2    1.170028 T    
C17   N3    1.460210 S    
C9    O10   1.384413 S    
C41   H25   1.110682 S    
C28   C29   1.402319 A    
C42   H27   1.110837 S    
C10   C12   1.420522 A    
C16   C20   1.537967 S    
C34   H9    1.117847 S    
C53   H53   1.110028 S    
C46   C47   1.532485 S    
O1    Zn1   1.965738 S    
O27   C49   1.416927 S    
C49   C50   1.529468 S    
C5    C24   1.184757 T    
C10   O9    1.386454 S    
C47   H38   1.111697 S    
C41   C42   1.526312 S    
C40   C41   1.535651 S    
C27   O25   1.385336 S    
O10   C34   1.415456 S    
O6    Zn2   2.013480 S    
N7    O22   1.299679 A    
C8    C12   1.412627 A    
C14   C18   1.533042 S    
O4    C1    1.271863 A    
C32   H3    1.107710 S    
C49   H44   1.119159 S    
C52   H50   1.110864 S    
C31   C32   1.527000 S    
C51   H47   1.111297 S    
O25   C43   1.415884 S    
C22   N1    1.172977 T    
C44   H32   1.111130 S    
Zn1   N2    1.976605 S    
C25   C27   1.393125 A    
C44   H31   1.111715 S    
C16   N8    1.458690 S    
C36   H14   1.110869 S    
C26   C28   1.391811 A    
C52   H51   1.119018 S    
N4    O15   1.300188 A    
C28   O26   1.384979 S    
C43   H30   1.115803 S    
C18   C20   1.539779 S    
C13   C15   1.536912 S    
O4    Zn2   1.966971 S    
C38   H17   1.110908 S    
C23   C29   1.408993 S    
O7    C4    1.262433 A    
C1    C5    1.398562 S    
O8    C3    1.265887 A    
C2    C6    1.397249 S    
O5    Zn1   2.013481 S    
C42   H28   1.111035 S    
O11   C37   1.420451 S    
C34   C35   1.531424 S    
N3    O14   1.299649 A    
C53   H52   1.110420 S    
C18   N4    1.459103 S    
C46   H36   1.111075 S    
C45   H35   1.110599 S    
C50   H45   1.111637 S    
C25   O27   1.384507 S    
C43   C44   1.533501 S    
