data_mof_unit_34048.cif
_audit_creation_date              2012-12-11T13:59:55-0500
_audit_creation_method            fapswitch 2.2
_symmetry_space_group_name_H-M    P1
_symmetry_Int_Tables_number       1
_space_group_crystal_system       triclinic
_cell_length_a                    11.490107
_cell_length_b                    11.485402
_cell_length_c                    19.160352
_cell_angle_alpha                 90.089496
_cell_angle_beta                  89.841722
_cell_angle_gamma                 119.820781
_cell_volume                      2193.73516568

loop_
_atom_site_label
_atom_site_type_symbol
_atom_type_description
_atom_site_fract_x
_atom_site_fract_y
_atom_site_fract_z
_atom_type_partial_charge
C1    C     C_R   0.545555 0.477247 0.853615 0.554617
C2    C     C_R   0.480594 0.548515 0.353189 0.590036
C3    C     C_R   0.066792 0.518839 0.352988 0.593279
C4    C     C_R   0.451927 0.933213 0.352968 0.594089
C5    C     C_2   0.905551 0.430684 0.568434 -0.163186
C6    C     C_2   0.536492 0.509348 0.575438 -0.141748
C7    C     C_2   0.526615 0.095908 0.568361 -0.164864
C8    C     C_2   0.485997 0.009247 0.420201 -0.127227
C9    C     C_2   0.518883 0.519308 0.422613 -0.129429
C10   C     C_2   0.990881 0.476504 0.420254 -0.126365
C11   C     C_2   0.979034 0.368467 0.459422 0.218034
C12   C     C_R   0.522783 0.068366 0.853634 0.560932
C13   C     C_2   0.623484 0.618497 0.461580 0.218234
C14   C     C_2   0.390231 0.020477 0.460118 0.220987
C15   C     C_2   0.416471 0.077774 0.532650 0.170380
C16   C     C_2   0.644266 0.600539 0.536570 0.163134
C17   C     C_2   0.922399 0.337827 0.532246 0.159087
C18   C     C_2   0.996440 0.495478 0.922109 -0.105795
C19   C     C_2   0.504243 0.501067 0.922170 -0.105497
C20   C     C_2   0.498939 0.003393 0.922133 -0.106125
C21   C     C_2   0.495701 0.996667 0.077886 -0.105362
C22   C     C_2   0.501289 0.504406 0.077844 -0.105708
C23   C     C_R   0.931564 0.454378 0.853642 0.560753
C24   C     C_2   0.003466 0.499052 0.077919 -0.105527
C25   C     C_2   0.019435 0.601309 0.037179 -0.162544
C26   C     C_2   0.399075 0.418317 0.037252 -0.162911
C27   C     C_2   0.581540 0.979882 0.036950 -0.162688
C28   C     C_2   0.601170 0.019205 0.962724 -0.163941
C29   C     C_2   0.418656 0.398702 0.962975 -0.163509
C30   C     C_2   0.979989 0.581581 0.962991 -0.163657
C31   C     C_R   0.477313 0.545616 0.146388 0.547419
C32   C     C_R   0.068402 0.522839 0.146372 0.547738
C33   C     C_R   0.454459 0.931674 0.146375 0.547411
C34   C     C_R   0.552526 0.478403 0.646494 0.546913
C35   C     C_R   0.546363 0.129141 0.641735 0.535028
C36   C     C_R   0.871150 0.417287 0.641693 0.534200
Cr1   Cr    Cr6+3 0.464030 0.233680 0.750360 1.113863
Cr2   Cr    Cr6+3 0.766320 0.230350 0.750360 1.116352
Cr3   Cr    Cr6+3 0.769650 0.535970 0.750360 1.115156
Cr4   Cr    Cr6+3 0.233680 0.464030 0.249640 1.126080
Cr5   Cr    Cr6+3 0.230350 0.766320 0.249640 1.125848
Cr6   Cr    Cr6+3 0.535970 0.769650 0.249640 1.125741
H1    H     H_    0.949027 0.537459 0.437474 0.113185
H2    H     H_    0.702086 0.062645 0.941616 0.159199
H3    H     H_    0.361894 0.297698 0.942028 0.159376
H4    H     H_    0.935976 0.638802 0.942145 0.159114
H5    H     H_    0.956182 0.397660 0.057093 0.114019
H6    H     H_    0.602565 0.558297 0.056839 0.113992
H7    H     H_    0.441918 0.044514 0.057183 0.113956
H8    H     H_    0.397624 0.956264 0.943104 0.114749
H9    H     H_    0.557777 0.602436 0.943018 0.114757
H10   H     H_    0.044049 0.441475 0.942832 0.114637
H11   H     H_    0.093044 0.120885 0.426172 0.412599
H12   H     H_    0.456142 0.419538 0.443459 0.112379
H13   H     H_    0.879652 0.969208 0.422335 0.410724
H14   H     H_    0.029395 0.897837 0.428413 0.414710
H15   H     H_    0.262727 0.266939 0.528617 0.386960
H16   H     H_    0.994258 0.732886 0.527790 0.393189
H17   H     H_    0.730595 0.995256 0.528853 0.386341
H18   H     H_    0.588883 0.051710 0.436790 0.109856
H19   H     H_    0.601010 0.079334 0.544506 0.086862
H20   H     H_    0.437739 0.454159 0.553421 0.078154
H21   H     H_    0.924392 0.522613 0.545153 0.097283
H22   H     H_    0.063061 0.702314 0.058141 0.159307
H23   H     H_    0.298200 0.361147 0.058375 0.159518
H24   H     H_    0.638525 0.935599 0.057762 0.159178
O1    O     O_R   0.434100 0.092480 0.829780 -0.507853
O2    O     O_R   0.362730 0.477510 0.175360 -0.508379
O3    O     O_R   0.114780 0.637270 0.175360 -0.508642
O4    O     O_R   0.522490 0.885220 0.175360 -0.508331
O5    O     O_R   0.432250 0.092620 0.670380 -0.425994
O6    O     O_R   0.907380 0.339630 0.670380 -0.433172
O7    O     O_R   0.660370 0.567750 0.670380 -0.451902
O8    O     O_R   0.092620 0.432250 0.329620 -0.409758
O9    O     O_R   0.339630 0.907380 0.329620 -0.408896
O10   O     O_R   0.567750 0.660370 0.329620 -0.409446
O11   O     O_R   0.475790 0.362860 0.676880 -0.466982
O12   O     O_R   0.907520 0.341620 0.829780 -0.509451
O13   O     O_R   0.637140 0.112930 0.676880 -0.453757
O14   O     O_R   0.887070 0.524210 0.676880 -0.441931
O15   O     O_R   0.362860 0.475790 0.323120 -0.448569
O16   O     O_R   0.112930 0.637140 0.323120 -0.448316
O17   O     O_R   0.524210 0.887070 0.323120 -0.447529
O18   O     O_3   0.666667 0.333333 0.749450 -0.359896
O19   O     O_3   0.333333 0.666667 0.250550 -0.319873
O20   O     O_2   0.977634 0.203912 0.358051 -0.286495
O21   O     O_2   0.194883 0.363418 0.416511 -0.296913
O22   O     O_3   0.050717 0.144383 0.464438 -0.359291
O23   O     O_R   0.658380 0.565900 0.829780 -0.510693
O24   O     O_2   0.794958 0.766474 0.358728 -0.284112
O25   O     O_2   0.641548 0.839216 0.412495 -0.293789
O26   O     O_3   0.855865 0.906839 0.462087 -0.364726
O27   O     O_2   0.224941 0.019607 0.360318 -0.286473
O28   O     O_2   0.173051 0.802675 0.418564 -0.299897
O29   O     O_3   0.093391 0.943679 0.466638 -0.369982
O30   O     O_2   0.164728 0.967229 0.582147 -0.128307
O31   O     O_2   0.291218 0.175913 0.633972 -0.228939
O32   O     O_3   0.268333 0.193251 0.505218 -0.483852
O33   O     O_2   0.816181 0.851598 0.580860 -0.123947
O34   O     O_R   0.092480 0.434100 0.170220 -0.515871
O35   O     O_2   0.877221 0.708674 0.633703 -0.221122
O36   O     O_3   0.912421 0.722134 0.504802 -0.500019
O37   O     O_2   0.032935 0.195812 0.580666 -0.130100
O38   O     O_2   0.825581 0.116160 0.633932 -0.227086
O39   O     O_3   0.805953 0.072834 0.505269 -0.476130
O40   O     O_R   0.341620 0.907520 0.170220 -0.516466
O41   O     O_R   0.565900 0.658380 0.170220 -0.515444
O42   O     O_R   0.477510 0.362730 0.824640 -0.499314
O43   O     O_R   0.637270 0.114780 0.824640 -0.497842
O44   O     O_R   0.885220 0.522490 0.824640 -0.495879
S1    S     S_3+6 0.047989 0.267553 0.425753 0.083044
S2    S     S_3+6 0.731693 0.782313 0.424751 0.079334
S3    S     S_3+6 0.220447 0.949180 0.427744 0.079867
S4    S     S_3+6 0.283907 0.103080 0.568561 0.128966
S5    S     S_3+6 0.813103 0.721104 0.568891 0.122630
S6    S     S_3+6 0.897039 0.179989 0.567998 0.124249

loop_
_geom_bond_atom_site_label_1
_geom_bond_atom_site_label_2
_ccdc_geom_bond_type
Cr4   O19   S    
H14   O29   S    
C22   H6    S    
O39   S6    S    
O24   S2    D    
C4    C8    S    
C21   H7    S    
C18   H10   S    
H17   O39   S    
Cr3   O18   S    
C13   S2    S    
C34   O11   A    
O33   S5    D    
O32   S4    S    
O21   S1    D    
Cr2   O13   S    
H15   O32   S    
C5    C36   S    
Cr6   O4    S    
C5    H21   S    
C1    O42   A    
C3    O8    A    
C9    C13   D    
C7    H19   S    
C4    O9    A    
C20   H8    S    
O36   S5    S    
O38   S6    D    
O22   S1    S    
Cr3   O44   S    
C8    C14   D    
Cr1   O18   S    
H16   O36   S    
Cr6   O41   S    
C7    C15   D    
C21   C27   D    
C35   O5    A    
C26   H23   S    
O30   S4    D    
C7    C35   S    
C12   O43   A    
O28   S3    D    
C31   O2    A    
C12   O1    A    
Cr2   O6    S    
C1    C19   S    
C22   C31   S    
C33   O40   A    
C11   S1    S    
C18   C23   S    
C24   C25   D    
Cr1   O42   S    
C36   O14   A    
O26   S2    S    
Cr2   O12   S    
Cr1   O11   S    
C28   H2    S    
C32   O34   A    
C29   H3    S    
C25   H22   S    
O25   S2    D    
C24   C32   S    
H13   O26   S    
C19   H9    S    
Cr5   O9    S    
C12   C20   S    
C3    O16   A    
C15   S4    S    
Cr6   O19   S    
O27   S3    D    
Cr2   O43   S    
C33   O4    A    
C18   C30   D    
C5    C17   D    
Cr5   O19   S    
Cr1   O5    S    
Cr4   O2    S    
O35   S5    D    
Cr5   O40   S    
C19   C29   D    
C16   S5    S    
C2    O10   A    
Cr5   O3    S    
C25   C30   S    
C23   O44   A    
C11   C17   S    
C1    O23   A    
Cr2   O18   S    
C10   H1    S    
C24   H5    S    
C31   O41   A    
Cr4   O15   S    
C30   H4    S    
Cr6   O17   S    
Cr4   O34   S    
C32   O3    A    
C14   S3    S    
C20   C28   D    
Cr6   O10   S    
Cr3   O14   S    
C6    H20   S    
O37   S6    D    
C3    C10   S    
C8    H18   S    
C4    O17   A    
O29   S3    S    
Cr5   O16   S    
Cr1   O1    S    
C35   O13   A    
Cr4   O8    S    
O20   S1    D    
H11   O22   S    
Cr3   O7    S    
C23   O12   A    
C10   C11   D    
C34   O7    A    
C6    C16   D    
C6    C34   S    
C21   C33   S    
C26   C29   S    
C22   C26   D    
C13   C16   S    
C27   C28   S    
C27   H24   S    
C14   C15   S    
C2    O15   A    
C9    H12   S    
O31   S4    D    
C2    C9    S    
Cr3   O23   S    
C36   O6    A    
C17   S6    S    
