data_mof_unit_26798.cif
_audit_creation_date              2013-03-05T15:45:14-0500
_audit_creation_method            fapswitch 2.2
_symmetry_space_group_name_H-M    P1
_symmetry_Int_Tables_number       1
_space_group_crystal_system       triclinic
_cell_length_a                    17.102672
_cell_length_b                    7.075855
_cell_length_c                    16.75372
_cell_angle_alpha                 90.001141
_cell_angle_beta                  100.811841
_cell_angle_gamma                 89.998701
_cell_volume                      1991.47803425

loop_
_atom_site_label
_atom_site_type_symbol
_atom_site_description
_atom_site_fract_x
_atom_site_fract_y
_atom_site_fract_z
_atom_type_partial_charge
O1    O     O_R   0.579510 0.506290 0.439030 -0.546997
O2    O     O_R   0.420490 0.006290 0.560970 -0.547109
O3    O     O_R   0.412540 0.170090 0.405290 -0.531228
O4    O     O_R   0.587460 0.670090 0.594710 -0.531173
C1    C     C_R   0.386607 0.345858 0.380588 1.001827
C2    C     C_R   0.613401 0.845857 0.619406 1.001934
O5    O     O_R   0.578390 0.176230 0.429330 -0.578522
O6    O     O_R   0.421610 0.676230 0.570670 -0.578530
O7    O     O_R   0.587530 0.011250 0.585190 -0.600955
O8    O     O_R   0.412470 0.511250 0.414810 -0.601021
C3    C     C_R   0.604396 0.344596 0.413197 1.020752
C4    C     C_R   0.395608 0.844599 0.586807 1.020676
O9    O     O_3   0.502800 0.340940 0.551110 -0.219158
O10   O     O_3   0.497200 0.840940 0.448890 -0.219191
V1    V     V_3+5 0.499480 0.064020 0.490520 1.382472
V2    V     V_3+5 0.500520 0.564020 0.509480 1.382482
C5    C     C_R   0.164918 0.928209 0.859724 -0.129401
C6    C     C_R   0.835055 0.428222 0.140250 -0.129448
C7    C     C_R   0.333727 0.845752 0.639632 -0.259533
C8    C     C_R   0.666265 0.345748 0.360356 -0.259568
C9    C     C_R   0.235260 0.660445 0.695170 -0.177125
C10   C     C_R   0.764697 0.160436 0.304774 -0.177080
C11   C     C_R   0.285469 0.684239 0.639104 -0.073182
C12   C     C_R   0.714514 0.184238 0.360862 -0.073184
C13   C     C_R   0.325494 0.993975 0.694613 0.290078
C14   C     C_R   0.674508 0.494006 0.305399 0.290472
C15   C     C_R   0.271747 0.972804 0.749512 0.024760
C16   C     C_R   0.728214 0.472810 0.250457 0.024632
C17   C     C_R   0.228428 0.802249 0.751502 0.175391
C18   C     C_R   0.771516 0.302239 0.248443 0.175359
C19   C     C_R   0.176589 0.779154 0.807653 -0.197374
C20   C     C_R   0.823358 0.279152 0.192293 -0.197255
C21   C     C_R   0.206494 0.098274 0.854945 -0.069280
C22   C     C_R   0.793481 0.598283 0.145036 -0.069271
C23   C     C_R   0.258653 0.120498 0.801316 -0.097499
C24   C     C_R   0.741311 0.620501 0.198658 -0.097541
H1    H     H_    0.143144 0.649221 0.808373 0.126340
H2    H     H_    0.856795 0.149216 0.191563 0.126339
H3    H     H_    0.197370 0.218716 0.891694 0.192160
H4    H     H_    0.802617 0.718728 0.108299 0.192139
H5    H     H_    0.200925 0.531331 0.693691 0.129442
H6    H     H_    0.799035 0.031330 0.306247 0.129479
H7    H     H_    0.286878 0.574059 0.594738 0.183917
H8    H     H_    0.713144 0.074114 0.405256 0.184070
C25   C     C_3   0.751493 0.747738 0.836762 0.130069
C26   C     C_3   0.248508 0.247692 0.163239 0.130024
H9    H     H_    0.785962 0.614865 0.834114 0.127195
H10   H     H_    0.214033 0.114836 0.165897 0.127121
C27   C     C_3   0.675759 0.729702 0.766612 0.128029
C28   C     C_3   0.324247 0.229656 0.233388 0.128040
C29   C     C_3   0.835814 0.852313 0.737003 -0.628406
C30   C     C_3   0.164200 0.352383 0.262993 -0.628375
C31   C     C_3   0.760871 0.100759 0.799515 0.084820
C32   C     C_3   0.239162 0.600743 0.200458 0.084794
C33   C     C_3   0.808182 0.910555 0.817455 -0.273014
C34   C     C_3   0.191831 0.410556 0.182535 -0.272959
H11   H     H_    0.803484 0.204397 0.781489 0.121826
H12   H     H_    0.196562 0.704423 0.218481 0.121776
C35   C     C_3   0.682501 0.865227 0.693178 -0.438451
C36   C     C_3   0.317515 0.365227 0.306811 -0.438368
C37   C     C_3   0.763574 0.820479 0.665465 0.219483
C38   C     C_3   0.236439 0.320553 0.334530 0.219446
C39   C     C_3   0.692016 0.077603 0.723723 0.079343
C40   C     C_3   0.308023 0.577586 0.276247 0.079317
H13   H     H_    0.713388 0.156048 0.674187 0.124761
H14   H     H_    0.286659 0.656080 0.325777 0.124740
H15   H     H_    0.770509 0.923656 0.616946 0.089443
H16   H     H_    0.229515 0.423769 0.383039 0.089424
O11   O     O_R   0.087500 0.266000 0.085220 -0.603751
O12   O     O_R   0.912500 0.766000 0.914780 -0.603741
O13   O     O_R   0.921600 0.589950 0.070670 -0.612283
O14   O     O_R   0.078400 0.089950 0.929330 -0.612294
C41   C     C_R   0.895933 0.423102 0.087013 0.996508
C42   C     C_R   0.104057 0.923096 0.912978 0.996499
O15   O     O_R   0.087460 0.596020 0.094710 -0.571726
O16   O     O_R   0.912540 0.096020 0.905290 -0.571717
O17   O     O_R   0.079520 0.760970 0.939020 -0.565556
O18   O     O_R   0.920480 0.260970 0.060980 -0.565567
C43   C     C_R   0.117291 0.426989 0.115886 1.039109
C44   C     C_R   0.882716 0.926988 0.884107 1.039071
O19   O     O_3   0.997180 0.425140 0.948910 -0.282360
O20   O     O_3   0.002820 0.925140 0.051090 -0.282364
V3    V     V_3+5 0.000520 0.702080 0.009480 1.241558
V4    V     V_3+5 0.999480 0.202080 0.990520 1.241555
H17   H     H_    0.680157 0.585628 0.743624 0.164543
H18   H     H_    0.319847 0.085594 0.256387 0.164518
H19   H     H_    0.874030 0.724226 0.747499 0.230348
H20   H     H_    0.125977 0.224309 0.252509 0.230327
N1    N     N_R   0.765001 0.631520 0.629221 0.250431
O21   O     O_R   0.754933 0.614622 0.550608 -0.409149
O22   O     O_R   0.785324 0.483061 0.674104 -0.467604
N2    N     N_R   0.234997 0.131620 0.370791 0.250426
O23   O     O_R   0.245045 0.114774 0.449405 -0.409340
O24   O     O_R   0.214689 0.983132 0.325920 -0.467568
N3    N     N_R   0.735695 0.181673 0.871549 0.273537
O25   O     O_R   0.667823 0.140098 0.891394 -0.201043
O26   O     O_R   0.783049 0.297152 0.917793 -0.368180
N4    N     N_R   0.264335 0.681594 0.128413 0.273550
O27   O     O_R   0.332213 0.640026 0.108579 -0.201046
O28   O     O_R   0.216967 0.796995 0.082141 -0.368105
N5    N     N_R   0.617316 0.172985 0.731494 0.285822
O29   O     O_R   0.600843 0.333437 0.694978 -0.330937
O30   O     O_R   0.558847 0.081822 0.752740 -0.260766
N6    N     N_R   0.382735 0.672914 0.268471 0.285845
O31   O     O_R   0.399210 0.833397 0.304960 -0.330922
O32   O     O_R   0.441205 0.581719 0.247242 -0.260850
H21   H     H_    0.874662 0.965286 0.719482 0.174484
H22   H     H_    0.125361 0.465390 0.280505 0.174501
H23   H     H_    0.286407 0.257270 0.799526 0.181980
H24   H     H_    0.713554 0.757260 0.200448 0.182015
N7    N     N_R   0.371970 0.163273 0.696039 0.239124
O33   O     O_R   0.358931 0.277425 0.634245 -0.390452
O34   O     O_R   0.416230 0.220168 0.763539 -0.259161
N8    N     N_R   0.628220 0.663532 0.304189 0.239015
O35   O     O_R   0.641427 0.777283 0.366108 -0.390795
O36   O     O_R   0.583877 0.720878 0.236824 -0.259401
N9    N     N_R   0.734120 0.749531 0.919815 0.276807
O37   O     O_R   0.699736 0.603386 0.945379 -0.261809
O38   O     O_R   0.763626 0.877116 0.972846 -0.372567
N10   N     N_R   0.265878 0.249435 0.080184 0.276801
O39   O     O_R   0.300256 0.103266 0.054626 -0.261793
O40   O     O_R   0.236381 0.377016 0.027148 -0.372558
N11   N     N_R   0.597347 0.735980 0.791666 0.287669
O41   O     O_R   0.586705 0.812054 0.859492 -0.187934
O42   O     O_R   0.535786 0.661935 0.744669 -0.308293
N12   N     N_R   0.402656 0.235903 0.208326 0.287681
O43   O     O_R   0.413293 0.311935 0.140491 -0.187977
O44   O     O_R   0.464225 0.161924 0.255337 -0.308287

loop_
_geom_bond_atom_site_label_1
_geom_bond_atom_site_label_2
_geom_bond_distance
_ccdc_geom_bond_type
C39   H13   1.115490 S    
N5    O29   1.295370 A    
C33   C44   1.533419 S    
C31   N3    1.471250 S    
N3    O25   1.299740 A    
N7    O33   1.298992 A    
O1    C3    1.321570 A    
C39   N5    1.472074 S    
O2    C4    1.321581 A    
O16   V4    2.004121 S    
C2    O7    1.341201 A    
N6    O32   1.294710 A    
N8    O35   1.298875 A    
C13   N7    1.435378 S    
N11   O41   1.300659 A    
C14   C16   1.425006 A    
O5    C3    1.317308 A    
C21   H3    1.079701 S    
C34   C43   1.533463 S    
C32   C40   1.570054 S    
C22   H4    1.079669 S    
N9    O38   1.300321 A    
N11   O42   1.300759 A    
C15   C17   1.419761 A    
O17   V3    1.997766 S    
C27   N11   1.479119 S    
C11   H7    1.080537 S    
C36   C38   1.574766 S    
C25   H9    1.115005 S    
C8    C12   1.408687 A    
C37   N1    1.470551 S    
C42   O17   1.323338 A    
C38   N2    1.470552 S    
C41   O18   1.323344 A    
C28   N12   1.479117 S    
C20   H2    1.084014 S    
N1    O22   1.300660 A    
C22   C24   1.388735 A    
C23   H23   1.080816 S    
O5    V1    2.005453 S    
O6    V2    2.005412 S    
C5    C21   1.407651 A    
C29   H21   1.113464 S    
N6    O31   1.295363 A    
O19   V3    2.202541 S    
N10   O40   1.300314 A    
O13   V3    2.005359 S    
C31   C33   1.570075 S    
C26   H10   1.115010 S    
C3    C8    1.501615 S    
C35   C37   1.574768 S    
O12   C44   1.312615 A    
C27   H17   1.097319 S    
C30   H20   1.111935 S    
O14   C42   1.306357 A    
C29   H19   1.111935 S    
O13   C41   1.306363 A    
C31   H11   1.114773 S    
C15   C23   1.403016 A    
C9    C17   1.397296 A    
C19   H1    1.084070 S    
C40   H14   1.115489 S    
O4    V2    2.004147 S    
C7    C11   1.408778 A    
C14   N8    1.435254 S    
O12   V3    2.022843 S    
C37   H15   1.115356 S    
C25   C27   1.582449 S    
O6    C4    1.317288 A    
N2    O24   1.300662 A    
C26   N10   1.476371 S    
N7    O34   1.301076 A    
O1    V2    1.995791 S    
O2    V1    1.995811 S    
C6    C22   1.407604 A    
C16   C24   1.402985 A    
O14   V4    2.005320 S    
C9    H5    1.083819 S    
O4    C2    1.358659 A    
N4    O27   1.299731 A    
C6    C41   1.493078 S    
O20   V4    2.202575 S    
C9    C11   1.396669 A    
C24   H24   1.080739 S    
C5    C42   1.493043 S    
C12   H8    1.080493 S    
C10   C12   1.396628 A    
O11   C43   1.312626 A    
C6    C20   1.406542 A    
O19   V4    1.722915 S    
O3    V1    2.004143 S    
N10   O39   1.301210 A    
C32   H12   1.114773 S    
C25   N9    1.476372 S    
C40   N6    1.472132 S    
N12   O44   1.300758 A    
C10   C18   1.397280 A    
C1    C36   1.547556 S    
C35   C39   1.585982 S    
C2    C35   1.547584 S    
O16   C44   1.322395 A    
O3    C1    1.358647 A    
N8    O36   1.300944 A    
N3    O26   1.299394 A    
C32   C34   1.570115 S    
C13   C15   1.424977 A    
C26   C28   1.582477 S    
N4    O28   1.299388 A    
C27   C35   1.581070 S    
C38   H16   1.115352 S    
C36   C40   1.585958 S    
C28   C36   1.581060 S    
C16   C18   1.419732 A    
O7    V1    2.006661 S    
C1    O8    1.341198 A    
C17   C19   1.417982 A    
O11   V4    2.022846 S    
O8    V2    2.006662 S    
N9    O37   1.301214 A    
C18   C20   1.417967 A    
C29   C37   1.567838 S    
C31   C39   1.570013 S    
O15   V3    2.004115 S    
C10   H6    1.083785 S    
C8    C14   1.420160 A    
N12   O43   1.300663 A    
C5    C19   1.406611 A    
C4    C7    1.501591 S    
N2    O23   1.301353 A    
C21   C23   1.388685 A    
C29   C33   1.564891 S    
C7    C13   1.420190 A    
C28   H18   1.097330 S    
O18   V4    1.997741 S    
C25   C33   1.577846 S    
N5    O30   1.294728 A    
O20   V3    1.722892 S    
O9    V2    1.723198 S    
C26   C34   1.577860 S    
O10   V1    1.723174 S    
C32   N4    1.471240 S    
C30   H22   1.113461 S    
C30   C38   1.567808 S    
N1    O21   1.301355 A    
O15   C43   1.322401 A    
C30   C34   1.564868 S    
