data_mof_unit_47330.cif
_audit_creation_date              2012-12-10T19:29:27-0500
_audit_creation_method            fapswitch 2.2
_symmetry_space_group_name_H-M    P1
_symmetry_Int_Tables_number       1
_space_group_crystal_system       triclinic
_cell_length_a                    22.281537
_cell_length_b                    22.277552
_cell_length_c                    14.946775
_cell_angle_alpha                 89.786416
_cell_angle_beta                  90.244705
_cell_angle_gamma                 89.970013
_cell_volume                      7419.13146951

loop_
_atom_site_label
_atom_site_type_symbol
_atom_type_description
_atom_site_fract_x
_atom_site_fract_y
_atom_site_fract_z
_atom_type_partial_charge
C1    C     C_R   0.418795 0.918787 0.499970 0.893573
C2    C     C_R   0.581205 0.081213 0.500030 0.893573
C3    C     C_R   0.581203 0.918790 0.500258 0.893691
C4    C     C_R   0.418797 0.081210 0.499742 0.893691
C5    C     C_R   0.918795 0.418787 0.499970 0.893573
C6    C     C_R   0.081205 0.581213 0.500030 0.893573
C7    C     C_R   0.081203 0.418790 0.500258 0.893691
C8    C     C_R   0.918797 0.581210 0.499742 0.893691
C9    C     C_1   0.336922 0.163099 0.498874 0.171023
C10   C     C_1   0.663078 0.836901 0.501126 0.171023
C11   C     C_1   0.663075 0.163094 0.500099 0.169091
C12   C     C_1   0.336925 0.836906 0.499902 0.169091
C13   C     C_1   0.836913 0.663090 0.498874 0.171022
C14   C     C_1   0.163087 0.336910 0.501126 0.171022
C15   C     C_1   0.163076 0.663093 0.500098 0.169092
C16   C     C_1   0.836924 0.336907 0.499902 0.169092
C17   C     C_1   0.500105 0.999917 0.189782 0.139972
C18   C     C_1   0.499893 0.000085 0.810217 0.139974
C19   C     C_1   0.000105 0.499915 0.189783 0.139968
C20   C     C_1   0.999895 0.500085 0.810217 0.139969
C21   C     C_3   0.444910 0.983901 0.969660 -0.309310
C22   C     C_3   0.555086 0.016102 0.030338 -0.309290
C23   C     C_3   0.486110 0.944310 0.030316 -0.310210
C24   C     C_3   0.513886 0.055693 0.969683 -0.310187
C25   C     C_3   0.944987 0.483652 0.969661 -0.309174
C26   C     C_3   0.055013 0.516348 0.030339 -0.309173
C27   C     C_3   0.986363 0.444245 0.030316 -0.310326
C28   C     C_3   0.013637 0.555755 0.969684 -0.310325
C29   C     C_3   0.702089 0.728819 0.544710 0.334008
C30   C     C_3   0.297912 0.271182 0.455296 0.334007
C31   C     C_3   0.298097 0.729209 0.455566 0.333413
C32   C     C_3   0.701912 0.270783 0.544462 0.333411
C33   C     C_3   0.202100 0.228829 0.544704 0.334008
C34   C     C_3   0.797898 0.771169 0.455291 0.334008
C35   C     C_3   0.798087 0.229218 0.455540 0.333413
C36   C     C_3   0.201905 0.770789 0.544433 0.333414
C37   C     C_3   0.227892 0.201068 0.458880 0.317970
C38   C     C_3   0.772109 0.798933 0.541115 0.317969
C39   C     C_3   0.771956 0.200684 0.540864 0.316653
C40   C     C_3   0.228052 0.799308 0.459108 0.316655
C41   C     C_3   0.727878 0.701055 0.458886 0.317969
C42   C     C_3   0.272120 0.298943 0.541120 0.317970
C43   C     C_3   0.271950 0.700690 0.540891 0.316652
C44   C     C_3   0.728043 0.299317 0.459138 0.316651
C45   C     C_1   0.374465 0.125550 0.499151 -0.158764
C46   C     C_1   0.625535 0.874450 0.500849 -0.158763
C47   C     C_1   0.625537 0.125551 0.500077 -0.161444
C48   C     C_1   0.374463 0.874448 0.499923 -0.161445
C49   C     C_1   0.874460 0.625545 0.499151 -0.158764
C50   C     C_1   0.125540 0.374455 0.500849 -0.158765
C51   C     C_1   0.125538 0.625551 0.500077 -0.161444
C52   C     C_1   0.874462 0.374449 0.499923 -0.161443
C53   C     C_3   0.265285 0.236699 0.585042 0.259452
C54   C     C_3   0.734712 0.763298 0.414958 0.259452
C55   C     C_3   0.735055 0.237467 0.414712 0.263468
C56   C     C_3   0.264930 0.762548 0.585290 0.263466
C57   C     C_3   0.765275 0.736690 0.585042 0.259450
C58   C     C_3   0.234727 0.263313 0.414958 0.259451
C59   C     C_3   0.235072 0.737450 0.414710 0.263466
C60   C     C_3   0.764944 0.262535 0.585290 0.263467
C61   C     C_3   0.291616 0.208410 0.499171 -0.199928
C62   C     C_3   0.708384 0.791590 0.500828 -0.199929
C63   C     C_3   0.708384 0.208404 0.500061 -0.200647
C64   C     C_3   0.291616 0.791596 0.499940 -0.200648
C65   C     C_3   0.791604 0.708398 0.499172 -0.199929
C66   C     C_3   0.208396 0.291602 0.500828 -0.199928
C67   C     C_3   0.208386 0.708402 0.500059 -0.200647
C68   C     C_3   0.791614 0.291597 0.499941 -0.200646
C69   C     C_3   0.459890 0.038555 0.029148 0.656364
C70   C     C_3   0.540107 0.961449 0.970850 0.656358
C71   C     C_3   0.959717 0.538372 0.029150 0.656360
C72   C     C_3   0.040282 0.461629 0.970850 0.656360
C73   C     C_3   0.500317 0.999706 0.089524 -0.030281
C74   C     C_3   0.499679 0.000297 0.910475 -0.030290
C75   C     C_3   0.000318 0.499703 0.089524 -0.030290
C76   C     C_3   0.999682 0.500297 0.910475 -0.030290
H1    H     H_    0.475313 0.898529 0.054965 0.159740
H2    H     H_    0.524685 0.101475 0.945035 0.159748
H3    H     H_    0.399604 0.971271 0.944992 0.160408
H4    H     H_    0.600392 0.028730 0.055007 0.160415
H5    H     H_    0.975762 0.398418 0.054968 0.159706
H6    H     H_    0.024237 0.601583 0.945032 0.159705
H7    H     H_    0.899736 0.470827 0.944994 0.160458
H8    H     H_    0.100264 0.529173 0.055006 0.160460
N1    N     N_1   0.500020 0.000000 0.268010 -0.089570
N2    N     N_1   0.499980 0.000000 0.731990 -0.089569
N3    N     N_1   0.000020 0.500000 0.268010 -0.089568
N4    N     N_1   0.999980 0.500000 0.731990 -0.089569
O1    O     O_R   0.438390 0.938390 0.574460 -0.606410
O2    O     O_R   0.561610 0.061610 0.425540 -0.606410
O3    O     O_R   0.561610 0.938390 0.425540 -0.612710
O4    O     O_R   0.438390 0.061610 0.574460 -0.612709
O5    O     O_R   0.938390 0.438390 0.574460 -0.606451
O6    O     O_R   0.061610 0.561610 0.425540 -0.606450
O7    O     O_R   0.061610 0.438390 0.425540 -0.612709
O8    O     O_R   0.938390 0.561610 0.574460 -0.612709
O9    O     O_R   0.438400 0.938390 0.425520 -0.607582
O10   O     O_R   0.561600 0.061610 0.574480 -0.607581
O11   O     O_R   0.561600 0.938390 0.574480 -0.597987
O12   O     O_R   0.438400 0.061610 0.425520 -0.597986
O13   O     O_R   0.938400 0.438390 0.425520 -0.607540
O14   O     O_R   0.061600 0.561610 0.574480 -0.607540
O15   O     O_R   0.061600 0.438390 0.574480 -0.597988
O16   O     O_R   0.938400 0.561610 0.425520 -0.597989
Zn1   Zn    Zn3+2 0.500000 0.000000 0.599450 1.007847
Zn2   Zn    Zn3+2 0.500000 0.000000 0.400550 1.007847
Zn3   Zn    Zn3+2 1.000000 0.500000 0.599450 1.007847
Zn4   Zn    Zn3+2 1.000000 0.500000 0.400550 1.007847
O17   O     O_3   0.582186 0.920992 0.934633 -0.600776
C77   C     C_3   0.612922 0.891463 0.004635 -0.309771
H9    H     H_    0.581740 0.864597 0.046638 0.159091
H10   H     H_    0.638578 0.923701 0.046583 0.160230
H11   H     H_    0.645739 0.859865 0.975016 0.195632
O18   O     O_3   0.417816 0.079015 0.065368 -0.600776
C78   C     C_3   0.387057 0.108522 0.995367 -0.309796
H12   H     H_    0.361361 0.076270 0.953496 0.160257
H13   H     H_    0.418228 0.135348 0.953289 0.159077
H14   H     H_    0.354274 0.140152 0.024990 0.195641
O19   O     O_3   0.082564 0.421384 0.934634 -0.600783
C79   C     C_3   0.113304 0.391860 0.004638 -0.309752
H15   H     H_    0.082174 0.364676 0.046270 0.159170
H16   H     H_    0.138638 0.424137 0.046953 0.160139
H17   H     H_    0.146404 0.360559 0.975021 0.195641
O20   O     O_3   0.917436 0.578617 0.065366 -0.600784
C80   C     C_3   0.886695 0.608139 0.995362 -0.309755
H18   H     H_    0.861359 0.575861 0.953051 0.160138
H19   H     H_    0.917823 0.635321 0.953726 0.159170
H20   H     H_    0.853595 0.639441 0.024980 0.195641
O21   O     O_3   0.210004 0.147478 0.416282 -0.606652
C81   C     C_3   0.148473 0.150490 0.393905 -0.270692
H21   H     H_    0.134963 0.194663 0.365194 0.184374
H22   H     H_    0.120336 0.140008 0.452890 0.195826
H23   H     H_    0.138888 0.115949 0.342551 0.172551
O22   O     O_3   0.789999 0.852525 0.583707 -0.606653
C82   C     C_3   0.851530 0.849514 0.606079 -0.270681
H24   H     H_    0.879665 0.859997 0.547091 0.195825
H25   H     H_    0.865043 0.805341 0.634788 0.184372
H26   H     H_    0.861117 0.884054 0.657432 0.172548
O23   O     O_3   0.789738 0.146695 0.583090 -0.608468
C83   C     C_3   0.851173 0.149496 0.606060 -0.269014
H27   H     H_    0.864519 0.193400 0.635312 0.186260
H28   H     H_    0.879566 0.139557 0.547241 0.196037
H29   H     H_    0.860582 0.114481 0.657171 0.172333
O24   O     O_3   0.210278 0.853290 0.416852 -0.608469
C84   C     C_3   0.148846 0.850485 0.393858 -0.269007
H30   H     H_    0.120443 0.860437 0.452661 0.196035
H31   H     H_    0.135505 0.806575 0.364622 0.186259
H32   H     H_    0.139448 0.885489 0.342728 0.172333
O25   O     O_3   0.709989 0.647463 0.416294 -0.606642
C85   C     C_3   0.648458 0.650474 0.393922 -0.270672
H33   H     H_    0.634946 0.694647 0.365211 0.184368
H34   H     H_    0.620323 0.639992 0.452910 0.195823
H35   H     H_    0.638871 0.615932 0.342570 0.172554
O26   O     O_3   0.290007 0.352534 0.583717 -0.606641
C86   C     C_3   0.351538 0.349522 0.606094 -0.270677
H36   H     H_    0.379676 0.360004 0.547109 0.195823
H37   H     H_    0.365049 0.305349 0.634805 0.184370
H38   H     H_    0.361123 0.384063 0.657448 0.172557
O27   O     O_3   0.289724 0.646708 0.583147 -0.608460
C87   C     C_3   0.351155 0.649513 0.606140 -0.268970
H39   H     H_    0.364497 0.693423 0.635377 0.186263
H40   H     H_    0.379559 0.639561 0.547338 0.196030
H41   H     H_    0.360553 0.614508 0.657272 0.172342
O28   O     O_3   0.710261 0.353307 0.416911 -0.608460
C88   C     C_3   0.648825 0.350505 0.393941 -0.268978
H42   H     H_    0.620432 0.360442 0.452761 0.196032
H43   H     H_    0.635480 0.306601 0.364687 0.186264
H44   H     H_    0.639417 0.385521 0.342832 0.172343
O29   O     O_3   0.649017 0.711336 0.588983 -0.602525
C89   C     C_3   0.657229 0.654644 0.629686 -0.270125
H45   H     H_    0.681322 0.659096 0.694283 0.190501
H46   H     H_    0.681295 0.622127 0.586337 0.189161
H47   H     H_    0.612447 0.635323 0.644267 0.169437
O30   O     O_3   0.350986 0.288667 0.411028 -0.602526
C90   C     C_3   0.342774 0.345361 0.370330 -0.270131
H48   H     H_    0.318709 0.377876 0.413681 0.189162
H49   H     H_    0.318683 0.340912 0.305731 0.190503
H50   H     H_    0.387557 0.364683 0.355752 0.169437
O31   O     O_3   0.351368 0.712050 0.411680 -0.604920
C91   C     C_3   0.343335 0.655734 0.370404 -0.273592
H51   H     H_    0.319550 0.660799 0.305602 0.190969
H52   H     H_    0.319059 0.622863 0.413213 0.190666
H53   H     H_    0.388183 0.636485 0.356124 0.168777
O32   O     O_3   0.648648 0.287933 0.588376 -0.604921
C92   C     C_3   0.656689 0.344242 0.629672 -0.273593
H54   H     H_    0.680957 0.377120 0.586865 0.190666
H55   H     H_    0.680487 0.339166 0.694462 0.190971
H56   H     H_    0.611844 0.363489 0.643978 0.168778
O33   O     O_3   0.149026 0.211344 0.588973 -0.602537
C93   C     C_3   0.157238 0.154650 0.629670 -0.270151
H57   H     H_    0.181331 0.159099 0.694267 0.190506
H58   H     H_    0.181302 0.122135 0.586318 0.189167
H59   H     H_    0.112455 0.135329 0.644249 0.169432
O34   O     O_3   0.850971 0.788652 0.411017 -0.602536
C94   C     C_3   0.842757 0.845344 0.370314 -0.270143
H60   H     H_    0.818693 0.877861 0.413664 0.189166
H61   H     H_    0.818664 0.840892 0.305718 0.190505
H62   H     H_    0.887540 0.864666 0.355733 0.169433
O35   O     O_3   0.851350 0.212068 0.411625 -0.604919
C95   C     C_3   0.843310 0.155759 0.370330 -0.273593
H63   H     H_    0.819512 0.160836 0.305539 0.190970
H64   H     H_    0.819040 0.122881 0.413136 0.190666
H65   H     H_    0.888154 0.136512 0.356025 0.168776
O36   O     O_3   0.148633 0.787948 0.588318 -0.604918
C96   C     C_3   0.156666 0.844264 0.629595 -0.273593
H66   H     H_    0.180942 0.877135 0.586785 0.190666
H67   H     H_    0.180453 0.839199 0.694397 0.190969
H68   H     H_    0.111819 0.863513 0.643875 0.168775
O37   O     O_3   0.715207 0.781840 0.329152 -0.604497
C97   C     C_3   0.741357 0.745235 0.262904 0.149562
H69   H     H_    0.719880 0.700342 0.262059 0.181331
H70   H     H_    0.790525 0.739348 0.273194 0.175770
C98   C     C_3   0.731364 0.774065 0.171606 -0.884169
H71   H     H_    0.752749 0.819053 0.169352 0.253251
H72   H     H_    0.751398 0.745510 0.118791 0.214156
H73   H     H_    0.682533 0.778992 0.158166 0.259679
O38   O     O_3   0.284787 0.218154 0.670848 -0.604498
C99   C     C_3   0.258635 0.254755 0.737097 0.149559
H74   H     H_    0.209467 0.260643 0.726804 0.175772
H75   H     H_    0.280111 0.299650 0.737947 0.181332
C100  C     C_3   0.268625 0.225923 0.828393 -0.884167
H76   H     H_    0.317455 0.220997 0.841835 0.259681
H77   H     H_    0.248588 0.254474 0.881208 0.214157
H78   H     H_    0.247242 0.180934 0.830641 0.253251
O39   O     O_3   0.283931 0.780172 0.671546 -0.600613
C101  C     C_3   0.257367 0.742874 0.736943 0.137392
H79   H     H_    0.278964 0.698011 0.737672 0.181156
H80   H     H_    0.208290 0.737008 0.725785 0.171614
C102  C     C_3   0.266570 0.770796 0.828690 -0.863557
H81   H     H_    0.245065 0.815735 0.831056 0.253013
H82   H     H_    0.246186 0.741695 0.880826 0.212761
H83   H     H_    0.315285 0.775613 0.843002 0.265997
O40   O     O_3   0.716037 0.219858 0.328457 -0.600612
C103  C     C_3   0.742591 0.257168 0.263064 0.137382
H84   H     H_    0.791670 0.263033 0.274205 0.171617
H85   H     H_    0.720993 0.302031 0.262361 0.181158
C104  C     C_3   0.733371 0.229262 0.171310 -0.863549
H86   H     H_    0.684654 0.224448 0.157016 0.266002
H87   H     H_    0.753746 0.258372 0.119177 0.212763
H88   H     H_    0.754876 0.184324 0.168919 0.253014
O41   O     O_3   0.215225 0.281857 0.329152 -0.604498
C105  C     C_3   0.241378 0.245257 0.262903 0.149569
H89   H     H_    0.219901 0.200363 0.262050 0.181328
H90   H     H_    0.290546 0.239367 0.273199 0.175775
C106  C     C_3   0.231392 0.274092 0.171607 -0.884182
H91   H     H_    0.252777 0.319080 0.169363 0.253232
H92   H     H_    0.251430 0.245541 0.118792 0.214159
H93   H     H_    0.182562 0.279020 0.158161 0.259702
O42   O     O_3   0.784780 0.718148 0.670848 -0.604498
C107  C     C_3   0.758630 0.754752 0.737097 0.149576
H94   H     H_    0.709462 0.760643 0.726803 0.175773
H95   H     H_    0.780109 0.799645 0.737945 0.181327
C108  C     C_3   0.768618 0.725920 0.828394 -0.884186
H96   H     H_    0.817448 0.720991 0.841837 0.259703
H97   H     H_    0.748583 0.754474 0.881208 0.214160
H98   H     H_    0.747232 0.680932 0.830644 0.253230
O43   O     O_3   0.783961 0.280143 0.671545 -0.600622
C109  C     C_3   0.757408 0.242833 0.736938 0.137371
H99   H     H_    0.779007 0.197970 0.737641 0.181149
H100  H     H_    0.708329 0.236968 0.725797 0.171613
C110  C     C_3   0.766628 0.270740 0.828691 -0.863593
H101  H     H_    0.745123 0.315678 0.831082 0.253021
H102  H     H_    0.746253 0.241629 0.880824 0.212765
H103  H     H_    0.815345 0.275555 0.842985 0.265981
O44   O     O_3   0.216070 0.719825 0.328453 -0.600621
C111  C     C_3   0.242635 0.757124 0.263055 0.137379
H104  H     H_    0.291712 0.762990 0.274213 0.171609
H105  H     H_    0.221037 0.801987 0.262326 0.181146
C112  C     C_3   0.233432 0.729201 0.171309 -0.863599
H106  H     H_    0.184717 0.724385 0.156997 0.265977
H107  H     H_    0.253816 0.758302 0.119173 0.212761
H108  H     H_    0.254937 0.684263 0.168943 0.253021

loop_
_geom_bond_atom_site_label_1
_geom_bond_atom_site_label_2
_ccdc_geom_bond_type
C82   H26   S    
C71   C75   S    
C9    C45   T    
C88   H42   S    
C86   H37   S    
C26   C72   S    
O29   C89   S    
C11   C47   T    
C8    O8    A    
C83   H29   S    
C72   C76   S    
C84   H30   S    
C99   H74   S    
C36   C67   S    
C35   O35   S    
C82   H24   S    
C90   H49   S    
C13   C65   S    
C96   H66   S    
C79   H15   S    
O6    Zn4   S    
O42   C107  S    
C18   N2    T    
O10   Zn1   S    
C31   C43   S    
C56   O39   S    
C9    C61   S    
C96   H68   S    
C33   O33   S    
O28   C88   S    
C42   O26   S    
C83   H28   S    
O41   C105  S    
C100  H78   S    
C11   C63   S    
C42   C53   S    
C21   C69   S    
C108  H96   S    
C12   C64   S    
C92   H55   S    
C41   O25   S    
C89   H45   S    
C39   C60   S    
C107  H95   S    
C78   H12   S    
C30   C58   S    
C104  H86   S    
O32   C92   S    
C20   C76   S    
C3    O3    A    
O43   C109  S    
N4    Zn3   S    
C31   C59   S    
C2    O2    A    
C100  H76   S    
C77   H9    S    
C93   H59   S    
C59   C67   S    
O30   C90   S    
C53   C61   S    
C58   C66   S    
C54   O37   S    
C93   H58   S    
N3    Zn4   S    
O27   C87   S    
C79   H16   S    
C95   H63   S    
C78   H13   S    
C85   H35   S    
C55   C63   S    
C70   C74   S    
C80   H20   S    
C1    O1    A    
C56   C64   S    
C5    C52   S    
C69   C73   S    
C81   H22   S    
C16   C68   S    
C15   C51   T    
C6    C51   S    
C81   H23   S    
O44   C111  S    
O17   C77   S    
C37   C58   S    
C79   H17   S    
C12   C48   T    
C94   H62   S    
C29   C41   S    
C5    O5    A    
C34   O34   S    
O13   Zn4   S    
C38   O22   S    
O34   C94   S    
O35   C95   S    
C18   C74   S    
C40   C59   S    
C7    O15   A    
C112  H106  S    
C86   H38   S    
C17   C73   S    
C7    C50   S    
C23   C70   S    
C10   C62   S    
C103  H85   S    
C23   C73   S    
C14   C50   T    
C27   C75   S    
C17   N1    T    
C34   C65   S    
C26   C28   S    
C84   H31   S    
C91   H52   S    
C24   C69   S    
O39   C101  S    
C90   H50   S    
C5    O13   A    
C4    C45   S    
C98   H72   S    
C21   C23   S    
C33   C53   S    
O11   Zn1   S    
C39   O23   S    
C69   O18   S    
C105  C106  S    
C101  H79   S    
C59   O44   S    
C28   H6    S    
C87   H41   S    
C71   O20   S    
C36   C40   S    
C102  H83   S    
C83   H27   S    
O2    Zn2   S    
O37   C97   S    
C104  H88   S    
C40   O24   S    
C1    O9    A    
C111  H104  S    
C110  H102  S    
C112  H107  S    
C92   H56   S    
C41   C65   S    
C54   C62   S    
C6    O6    A    
O38   C99   S    
C53   O38   S    
C38   C62   S    
C35   C55   S    
C21   C74   S    
C33   C37   S    
C94   H60   S    
C31   O31   S    
C103  C104  S    
C87   H40   S    
C60   O43   S    
C58   O41   S    
C109  H100  S    
C94   H61   S    
C93   H57   S    
C10   C46   T    
C102  H81   S    
C36   C56   S    
C70   O17   S    
C36   O36   S    
C80   H19   S    
C108  H98   S    
C38   C57   S    
C43   C56   S    
C105  H90   S    
C90   H48   S    
C27   H5    S    
O23   C83   S    
C78   H14   S    
C15   C67   S    
C33   C66   S    
C21   H3    S    
C26   C75   S    
C14   C66   S    
O14   Zn3   S    
C43   C67   S    
C23   H1    S    
C13   C49   T    
C8    O16   A    
C77   H11   S    
C60   C68   S    
O26   C86   S    
C55   O40   S    
C111  H105  S    
C32   C44   S    
O3    Zn2   S    
C25   C71   S    
O9    Zn2   S    
C95   H64   S    
O8    Zn3   S    
C29   C57   S    
C34   C54   S    
C88   H44   S    
C97   H70   S    
C104  H87   S    
C80   H18   S    
C102  H82   S    
C22   C24   S    
C30   C61   S    
C28   C71   S    
C103  H84   S    
C32   C60   S    
C57   O42   S    
N1    Zn2   S    
C28   C76   S    
O16   Zn4   S    
C84   H32   S    
C7    O7    A    
C91   H51   S    
C99   C100  S    
C108  H97   S    
O21   C81   S    
O40   C103  S    
C98   H73   S    
C24   H2    S    
C82   H25   S    
C29   C62   S    
C26   H8    S    
C105  H89   S    
C34   C38   S    
O12   Zn2   S    
C31   C64   S    
C32   O32   S    
C16   C52   T    
C32   C63   S    
C57   C65   S    
O24   C84   S    
C111  C112  S    
C97   C98   S    
C110  H103  S    
C37   C61   S    
O19   C79   S    
C91   H53   S    
C1    C48   S    
O18   C78   S    
O22   C82   S    
C2    C47   S    
C25   C27   S    
C101  C102  S    
C39   C63   S    
C3    C46   S    
C43   O27   S    
C40   C64   S    
C4    O12   A    
C99   H75   S    
C25   C76   S    
C87   H39   S    
C106  H92   S    
C109  H99   S    
C107  H94   S    
C19   N3    T    
C22   H4    S    
N2    Zn1   S    
C100  H77   S    
O25   C85   S    
O5    Zn3   S    
C25   H7    S    
C44   C55   S    
C24   C74   S    
C92   H54   S    
C110  H101  S    
C89   H46   S    
C35   C68   S    
C107  C108  S    
C95   H65   S    
C98   H71   S    
C35   C39   S    
C20   N4    T    
C72   O19   S    
C19   C75   S    
C37   O21   S    
C81   H21   S    
C85   H34   S    
C6    O14   A    
O33   C93   S    
C77   H10   S    
C41   C54   S    
C112  H108  S    
C44   C68   S    
O7    Zn4   S    
C27   C72   S    
O31   C91   S    
C109  C110  S    
C3    O11   A    
O4    Zn1   S    
O36   C96   S    
C2    O10   A    
C88   H43   S    
C97   H69   S    
C106  H93   S    
O1    Zn1   S    
C86   H36   S    
C42   C66   S    
C85   H33   S    
C30   C42   S    
C30   O30   S    
O15   Zn3   S    
C44   O28   S    
C22   C73   S    
C29   O29   S    
C106  H91   S    
C96   H67   S    
C8    C49   S    
C22   C70   S    
C101  H80   S    
O20   C80   S    
C4    O4    A    
C89   H47   S    
