data_mof_unit_15610.cif
_audit_creation_date              2012-12-10T17:41:02-0500
_audit_creation_method            fapswitch 2.2
_symmetry_space_group_name_H-M    P1
_symmetry_Int_Tables_number       1
_space_group_crystal_system       triclinic
_cell_length_a                    14.588166
_cell_length_b                    15.557006
_cell_length_c                    10.142776
_cell_angle_alpha                 92.345768
_cell_angle_beta                  88.128642
_cell_angle_gamma                 90.101814
_cell_volume                      2298.72880862

loop_
_atom_site_label
_atom_site_type_symbol
_atom_type_description
_atom_site_fract_x
_atom_site_fract_y
_atom_site_fract_z
_atom_type_partial_charge
C1    C     C_R   0.389660 0.872687 0.498333 0.883472
C2    C     C_R   0.706227 0.227095 0.386702 -0.277901
C3    C     C_R   0.271015 0.328964 0.521783 -0.236472
C4    C     C_R   0.206227 0.727095 0.386702 -0.277901
C5    C     C_R   0.683136 0.810636 0.480992 -0.073604
C6    C     C_R   0.672054 0.200225 0.507658 -0.116222
C7    C     C_R   0.183136 0.310636 0.480992 -0.073603
C8    C     C_R   0.172054 0.700225 0.507658 -0.116222
C9    C     C_R   0.324234 0.986460 0.130896 0.077359
C10   C     C_R   0.824234 0.486460 0.130896 0.077359
C11   C     C_R   0.246560 0.974054 0.051959 -0.049943
C12   C     C_R   0.373905 0.113381 0.503645 0.897630
C13   C     C_R   0.746560 0.474054 0.051959 -0.049943
C14   C     C_R   0.254072 0.981400 0.918501 -0.230929
C15   C     C_R   0.754072 0.481399 0.918501 -0.230929
C16   C     C_R   0.338280 0.995721 0.860138 -0.127339
C17   C     C_R   0.838280 0.495721 0.860138 -0.127339
C18   C     C_R   0.418839 0.996482 0.929423 0.075421
C19   C     C_R   0.918839 0.496482 0.929423 0.075421
C20   C     C_R   0.416111 0.994425 0.072337 0.137936
C21   C     C_R   0.916111 0.494426 0.072337 0.137935
C22   C     C_R   0.579065 0.001879 0.066484 0.094069
C23   C     C_R   0.889660 0.372687 0.498333 0.883472
C24   C     C_R   0.079065 0.501879 0.066484 0.094070
C25   C     C_R   0.612818 0.125540 0.502249 0.898777
C26   C     C_R   0.618267 0.879194 0.495260 0.862802
C27   C     C_R   0.112818 0.625540 0.502249 0.898777
C28   C     C_R   0.118267 0.379194 0.495260 0.862801
C29   C     C_R   0.578534 0.001994 0.924799 0.034011
C30   C     C_R   0.078534 0.501994 0.924799 0.034011
C31   C     C_R   0.167370 0.075931 0.493511 -0.095524
C32   C     C_R   0.362441 0.751309 0.721704 0.014551
C33   C     C_R   0.667370 0.575931 0.493511 -0.095525
C34   C     C_R   0.873905 0.613381 0.503645 0.897631
C35   C     C_R   0.862441 0.251309 0.721704 0.014551
C36   C     C_R   0.080144 0.060721 0.441518 0.142956
C37   C     C_R   0.325229 0.736461 0.846901 0.064740
C38   C     C_R   0.580144 0.560721 0.441518 0.142956
C39   C     C_R   0.825229 0.236461 0.846901 0.064740
C40   C     C_R   0.538548 0.623434 0.371031 0.110126
C41   C     C_R   0.729536 0.227350 0.865450 0.049559
C42   C     C_R   0.038548 0.123434 0.371031 0.110126
C43   C     C_R   0.229536 0.727350 0.865450 0.049559
C44   C     C_R   0.577232 0.706060 0.367443 -0.139222
C45   C     C_R   0.333667 0.263224 0.527586 0.110200
C46   C     C_R   0.673711 0.223548 0.755454 0.002587
C47   C     C_R   0.077232 0.206060 0.367443 -0.139223
C48   C     C_R   0.173711 0.723548 0.755454 0.002587
C49   C     C_R   0.656448 0.726086 0.441559 0.028313
C50   C     C_R   0.714165 0.227919 0.626394 0.010035
C51   C     C_R   0.156448 0.226086 0.441559 0.028314
C52   C     C_R   0.214165 0.727919 0.626394 0.010036
C53   C     C_R   0.210204 0.158216 0.484169 -0.040810
C54   C     C_R   0.304220 0.758678 0.614516 -0.032881
C55   C     C_R   0.710203 0.658216 0.484169 -0.040809
C56   C     C_R   0.285609 0.774373 0.380125 0.074310
C57   C     C_R   0.804220 0.258678 0.614516 -0.032881
C58   C     C_R   0.303337 0.177750 0.513083 -0.071305
C59   C     C_R   0.331589 0.796233 0.495551 -0.100219
C60   C     C_R   0.803337 0.677750 0.513083 -0.071305
C61   C     C_R   0.831589 0.296233 0.495551 -0.100219
C62   C     C_1   0.664492 0.003725 0.850758 0.294346
C63   C     C_1   0.164492 0.503725 0.850758 0.294346
C64   C     C_1   0.203264 0.006479 0.563986 0.090585
C65   C     C_1   0.460945 0.746165 0.703272 0.225440
C66   C     C_1   0.703264 0.506480 0.563986 0.090585
C67   C     C_R   0.833667 0.763224 0.527586 0.110200
C68   C     C_1   0.960945 0.246165 0.703272 0.225440
C69   C     C_1   0.548826 0.760077 0.263868 0.219081
C70   C     C_1   0.575363 0.226228 0.780287 0.252217
C71   C     C_1   0.048826 0.260077 0.263868 0.219081
C72   C     C_1   0.075363 0.726228 0.780287 0.252217
C73   C     C_1   0.155320 0.960410 0.107505 0.110911
C74   C     C_1   0.655320 0.460410 0.107505 0.110911
C75   C     C_R   0.785609 0.274373 0.380125 0.074310
C76   C     C_R   0.771015 0.828964 0.521784 -0.236472
H1    H     H_    0.193314 0.978818 0.860035 0.185432
H2    H     H_    0.433041 0.327148 0.625707 0.197698
H3    H     H_    0.276776 0.824550 0.203166 0.175119
H4    H     H_    0.335106 0.731437 0.205639 0.157624
H5    H     H_    0.952780 0.814081 0.461589 0.192464
H6    H     H_    0.933041 0.827148 0.625707 0.197698
H7    H     H_    0.776776 0.324550 0.203166 0.175119
H8    H     H_    0.835106 0.231437 0.205639 0.157624
H9    H     H_    0.021375 0.970643 0.556198 0.182843
H10   H     H_    0.075842 0.930343 0.416735 0.196525
H11   H     H_    0.375694 0.677832 0.004205 0.180002
H12   H     H_    0.693314 0.478818 0.860035 0.185432
H13   H     H_    0.373094 0.789295 0.014384 0.205739
H14   H     H_    0.521375 0.470643 0.556198 0.182843
H15   H     H_    0.575842 0.430343 0.416735 0.196526
H16   H     H_    0.875694 0.177832 0.004205 0.180001
H17   H     H_    0.873094 0.289295 0.014384 0.205739
H18   H     H_    0.403107 0.639496 0.346744 0.188471
H19   H     H_    0.464323 0.614030 0.204396 0.190365
H20   H     H_    0.693567 0.279365 0.044412 0.187120
H21   H     H_    0.721294 0.172755 0.044486 0.175337
H22   H     H_    0.903107 0.139496 0.346744 0.188471
H23   H     H_    0.339685 0.006297 0.758626 0.237655
H24   H     H_    0.964323 0.114030 0.204397 0.190365
H25   H     H_    0.193567 0.779366 0.044412 0.187120
H26   H     H_    0.221294 0.672756 0.044486 0.175337
H27   H     H_    0.670010 0.947019 0.184149 0.234628
H28   H     H_    0.673145 0.056799 0.186204 0.209348
H29   H     H_    0.170010 0.447019 0.184149 0.234628
H30   H     H_    0.173145 0.556799 0.186204 0.209348
H31   H     H_    0.264924 0.059198 0.272295 0.182093
H32   H     H_    0.261549 0.954220 0.303369 0.185525
H33   H     H_    0.764924 0.559198 0.272295 0.182093
H34   H     H_    0.839685 0.506297 0.758626 0.237655
H35   H     H_    0.761549 0.454220 0.303369 0.185525
H36   H     H_    0.791780 0.894809 0.544345 0.154849
H37   H     H_    0.674790 0.207409 0.294943 0.172487
H38   H     H_    0.291780 0.394809 0.544344 0.154849
H39   H     H_    0.174790 0.707409 0.294943 0.172487
H40   H     H_    0.452780 0.314081 0.461589 0.192464
N1    N     N_R   0.498810 1.000000 0.142780 -0.116361
N2    N     N_1   0.233734 0.505114 0.791814 -0.220611
N3    N     N_1   0.224467 0.946666 0.618812 -0.237359
N4    N     N_1   0.539788 0.740237 0.692663 -0.191498
N5    N     N_1   0.724466 0.446666 0.618812 -0.237359
N6    N     N_1   0.039788 0.240237 0.692663 -0.191498
N7    N     N_3   0.033489 0.979937 0.455611 -0.431229
N8    N     N_3   0.386019 0.734558 0.954197 -0.455457
N9    N     N_3   0.533489 0.479937 0.455611 -0.431229
N10   N     N_3   0.886019 0.234557 0.954197 -0.455457
N11   N     N_3   0.455925 0.601535 0.304532 -0.425203
N12   N     N_R   0.998810 0.500000 0.142780 -0.116361
N13   N     N_3   0.687771 0.220064 0.994275 -0.469089
N14   N     N_3   0.955925 0.101535 0.304532 -0.425202
N15   N     N_3   0.187771 0.720064 0.994275 -0.469090
N16   N     N_1   0.526834 0.801905 0.178608 -0.173356
N17   N     N_1   0.497169 0.227777 0.803307 -0.180878
N18   N     N_1   0.026834 0.301905 0.178608 -0.173356
N19   N     N_1   0.997169 0.727777 0.803307 -0.180878
N20   N     N_3   0.666152 0.001044 0.127257 -0.469618
N21   N     N_3   0.166152 0.501044 0.127257 -0.469618
N22   N     N_3   0.303537 0.002615 0.266363 -0.354091
N23   N     N_R   0.498740 1.000000 0.857170 -0.159494
N24   N     N_3   0.803537 0.502615 0.266363 -0.354091
N25   N     N_1   0.082067 0.948982 0.150361 -0.189493
N26   N     N_1   0.582067 0.448981 0.150361 -0.189493
N27   N     N_R   0.998740 0.500000 0.857170 -0.159494
N28   N     N_3   0.428553 0.283192 0.545417 -0.457730
N29   N     N_3   0.325048 0.791160 0.253973 -0.431286
N30   N     N_3   0.928553 0.783192 0.545417 -0.457730
N31   N     N_3   0.825049 0.291160 0.253973 -0.431286
N32   N     N_1   0.733734 0.005114 0.791814 -0.220611
O1    O     O_R   0.408390 0.908380 0.614690 -0.638359
O2    O     O_R   0.591620 0.908390 0.614640 -0.597366
O3    O     O_R   0.091620 0.591610 0.614640 -0.618642
O4    O     O_R   0.091620 0.408390 0.614640 -0.597366
O5    O     O_R   0.591610 0.091610 0.385310 -0.633463
O6    O     O_R   0.591610 0.908390 0.385310 -0.637301
O7    O     O_R   0.091610 0.591610 0.385310 -0.633463
O8    O     O_R   0.091610 0.408390 0.385310 -0.637301
O9    O     O_R   0.408390 0.091620 0.614690 -0.626553
O10   O     O_R   0.908390 0.408380 0.614690 -0.638359
O11   O     O_R   0.908390 0.591620 0.614690 -0.626553
O12   O     O_R   0.408370 0.908380 0.385360 -0.577024
O13   O     O_R   0.408370 0.091620 0.385360 -0.595387
O14   O     O_R   0.908370 0.408380 0.385360 -0.577024
O15   O     O_R   0.908370 0.591620 0.385360 -0.595388
O16   O     O_R   0.591620 0.091610 0.614640 -0.618642
Zn1   Zn    Zn3+2 0.500010 0.000000 0.653130 0.964734
Zn2   Zn    Zn3+2 0.000010 0.500000 0.653130 0.964734
Zn3   Zn    Zn3+2 0.499980 0.000000 0.346870 0.961726
Zn4   Zn    Zn3+2 0.999980 0.500000 0.346870 0.961726

loop_
_geom_bond_atom_site_label_1
_geom_bond_atom_site_label_2
_ccdc_geom_bond_type
C44   C49   A    
C33   C55   A    
C22   N1    A    
C38   C40   A    
H31   N22   S    
C22   C29   A    
C4    H39   S    
C36   C42   A    
C4    C8    A    
C17   H34   S    
C71   N18   T    
H3    N29   S    
C73   N25   T    
H18   N11   S    
C61   C75   A    
C64   N3    T    
H33   N24   S    
O16   Zn1   S    
C19   C21   A    
C3    C7    A    
C1    C59   S    
H11   N8    S    
C11   C14   A    
H24   N14   S    
O12   Zn3   S    
C6    C25   S    
O8    Zn4   S    
C25   O16   A    
C23   O10   A    
C14   H1    S    
C56   N29   S    
N23   Zn1   S    
H17   N10   S    
C17   C19   A    
C12   O13   A    
H40   N28   S    
H14   N9    S    
C60   C67   A    
H35   N24   S    
C45   N28   S    
C19   N27   A    
C41   C46   A    
C1    O1    A    
H7    N31   S    
C12   O9    A    
H15   N9    S    
C43   C48   A    
C8    C52   A    
C40   C44   A    
C23   O14   A    
C12   C58   S    
C34   O11   A    
C74   N26   T    
C3    H38   S    
C39   N10   S    
C62   N32   T    
C55   C60   A    
O5    Zn3   S    
C34   C60   S    
C5    C49   A    
C2    C6    A    
C10   N24   S    
C48   C72   S    
C32   C54   A    
C20   N1    A    
H6    N30   S    
C52   C54   A    
C33   C66   S    
C54   C59   A    
C10   C21   A    
C27   O7    A    
C29   N23   A    
C45   C58   A    
C25   O5    A    
C26   O2    A    
C36   N7    S    
O1    Zn1   S    
H26   N15   S    
C39   C41   A    
C34   O15   A    
C11   C73   S    
C68   N6    T    
C63   N2    T    
H30   N21   S    
C47   C51   A    
C75   N31   S    
C49   C55   A    
C40   N11   S    
H29   N21   S    
C3    C45   A    
C31   C53   A    
C7    C28   S    
C22   N20   S    
C51   C53   A    
C37   C43   A    
C35   C39   A    
H27   N20   S    
N27   Zn2   S    
H2    N28   S    
C70   N17   T    
C37   N8    S    
C9    N22   S    
C9    C20   A    
C48   C52   A    
O7    Zn4   S    
C76   H36   S    
C28   O8    A    
H22   N14   S    
C67   N30   S    
C66   N5    T    
C44   C69   S    
C42   N14   S    
C32   C37   A    
C6    C50   A    
C21   N12   A    
C9    C11   A    
C47   C71   S    
O13   Zn3   S    
O14   Zn4   S    
H25   N15   S    
H4    N29   S    
C28   O4    A    
C13   C15   A    
C14   C16   A    
O6    Zn3   S    
C26   O6    A    
O9    Zn1   S    
C38   N9    S    
O10   Zn2   S    
C24   N12   A    
H8    N31   S    
C15   C17   A    
C29   C62   S    
C27   O3    A    
H28   N20   S    
C50   C57   A    
C31   C64   S    
C1    O12   A    
C72   N19   T    
C10   C13   A    
H16   N10   S    
O4    Zn2   S    
C53   C58   A    
C56   C59   A    
C16   H23   S    
C57   C61   A    
H13   N8    S    
C24   N21   S    
O3    Zn2   S    
C46   C50   A    
C33   C38   A    
O11   Zn2   S    
C35   C57   A    
C32   C65   S    
C5    C76   A    
C43   N15   S    
O15   Zn4   S    
C7    C51   A    
C41   N13   S    
O2    Zn1   S    
C35   C68   S    
N1    Zn3   S    
C69   N16   T    
C2    H37   S    
C65   N4    T    
H9    N7    S    
C18   C20   A    
C42   C47   A    
C18   N23   A    
C24   C30   A    
C46   C70   S    
C30   N27   A    
H21   N13   S    
C5    C26   S    
H19   N11   S    
C23   C61   S    
C13   C74   S    
C16   C18   A    
H5    N30   S    
H10   N7    S    
N12   Zn4   S    
C8    C27   S    
C31   C36   A    
H20   N13   S    
C67   C76   A    
C30   C63   S    
C4    C56   A    
C2    C75   A    
C15   H12   S    
H32   N22   S    
