data_mof_unit_67846.cif
_audit_creation_date              2012-12-10T16:55:44-0500
_audit_creation_method            fapswitch 2.2
_symmetry_space_group_name_H-M    P1
_symmetry_Int_Tables_number       1
_space_group_crystal_system       triclinic
_cell_length_a                    7.824062
_cell_length_b                    8.720673
_cell_length_c                    10.502262
_cell_angle_alpha                 91.776121
_cell_angle_beta                  85.960133
_cell_angle_gamma                 93.348628
_cell_volume                      713.319791166

loop_
_atom_site_label
_atom_site_type_symbol
_atom_type_description
_atom_site_fract_x
_atom_site_fract_y
_atom_site_fract_z
_atom_type_partial_charge
C1    C     C_R   0.544721 0.793526 0.494278 0.977900
C2    C     C_R   0.455275 0.206461 0.505603 0.978209
C3    C     C_R   0.501599 0.498628 0.741806 0.978432
C4    C     C_R   0.498398 0.501359 0.258193 0.978227
C5    C     C_3   0.455323 0.635773 0.962465 -0.036800
C6    C     C_3   0.544668 0.364198 0.037533 -0.036759
C7    C     C_3   0.610974 0.610761 0.038601 -0.047742
C8    C     C_3   0.389018 0.389209 0.961395 -0.047712
C9    C     C_3   0.496758 0.501851 0.123893 -0.007599
C10   C     C_3   0.503234 0.498121 0.876105 -0.007664
C11   C     C_3   0.339275 0.527257 0.049214 -0.311913
C12   C     C_3   0.660716 0.472713 0.950784 -0.311865
C13   C     C_2   0.569471 0.955506 0.496953 -0.289533
C14   C     C_2   0.430531 0.044472 0.502647 -0.289144
H1    H     H_    0.208487 0.551036 0.089703 0.156508
H2    H     H_    0.791505 0.448931 0.910300 0.156510
N1    N     N_2   0.950320 0.457950 0.465730 -0.186126
N2    N     N_2   0.049680 0.542050 0.534270 -0.186127
O1    O     O_R   0.389250 0.738570 0.508410 -0.650994
O2    O     O_R   0.610750 0.261430 0.491590 -0.651160
O3    O     O_R   0.678390 0.711620 0.486450 -0.559721
O4    O     O_R   0.321610 0.288380 0.513550 -0.559422
O5    O     O_R   0.355460 0.513510 0.697030 -0.599926
O6    O     O_R   0.644540 0.486490 0.302970 -0.599945
O7    O     O_R   0.644600 0.486560 0.675070 -0.676407
O8    O     O_R   0.355400 0.513440 0.324930 -0.676453
Zn1   Zn    Zn3+2 0.306940 0.517990 0.514670 1.025676
Zn2   Zn    Zn3+2 0.693060 0.482010 0.485330 1.025602
C15   C     C_2   0.736502 0.737861 0.076341 0.364601
H3    H     H_    0.813080 0.800396 0.002756 0.097395
O9    O     O_2   0.752697 0.772443 0.188405 -0.529274
C16   C     C_2   0.263498 0.262105 0.923643 0.364559
H4    H     H_    0.186893 0.199584 0.997223 0.097384
O10   O     O_2   0.247344 0.227502 0.811577 -0.529324
C17   C     C_2   0.405365 0.790880 0.924968 0.378863
H5    H     H_    0.370476 0.875476 0.998685 0.072517
O11   O     O_2   0.404353 0.823306 0.812893 -0.549917
C18   C     C_2   0.594640 0.209095 0.075030 0.378842
H6    H     H_    0.629460 0.124474 0.001316 0.072585
O12   O     O_2   0.595759 0.176704 0.187103 -0.549934
C19   C     C_2   0.020427 0.410936 0.344445 0.734394
H7    H     H_    0.014532 0.484477 0.263785 -0.012013
O13   O     O_2   0.077715 0.284126 0.328462 -0.575464
C20   C     C_2   0.979563 0.589083 0.655546 0.734387
H8    H     H_    0.985319 0.515496 0.736193 -0.012015
O14   O     O_2   0.922418 0.715949 0.671537 -0.575594
C21   C     C_2   0.751990 0.012843 0.505055 0.650661
H9    H     H_    0.790480 0.081859 0.587136 0.081380
O15   O     O_2   0.858885 0.983468 0.418776 -0.484604
C22   C     C_2   0.248040 0.987119 0.494336 0.650414
H10   H     H_    0.209791 0.917786 0.412351 0.081067
O16   O     O_2   0.140888 0.016811 0.580352 -0.484964

loop_
_geom_bond_atom_site_label_1
_geom_bond_atom_site_label_2
_ccdc_geom_bond_type
C2    O4    A    
C4    O8    A    
C6    C18   S    
C1    O3    A    
C15   H3    S    
C7    C15   S    
N2    C20   S    
O1    Zn1   S    
C19   H7    S    
C3    O5    A    
C21   H9    S    
C11   H1    S    
C16   H4    S    
C6    C9    S    
N1    N2    D    
C5    C10   S    
C21   O15   D    
C3    C10   S    
C13   C14   D    
O7    Zn2   S    
C18   O12   D    
C19   O13   D    
O8    Zn1   S    
C14   C22   S    
C10   C12   S    
C8    C11   S    
C2    C14   S    
C5    C17   S    
C8    C10   S    
C17   O11   D    
O3    Zn2   S    
C20   O14   D    
C5    C11   S    
O5    Zn1   S    
O4    Zn1   S    
C9    C11   S    
C6    C12   S    
C18   H6    S    
C4    O6    A    
N1    C19   S    
C7    C12   S    
C1    O1    A    
C1    C13   S    
C2    O2    A    
C8    C16   S    
O6    Zn2   S    
C3    O7    A    
C20   H8    S    
C15   O9    D    
C22   O16   D    
C5    C7    S    
C7    C9    S    
C6    C8    S    
O2    Zn2   S    
C22   H10   S    
C4    C9    S    
N1    Zn2   S    
C13   C21   S    
N2    Zn1   S    
C12   H2    S    
C17   H5    S    
C16   O10   D    
