data_mof_unit_10958.cif
_audit_creation_date              2012-12-10T19:44:40-0500
_audit_creation_method            fapswitch 2.2
_symmetry_space_group_name_H-M    P1
_symmetry_Int_Tables_number       1
_space_group_crystal_system       triclinic
_cell_length_a                    18.551034
_cell_length_b                    18.359946
_cell_length_c                    34.281237
_cell_angle_alpha                 90.053759
_cell_angle_beta                  90.01777
_cell_angle_gamma                 89.672652
_cell_volume                      11675.8553519

loop_
_atom_site_label
_atom_site_type_symbol
_atom_type_description
_atom_site_fract_x
_atom_site_fract_y
_atom_site_fract_z
_atom_type_partial_charge
C1    C     C_R   0.999923 0.499741 0.894510 0.805672
C2    C     C_R   0.524109 0.062649 0.291698 -0.004767
C3    C     C_R   0.304085 0.805325 0.000090 -0.154010
C4    C     C_R   0.693517 0.197682 0.500587 -0.151011
C5    C     C_R   0.808595 0.699305 0.503475 -0.179968
C6    C     C_R   0.305236 0.803317 0.500555 -0.144251
C7    C     C_R   0.198320 0.306666 0.498955 -0.161164
C8    C     C_R   0.308643 0.200400 0.497567 -0.221834
C9    C     C_R   0.198027 0.692696 0.498817 -0.157437
C10   C     C_R   0.696032 0.804066 0.501534 -0.211073
C11   C     C_R   0.802509 0.306290 0.499965 -0.169860
C12   C     C_R   0.183700 0.764453 0.020393 0.299482
C13   C     C_R   0.947809 0.458697 0.291914 -0.013430
C14   C     C_R   0.248535 0.195084 0.028430 0.324172
C15   C     C_R   0.816297 0.235493 0.020534 0.293973
C16   C     C_R   0.752320 0.806366 0.028105 0.335943
C17   C     C_R   0.812513 0.760068 0.023153 0.439451
C18   C     C_R   0.764911 0.178667 0.016118 0.354183
C19   C     C_R   0.188458 0.241473 0.023815 0.372968
C20   C     C_R   0.236242 0.820172 0.017167 0.343996
C21   C     C_R   0.684366 0.262869 0.522670 0.315041
C22   C     C_R   0.770293 0.716371 0.538465 0.312926
C23   C     C_R   0.316200 0.736838 0.520933 0.316347
C24   C     C_R   0.475610 0.938007 0.291479 -0.003783
C25   C     C_R   0.256548 0.310866 0.525629 0.308318
C26   C     C_R   0.314261 0.261335 0.522514 0.395559
C27   C     C_R   0.265428 0.679358 0.517187 0.345508
C28   C     C_R   0.708815 0.762701 0.535927 0.440859
C29   C     C_R   0.737144 0.318653 0.520905 0.370176
C30   C     C_3   0.368862 0.689011 0.963937 -0.248356
C31   C     C_3   0.248790 0.307813 0.926367 -0.257567
C32   C     C_3   0.632116 0.310211 0.963111 -0.244582
C33   C     C_3   0.752068 0.694662 0.925841 -0.260040
C34   C     C_3   0.689323 0.752120 0.926670 -0.265195
C35   C     C_R   0.500336 0.000498 0.770854 0.057301
C36   C     C_3   0.692915 0.369840 0.962998 -0.255414
C37   C     C_3   0.310747 0.249347 0.926654 -0.259323
C38   C     C_3   0.308132 0.629308 0.963800 -0.251317
C39   C     C_3   0.862738 0.192866 0.458618 -0.251447
C40   C     C_3   0.734862 0.792592 0.426201 -0.271520
C41   C     C_3   0.133038 0.806048 0.460646 -0.243168
C42   C     C_3   0.251515 0.192380 0.427056 -0.256264
C43   C     C_3   0.189642 0.250555 0.427332 -0.251561
C44   C     C_3   0.192545 0.867015 0.460772 -0.253852
C45   C     C_3   0.796040 0.732763 0.426565 -0.272448
C46   C     C_R   0.996843 0.501108 0.770880 0.057252
C47   C     C_3   0.801486 0.133741 0.458465 -0.267162
C48   C     C_R   0.435279 0.995715 0.832342 -0.169838
C49   C     C_R   0.990777 0.435108 0.832272 -0.141851
C50   C     C_R   0.565052 0.004771 0.832470 -0.169781
C51   C     C_R   0.005243 0.565596 0.832689 -0.147140
C52   C     C_R   0.952159 0.455734 0.332587 -0.156355
C53   C     C_R   0.476959 0.938803 0.332377 -0.147587
C54   C     C_R   0.048444 0.543570 0.332576 -0.160396
C55   C     C_R   0.522774 0.061546 0.332583 -0.149845
C56   C     C_R   0.500125 0.999997 0.852302 -0.021800
C57   C     C_R   0.000251 0.499481 0.271222 0.067228
C58   C     C_R   0.999398 0.500027 0.852383 -0.022076
C59   C     C_R   0.000172 0.499846 0.352454 -0.023034
C60   C     C_R   0.499937 0.000081 0.352389 -0.016121
C61   C     C_3   0.125396 0.789172 0.078047 0.135333
C62   C     C_3   0.057547 0.826607 0.093812 -0.321335
C63   C     C_3   0.065236 0.847262 0.136727 -0.891683
C64   C     C_3   0.250995 0.179548 0.095394 0.112682
C65   C     C_3   0.322019 0.219990 0.102814 -0.402134
C66   C     C_3   0.321589 0.256342 0.142894 -0.810169
C67   C     C_3   0.868855 0.212087 0.080011 0.136047
C68   C     C_R   0.500035 0.000357 0.270871 0.062397
C69   C     C_3   0.935399 0.175318 0.097689 -0.324173
C70   C     C_3   0.925250 0.157170 0.140788 -0.893999
C71   C     C_3   0.782269 0.907641 0.065819 0.196454
C72   C     C_3   0.831271 0.905623 0.101736 -0.321648
C73   C     C_3   0.878679 0.973110 0.103803 -0.997943
C74   C     C_3   0.913967 0.827442 0.014820 0.026374
C75   C     C_3   0.968183 0.787929 0.988596 -0.263154
C76   C     C_3   0.010440 0.841684 0.963792 -0.936307
C77   C     C_3   0.833819 0.076785 0.004190 0.076312
C78   C     C_3   0.799166 0.031216 0.971903 -0.371291
C79   C     C_R   0.632806 0.999329 0.771150 -0.145383
C80   C     C_3   0.856984 0.000519 0.944615 -0.913545
C81   C     C_3   0.088523 0.169712 0.022545 0.116080
C82   C     C_3   0.037445 0.201931 0.991805 -0.296042
C83   C     C_3   0.004819 0.143294 0.965888 -0.983475
C84   C     C_3   0.172058 0.922964 0.002108 0.109904
C85   C     C_3   0.205965 0.991121 0.984784 -0.314594
C86   C     C_3   0.158644 0.021182 0.952077 -0.964509
C87   C     C_3   0.635227 0.259492 0.583838 0.121255
C88   C     C_3   0.563726 0.266863 0.605721 -0.323290
C89   C     C_3   0.573537 0.258744 0.649665 -0.932211
C90   C     C_R   0.017672 0.633107 0.771490 -0.143249
C91   C     C_3   0.797079 0.639034 0.591103 0.161895
C92   C     C_3   0.771820 0.644533 0.633536 -0.355127
C93   C     C_3   0.772025 0.569992 0.653234 -0.922390
C94   C     C_3   0.359563 0.720835 0.583325 0.125384
C95   C     C_3   0.412174 0.766346 0.607419 -0.315260
C96   C     C_3   0.403168 0.752929 0.650995 -0.921300
C97   C     C_3   0.248952 0.348968 0.588900 0.118718
C98   C     C_3   0.249022 0.416940 0.614695 -0.306319
C99   C     C_3   0.240350 0.397762 0.657714 -0.940718
C100  C     C_3   0.417690 0.328660 0.521804 0.122919
C101  C     C_R   0.367833 0.002552 0.770963 -0.148489
C102  C     C_3   0.470211 0.292472 0.493119 -0.320305
C103  C     C_3   0.511442 0.348167 0.469071 -0.940155
C104  C     C_3   0.336753 0.577045 0.511827 0.095386
C105  C     C_3   0.306060 0.525519 0.480965 -0.326431
C106  C     C_3   0.365858 0.497606 0.454142 -0.935511
C107  C     C_3   0.622425 0.706651 0.573562 0.070498
C108  C     C_3   0.567358 0.691348 0.541021 -0.353585
C109  C     C_3   0.527902 0.620016 0.548630 -0.962377
C110  C     C_3   0.675221 0.428325 0.530031 0.101643
C111  C     C_3   0.688685 0.456163 0.488310 -0.410631
C112  C     C_R   0.500010 0.999980 0.894397 0.796065
C113  C     C_R   0.971681 0.369810 0.770790 -0.140815
C114  C     C_3   0.639938 0.521035 0.478671 -0.855347
C115  C     C_2   0.390596 0.716683 0.923943 0.993003
C116  C     C_2   0.177079 0.284664 0.908413 0.930781
C117  C     C_2   0.610023 0.282744 0.923118 0.992303
C118  C     C_2   0.823262 0.720088 0.908225 0.920199
C119  C     C_2   0.704145 0.823615 0.905901 0.998542
C120  C     C_2   0.721053 0.390494 0.922892 0.991475
C121  C     C_2   0.294942 0.178687 0.905243 0.999174
C122  C     C_2   0.280232 0.608660 0.923631 0.991858
C123  C     C_2   0.883221 0.222214 0.418822 0.984306
C124  C     C_R   0.108975 0.575454 0.271684 -0.134309
C125  C     C_2   0.659908 0.766964 0.414250 0.915145
C126  C     C_2   0.112432 0.776871 0.420711 0.963419
C127  C     C_2   0.323410 0.216762 0.409747 0.922641
C128  C     C_2   0.206557 0.321684 0.406498 0.986720
C129  C     C_2   0.220401 0.888632 0.420816 0.990351
C130  C     C_2   0.773785 0.658889 0.410767 1.013382
C131  C     C_2   0.770276 0.115129 0.418707 0.990739
C132  C     C_2   0.433765 0.672910 0.989694 0.972380
C133  C     C_2   0.271255 0.382576 0.912126 1.025880
C134  C     C_2   0.567423 0.326568 0.988973 0.970193
C135  C     C_R   0.548095 0.124767 0.271362 -0.136985
C136  C     C_2   0.730961 0.619850 0.910862 1.026594
C137  C     C_2   0.616287 0.723671 0.914243 0.960323
C138  C     C_2   0.679173 0.435854 0.988800 0.978714
C139  C     C_2   0.384095 0.276890 0.914288 0.960752
C140  C     C_2   0.321972 0.563352 0.989548 0.979434
C141  C     C_2   0.928459 0.173692 0.483137 0.979623
C142  C     C_2   0.755707 0.863565 0.406532 1.030963
C143  C     C_2   0.067241 0.821010 0.486004 0.941226
C144  C     C_2   0.229691 0.117668 0.412213 1.021053
C145  C     C_2   0.116286 0.223373 0.414435 0.952970
C146  C     C_R   0.892336 0.422373 0.271678 -0.130768
C147  C     C_2   0.176298 0.932654 0.486398 0.988265
C148  C     C_2   0.869443 0.755490 0.410930 0.980462
C149  C     C_2   0.816049 0.066202 0.483021 0.978698
C150  C     C_2   0.703746 0.999107 0.791413 0.937658
C151  C     C_2   0.026285 0.704016 0.791982 0.952097
C152  C     C_2   0.296809 0.004104 0.791102 0.938592
C153  C     C_2   0.955773 0.300013 0.790979 0.947608
C154  C     C_2   0.167269 0.616024 0.292048 0.932869
C155  C     C_2   0.575766 0.190361 0.291861 0.946334
C156  C     C_2   0.835454 0.379856 0.292015 0.930837
C157  C     C_R   0.451193 0.876192 0.270910 -0.136062
C158  C     C_2   0.421600 0.811234 0.291150 0.950406
C159  C     C_3   0.218982 0.535989 0.201297 0.048425
C160  C     C_3   0.272070 0.515653 0.233793 -0.362133
C161  C     C_3   0.327055 0.459310 0.219748 -0.862105
C162  C     C_3   0.646891 0.177556 0.203922 0.069044
C163  C     C_3   0.674445 0.246329 0.183912 -0.284683
C164  C     C_3   0.753533 0.238905 0.172549 -0.866574
C165  C     C_3   0.779782 0.458538 0.202459 0.048345
C166  C     C_3   0.725022 0.473124 0.235009 -0.370431
C167  C     C_3   0.665882 0.525474 0.221570 -0.834606
C168  C     C_R   0.112517 0.569807 0.231007 0.446635
C169  C     C_3   0.352532 0.826465 0.202649 0.062527
C170  C     C_3   0.323207 0.758828 0.182185 -0.277868
C171  C     C_3   0.243933 0.768091 0.171421 -0.865494
C172  C     C_3   0.702445 0.908777 0.699106 0.066403
C173  C     C_3   0.735799 0.860583 0.730900 -0.342339
C174  C     C_3   0.754316 0.784947 0.715244 -0.838380
C175  C     C_3   0.114828 0.693625 0.700946 0.068795
C176  C     C_3   0.163194 0.724501 0.733144 -0.348963
C177  C     C_3   0.238996 0.739406 0.718135 -0.865642
C178  C     C_3   0.300991 0.093930 0.698121 0.055184
C179  C     C_R   0.546889 0.125449 0.230456 0.418278
C180  C     C_3   0.266948 0.143728 0.728991 -0.329062
C181  C     C_3   0.255291 0.220604 0.713218 -0.862711
C182  C     C_3   0.875344 0.317915 0.696507 0.067398
C183  C     C_3   0.820523 0.286856 0.725329 -0.330995
C184  C     C_3   0.744994 0.285371 0.707698 -0.882775
C185  C     C_2   0.096839 0.594006 0.146528 0.983581
C186  C     C_2   0.514634 0.135314 0.145574 0.934043
C187  C     C_2   0.901822 0.408015 0.145967 0.980204
C188  C     C_2   0.490302 0.864899 0.145796 0.967340
C189  C     C_2   0.631564 0.030310 0.645599 0.942052
C190  C     C_R   0.888317 0.428236 0.231018 0.443776
C191  C     C_2   0.991927 0.636493 0.645189 0.926930
C192  C     C_2   0.369276 0.967932 0.646045 0.940121
C193  C     C_2   0.010640 0.364868 0.646217 0.937856
C194  C     C_R   0.453296 0.875580 0.229993 0.419471
C195  C     C_R   0.632601 0.995106 0.730295 0.446576
C196  C     C_R   0.499985 0.999958 0.394512 0.806433
C197  C     C_R   0.021589 0.632675 0.730618 0.442246
C198  C     C_R   0.368294 0.006638 0.730135 0.450415
C199  C     C_R   0.969503 0.370785 0.729903 0.446906
C200  C     C_R   0.054535 0.538176 0.209729 -0.069560
C201  C     C_R   0.519867 0.064759 0.209216 -0.047904
C202  C     C_R   0.945421 0.461292 0.209669 -0.069467
C203  C     C_R   0.481236 0.936063 0.209091 -0.049061
C204  C     C_R   0.566925 0.002322 0.709155 -0.064126
C205  C     C_R   0.006299 0.568019 0.709214 -0.055651
C206  C     C_R   0.433973 0.998423 0.709147 -0.063437
C207  C     C_R   0.000069 0.499969 0.394449 0.818044
C208  C     C_R   0.988984 0.434721 0.709080 -0.064239
C209  C     C_R   0.000052 0.499646 0.230147 -0.054563
C210  C     C_R   0.500345 0.000418 0.229693 -0.061377
C211  C     C_R   0.500429 0.000436 0.729692 -0.065601
C212  C     C_R   0.997296 0.501339 0.729691 -0.063426
C213  C     C_R   0.050335 0.542970 0.168648 -0.074189
C214  C     C_R   0.512951 0.065923 0.168036 -0.074484
C215  C     C_R   0.949071 0.457655 0.168501 -0.068490
C216  C     C_R   0.488945 0.934673 0.168027 -0.085725
C217  C     C_R   0.565771 0.009836 0.668026 -0.095063
C218  C     C_R   0.566699 0.001637 0.791603 -0.008349
C219  C     C_R   0.000600 0.567802 0.667938 -0.098725
C220  C     C_R   0.434999 0.990077 0.668111 -0.097387
C221  C     C_R   0.998376 0.434157 0.668115 -0.090596
C222  C     C_R   0.999805 0.500274 0.148383 -0.220200
C223  C     C_R   0.500432 0.000314 0.147960 -0.210410
C224  C     C_R   0.500290 0.999995 0.647996 -0.215627
C225  C     C_R   0.000004 0.500767 0.647950 -0.217651
C226  C     C_R   0.000053 0.500071 0.105722 0.907733
C227  C     C_R   0.500069 0.000155 0.105488 0.879304
C228  C     C_R   0.500098 0.000011 0.605592 0.944369
C229  C     C_R   0.006697 0.567210 0.791789 -0.014753
C230  C     C_R   0.000023 0.500293 0.605488 0.912132
C231  C     C_R   0.861845 0.641802 0.998725 0.839242
C232  C     C_R   0.360274 0.860073 0.999932 0.909340
C233  C     C_R   0.138291 0.358493 0.998856 0.837190
C234  C     C_R   0.640032 0.139597 0.999705 0.912942
C235  C     C_R   0.139998 0.639992 0.000395 0.918658
C236  C     C_R   0.639570 0.859696 0.000230 0.941310
C237  C     C_R   0.859968 0.360033 0.000425 0.917965
C238  C     C_R   0.359997 0.139912 0.999893 0.927525
C239  C     C_R   0.361533 0.141433 0.499067 0.847691
C240  C     C_R   0.433851 0.999435 0.791499 -0.009088
C241  C     C_R   0.860067 0.360044 0.500050 0.922767
C242  C     C_R   0.639332 0.859286 0.499827 0.878072
C243  C     C_R   0.140461 0.639235 0.499540 0.915071
C244  C     C_R   0.639601 0.140260 0.500208 0.911101
C245  C     C_R   0.140413 0.360513 0.499666 0.917825
C246  C     C_R   0.359787 0.860283 0.500428 0.928221
C247  C     C_R   0.862029 0.641521 0.501389 0.925045
C248  C     C_R   0.261807 0.685665 0.983591 -0.035659
C249  C     C_R   0.301114 0.248716 0.970609 -0.013433
C250  C     C_R   0.739094 0.313320 0.982689 -0.035307
C251  C     C_R   0.986404 0.434720 0.791417 -0.013874
C252  C     C_R   0.699121 0.751787 0.970563 -0.002763
C253  C     C_R   0.752363 0.699076 0.970003 -0.030982
C254  C     C_R   0.687011 0.261905 0.982562 -0.047182
C255  C     C_R   0.248330 0.301907 0.970464 -0.035046
C256  C     C_R   0.313975 0.737024 0.983541 -0.049377
C257  C     C_R   0.757176 0.189786 0.479748 -0.029355
C258  C     C_R   0.793012 0.740149 0.470291 -0.021129
C259  C     C_R   0.240108 0.811699 0.480751 -0.031387
C260  C     C_R   0.197899 0.250455 0.471387 -0.008436
C261  C     C_R   0.251119 0.197421 0.471206 -0.034377
C262  C     C_R   0.052952 0.540071 0.291913 -0.013269
C263  C     C_R   0.188761 0.759526 0.480583 -0.038916
C264  C     C_R   0.742433 0.794222 0.470073 -0.010460
C265  C     C_R   0.809371 0.240904 0.479752 -0.036403
C266  C     C_R   0.195175 0.696379 0.001404 -0.148122
C267  C     C_R   0.303002 0.194718 0.999436 -0.182908
C268  C     C_R   0.805112 0.303263 0.001191 -0.145510
C269  C     C_R   0.696675 0.805178 0.999758 -0.178799
C270  C     C_R   0.809247 0.701271 0.996682 -0.226991
C271  C     C_R   0.696843 0.193701 0.999264 -0.158219
C272  C     C_R   0.191572 0.299958 0.997295 -0.222343
H1    H     H_    0.386464 0.990525 0.849322 0.156964
H2    H     H_    0.131393 0.734799 0.091846 0.170692
H3    H     H_    0.369397 0.544443 0.532727 0.154317
H4    H     H_    0.374688 0.615708 0.497597 0.157995
H5    H     H_    0.279735 0.478758 0.495607 0.274040
H6    H     H_    0.264966 0.554366 0.463049 0.220964
H7    H     H_    0.384501 0.542124 0.434755 0.275995
H8    H     H_    0.345750 0.452232 0.435832 0.310087
H9    H     H_    0.412393 0.477814 0.471562 0.246970
H10   H     H_    0.593042 0.712735 0.601592 0.162421
H11   H     H_    0.657221 0.658229 0.576862 0.119033
H12   H     H_    0.527259 0.736160 0.539224 0.281946
H13   H     H_    0.047095 0.877090 0.076806 0.212103
H14   H     H_    0.595034 0.686805 0.512426 0.232428
H15   H     H_    0.566874 0.574416 0.552291 0.247579
H16   H     H_    0.492661 0.607404 0.523451 0.270576
H17   H     H_    0.494447 0.624401 0.575367 0.269975
H18   H     H_    0.674441 0.476086 0.549966 0.154031
H19   H     H_    0.621224 0.403536 0.532549 0.167865
H20   H     H_    0.745634 0.473402 0.485182 0.259475
H21   H     H_    0.678109 0.411724 0.467068 0.217639
H22   H     H_    0.582874 0.509002 0.485700 0.242545
H23   H     H_    0.643395 0.533702 0.447097 0.297012
H24   H     H_    0.010665 0.789755 0.090218 0.258005
H25   H     H_    0.657397 0.569586 0.495471 0.277292
H26   H     H_    0.383155 0.795277 0.882967 0.344262
H27   H     H_    0.102983 0.206248 0.901123 0.351316
H28   H     H_    0.616066 0.203729 0.882234 0.345123
H29   H     H_    0.895116 0.800874 0.901714 0.349604
H30   H     H_    0.711527 0.932969 0.908359 0.343173
H31   H     H_    0.799062 0.380585 0.882135 0.359683
H32   H     H_    0.291486 0.068947 0.905842 0.349906
H33   H     H_    0.202289 0.618167 0.882799 0.355148
H34   H     H_    0.875363 0.303091 0.379238 0.347774
H35   H     H_    0.076161 0.798342 0.154748 0.315747
H36   H     H_    0.578071 0.696955 0.423527 0.348188
H37   H     H_    0.124374 0.698755 0.379729 0.345251
H38   H     H_    0.398442 0.295325 0.405243 0.347827
H39   H     H_    0.223944 0.429893 0.409334 0.343973
H40   H     H_    0.300146 0.883391 0.380867 0.369768
H41   H     H_    0.763374 0.550997 0.419613 0.341875
H42   H     H_    0.689099 0.126907 0.380031 0.373061
H43   H     H_    0.522634 0.611159 0.998487 0.372909
H44   H     H_    0.296634 0.445508 0.865887 0.379564
H45   H     H_    0.479084 0.388962 0.998060 0.370194
H46   H     H_    0.014432 0.873074 0.147050 0.268150
H47   H     H_    0.707537 0.557457 0.864072 0.376955
H48   H     H_    0.553185 0.690410 0.869673 0.386812
H49   H     H_    0.703134 0.491228 0.037984 0.347427
H50   H     H_    0.447573 0.309205 0.869728 0.387283
H51   H     H_    0.296692 0.506997 0.038147 0.342688
H52   H     H_    0.014905 0.107752 0.490172 0.376538
H53   H     H_    0.778610 0.915008 0.356120 0.373113
H54   H     H_    0.973722 0.876411 0.492371 0.374775
H55   H     H_    0.206488 0.055054 0.365470 0.381243
H56   H     H_    0.053649 0.190101 0.369731 0.390208
H57   H     H_    0.109874 0.886694 0.140579 0.258431
H58   H     H_    0.199287 0.990327 0.534950 0.343508
H59   H     H_    0.951330 0.735135 0.373566 0.371439
H60   H     H_    0.799121 0.011359 0.533180 0.347168
H61   H     H_    0.803791 0.041155 0.794663 0.346461
H62   H     H_    0.995632 0.809325 0.796050 0.346957
H63   H     H_    0.195894 0.964137 0.794051 0.347367
H64   H     H_    0.974609 0.191903 0.794433 0.346860
H65   H     H_    0.228028 0.706762 0.294237 0.358356
H66   H     H_    0.571566 0.299580 0.297954 0.345151
H67   H     H_    0.777836 0.287049 0.294143 0.358803
H68   H     H_    0.245359 0.136662 0.118008 0.172937
H69   H     H_    0.422092 0.701849 0.296577 0.345559
H70   H     H_    0.250391 0.553938 0.175479 0.196222
H71   H     H_    0.188257 0.486913 0.191921 0.137173
H72   H     H_    0.300938 0.565227 0.243723 0.252045
H73   H     H_    0.242122 0.492457 0.258878 0.241087
H74   H     H_    0.299350 0.409006 0.209957 0.266352
H75   H     H_    0.364209 0.445112 0.244013 0.285188
H76   H     H_    0.359261 0.481565 0.195231 0.262093
H77   H     H_    0.656143 0.129998 0.184288 0.151221
H78   H     H_    0.677788 0.169294 0.231463 0.150982
H79   H     H_    0.204338 0.216965 0.099495 0.178294
H80   H     H_    0.642095 0.256922 0.157194 0.241106
H81   H     H_    0.667917 0.293644 0.203898 0.242210
H82   H     H_    0.787560 0.231379 0.198923 0.309883
H83   H     H_    0.770812 0.289011 0.157185 0.287438
H84   H     H_    0.761088 0.191766 0.152643 0.241767
H85   H     H_    0.749942 0.440998 0.175994 0.195824
H86   H     H_    0.807982 0.509987 0.194531 0.143290
H87   H     H_    0.700038 0.420972 0.244171 0.250897
H88   H     H_    0.752889 0.497569 0.260481 0.246269
H89   H     H_    0.689611 0.578224 0.212490 0.276867
H90   H     H_    0.367770 0.180849 0.100878 0.255867
H91   H     H_    0.627691 0.535658 0.245933 0.281939
H92   H     H_    0.635586 0.501701 0.196716 0.260101
H93   H     H_    0.344879 0.874463 0.183172 0.152037
H94   H     H_    0.321453 0.835300 0.230081 0.151587
H95   H     H_    0.354761 0.748392 0.155177 0.240944
H96   H     H_    0.329263 0.710824 0.201696 0.246916
H97   H     H_    0.210643 0.774873 0.198122 0.306351
H98   H     H_    0.225484 0.718992 0.155476 0.285396
H99   H     H_    0.236493 0.816286 0.152263 0.244713
H100  H     H_    0.738161 0.907356 0.673101 0.213907
H101  H     H_    0.329910 0.262936 0.080432 0.211028
H102  H     H_    0.649744 0.885814 0.689547 0.127187
H103  H     H_    0.785776 0.886333 0.742128 0.269661
H104  H     H_    0.697070 0.854827 0.755394 0.240145
H105  H     H_    0.705315 0.758157 0.703518 0.248623
H106  H     H_    0.776714 0.750836 0.739129 0.295271
H107  H     H_    0.795372 0.789076 0.691796 0.278772
H108  H     H_    0.120627 0.727932 0.674460 0.208853
H109  H     H_    0.133541 0.637862 0.692593 0.120582
H110  H     H_    0.139683 0.776277 0.744340 0.273455
H111  H     H_    0.166768 0.684836 0.757518 0.227401
H112  H     H_    0.987393 0.385467 0.849117 0.175615
H113  H     H_    0.275172 0.294558 0.145443 0.239163
H114  H     H_    0.263445 0.688825 0.706050 0.250162
H115  H     H_    0.273267 0.759295 0.742433 0.289098
H116  H     H_    0.237030 0.781958 0.695149 0.286123
H117  H     H_    0.266655 0.095348 0.671569 0.201484
H118  H     H_    0.354602 0.115617 0.689237 0.126237
H119  H     H_    0.214245 0.121046 0.738269 0.267228
H120  H     H_    0.302929 0.146748 0.754835 0.242254
H121  H     H_    0.307610 0.244614 0.704363 0.249695
H122  H     H_    0.230896 0.255453 0.736240 0.297829
H123  H     H_    0.218382 0.219681 0.687695 0.273317
H124  H     H_    0.371933 0.287860 0.146938 0.298985
H125  H     H_    0.871278 0.287099 0.668692 0.208521
H126  H     H_    0.861140 0.375602 0.689473 0.121583
H127  H     H_    0.836648 0.230526 0.733569 0.273227
H128  H     H_    0.819350 0.321056 0.752061 0.227509
H129  H     H_    0.727483 0.341308 0.699589 0.251784
H130  H     H_    0.706405 0.263236 0.729354 0.287244
H131  H     H_    0.744093 0.250068 0.681359 0.280611
H132  H     H_    0.171980 0.607639 0.104619 0.330100
H133  H     H_    0.558200 0.193282 0.101591 0.345119
H134  H     H_    0.826118 0.396696 0.104122 0.330782
H135  H     H_    0.318020 0.214591 0.166235 0.279284
H136  H     H_    0.449236 0.804550 0.101955 0.350316
H137  H     H_    0.697538 0.009563 0.600068 0.348345
H138  H     H_    0.025271 0.698779 0.600273 0.360905
H139  H     H_    0.303140 0.985255 0.600186 0.346983
H140  H     H_    0.984132 0.300986 0.600518 0.352358
H141  H     H_    0.821181 0.177718 0.086603 0.161980
H142  H     H_    0.860547 0.266209 0.093761 0.175657
H143  H     H_    0.946464 0.123872 0.081604 0.212938
H144  H     H_    0.982692 0.211709 0.094386 0.256395
H145  H     H_    0.917376 0.207372 0.158208 0.321244
H146  H     H_    0.973941 0.128377 0.151804 0.268800
H147  H     H_    0.877966 0.121306 0.144960 0.254269
H148  H     H_    0.613741 0.009903 0.849576 0.158109
H149  H     H_    0.743732 0.953600 0.069729 0.199154
H150  H     H_    0.813759 0.920612 0.039326 0.085756
H151  H     H_    0.797391 0.902943 0.128430 0.237563
H152  H     H_    0.866305 0.856455 0.101098 0.265004
H153  H     H_    0.917739 0.973267 0.079270 0.247740
H154  H     H_    0.909295 0.973171 0.131633 0.282251
H155  H     H_    0.844865 0.023127 0.102368 0.285602
H156  H     H_    0.943309 0.867046 0.033312 0.148834
H157  H     H_    0.877360 0.860093 0.995710 0.144150
H158  H     H_    0.005149 0.755640 0.006926 0.289307
H159  H     H_    0.008978 0.614686 0.849979 0.180414
H160  H     H_    0.940546 0.749774 0.968702 0.206009
H161  H     H_    0.975321 0.866009 0.941057 0.272711
H162  H     H_    0.056147 0.813178 0.949345 0.274023
H163  H     H_    0.031055 0.886462 0.982184 0.244004
H164  H     H_    0.868614 0.040977 0.022318 0.145894
H165  H     H_    0.869832 0.117316 0.990565 0.178944
H166  H     H_    0.768161 0.985834 0.984963 0.240314
H167  H     H_    0.761368 0.065587 0.954665 0.224824
H168  H     H_    0.882936 0.045396 0.928185 0.271608
H169  H     H_    0.832754 0.962270 0.923386 0.307825
H170  H     H_    0.916838 0.421554 0.349552 0.172896
H171  H     H_    0.898947 0.971018 0.961509 0.247709
H172  H     H_    0.056244 0.138322 0.043852 0.141255
H173  H     H_    0.125661 0.129412 0.008807 0.155268
H174  H     H_    0.994331 0.232900 0.006674 0.279938
H175  H     H_    0.065995 0.240686 0.972751 0.222383
H176  H     H_    0.044408 0.125258 0.943751 0.290266
H177  H     H_    0.957603 0.166072 0.950063 0.272856
H178  H     H_    0.988502 0.095341 0.983407 0.248920
H179  H     H_    0.122365 0.939154 0.018055 0.149534
H180  H     H_    0.156054 0.886722 0.977387 0.145238
H181  H     H_    0.461504 0.891766 0.349340 0.172163
H182  H     H_    0.212202 0.032624 0.008071 0.258066
H183  H     H_    0.260132 0.978138 0.972762 0.230403
H184  H     H_    0.165841 0.988059 0.925214 0.283514
H185  H     H_    0.173276 0.078377 0.945763 0.323170
H186  H     H_    0.101073 0.019406 0.960713 0.252905
H187  H     H_    0.674318 0.299043 0.596222 0.174107
H188  H     H_    0.656459 0.203049 0.587881 0.166559
H189  H     H_    0.539647 0.321270 0.599629 0.217823
H190  H     H_    0.525728 0.224600 0.595120 0.263435
H191  H     H_    0.597429 0.204881 0.656711 0.302258
H192  H     H_    0.083817 0.577901 0.349493 0.170486
H193  H     H_    0.520308 0.263201 0.664305 0.268995
H194  H     H_    0.608979 0.302443 0.661006 0.265829
H195  H     H_    0.851897 0.614597 0.591704 0.200383
H196  H     H_    0.761010 0.601724 0.574568 0.115436
H197  H     H_    0.808132 0.681303 0.649897 0.281423
H198  H     H_    0.716809 0.668229 0.635095 0.212252
H199  H     H_    0.735150 0.532355 0.637679 0.259133
H200  H     H_    0.753472 0.575765 0.683878 0.274849
H201  H     H_    0.827339 0.546423 0.653373 0.276900
H202  H     H_    0.364462 0.662704 0.592004 0.168746
H203  H     H_    0.538292 0.108436 0.349701 0.166983
H204  H     H_    0.303686 0.739775 0.590463 0.139754
H205  H     H_    0.468361 0.752740 0.599233 0.227221
H206  H     H_    0.402820 0.825001 0.601214 0.257283
H207  H     H_    0.347409 0.766570 0.660042 0.293824
H208  H     H_    0.441111 0.787945 0.667513 0.280294
H209  H     H_    0.414809 0.695013 0.658060 0.252114
H210  H     H_    0.291073 0.310446 0.599620 0.170846
H211  H     H_    0.194980 0.322760 0.591043 0.139719
H212  H     H_    0.300634 0.446535 0.610743 0.226007
H213  H     H_    0.204176 0.453670 0.605704 0.258304
H214  H     H_    0.172828 0.822766 0.086204 0.169660
H215  H     H_    0.189930 0.366844 0.662444 0.302995
H216  H     H_    0.237913 0.448520 0.675313 0.272071
H217  H     H_    0.286988 0.364585 0.667774 0.265350
H218  H     H_    0.449396 0.360116 0.543468 0.143306
H219  H     H_    0.383225 0.369159 0.506208 0.170685
H220  H     H_    0.508499 0.258395 0.509737 0.286522
H221  H     H_    0.441221 0.256195 0.472796 0.220342
H222  H     H_    0.475595 0.372784 0.446734 0.278568
H223  H     H_    0.557369 0.321093 0.454043 0.278288
H224  H     H_    0.532303 0.391929 0.488028 0.254134
O1    O     O_3   0.000000 0.500000 0.999990 -0.530260
O2    O     O_R   0.000000 0.560740 0.412560 -0.622959
O3    O     O_R   0.704182 0.144703 0.406791 -0.779741
O4    O     O_2   0.444627 0.708306 0.019364 -0.644892
O5    O     O_R   0.481584 0.617112 0.979197 -0.656681
O6    O     O_2   0.278437 0.432925 0.935045 -0.559998
O7    O     O_R   0.282235 0.393729 0.872224 -0.720041
O8    O     O_2   0.556455 0.291071 0.018557 -0.653107
O9    O     O_R   0.519995 0.382829 0.978705 -0.658863
O10   O     O_2   0.723681 0.568913 0.933366 -0.555790
O11   O     O_R   0.721057 0.609355 0.870813 -0.719767
O12   O     O_2   0.568576 0.714339 0.938223 -0.561517
O13   O     O_R   0.439260 0.000000 0.412560 -0.616387
O14   O     O_R   0.603374 0.709578 0.874762 -0.730109
O15   O     O_2   0.634312 0.481340 0.979006 -0.500450
O16   O     O_R   0.717149 0.444867 0.023726 -0.823322
O17   O     O_2   0.431943 0.285621 0.938280 -0.564069
O18   O     O_R   0.397149 0.290710 0.874811 -0.732144
O19   O     O_2   0.368096 0.518805 0.980214 -0.504874
O20   O     O_R   0.282506 0.553244 0.023873 -0.822286
O21   O     O_2   0.942241 0.207654 0.512920 -0.631706
O22   O     O_R   0.973305 0.116188 0.471492 -0.665717
O23   O     O_2   0.764696 0.918977 0.425682 -0.530166
O24   O     O_R   0.000000 0.439260 0.412560 -0.636517
O25   O     O_R   0.764743 0.865018 0.366056 -0.741549
O26   O     O_2   0.059722 0.790364 0.517416 -0.639423
O27   O     O_R   0.014964 0.870644 0.473191 -0.649672
O28   O     O_2   0.221067 0.067136 0.434846 -0.565860
O29   O     O_R   0.220645 0.106800 0.372134 -0.710780
O30   O     O_2   0.067397 0.216537 0.437974 -0.571346
O31   O     O_R   0.104287 0.207919 0.375021 -0.719024
O32   O     O_2   0.128606 0.975362 0.476917 -0.508285
O33   O     O_R   0.215175 0.944486 0.520777 -0.821360
O34   O     O_2   0.900113 0.808621 0.424506 -0.528820
O35   O     O_R   0.000000 0.560680 0.087420 -0.621734
O36   O     O_R   0.902599 0.715026 0.381254 -0.755769
O37   O     O_2   0.855468 0.018090 0.470357 -0.482830
O38   O     O_R   0.785357 0.058936 0.520086 -0.824390
O39   O     O_2   0.716121 0.955532 0.817555 -0.619424
O40   O     O_R   0.757514 0.047021 0.779212 -0.737815
O41   O     O_2   0.071552 0.710956 0.817648 -0.656807
O42   O     O_R   0.984349 0.763776 0.780516 -0.725943
O43   O     O_2   0.285232 0.047688 0.817384 -0.618989
O44   O     O_R   0.242109 0.957442 0.778650 -0.740012
O45   O     O_2   0.910612 0.297925 0.816938 -0.652246
O46   O     O_R   0.439320 0.000000 0.087420 -0.610496
O47   O     O_R   0.990611 0.236062 0.779032 -0.722420
O48   O     O_2   0.200061 0.588063 0.319186 -0.646943
O49   O     O_R   0.186767 0.685145 0.278748 -0.744403
O50   O     O_2   0.624971 0.184678 0.315418 -0.657151
O51   O     O_R   0.547487 0.259021 0.282769 -0.734611
O52   O     O_2   0.801670 0.406750 0.319122 -0.642117
O53   O     O_R   0.818369 0.310037 0.278699 -0.747519
O54   O     O_2   0.373023 0.818210 0.314995 -0.652391
O55   O     O_R   0.447326 0.741789 0.281523 -0.726240
O56   O     O_3   0.174183 0.595214 0.212648 -0.608333
O57   O     O_R   1.000000 0.439320 0.087420 -0.625470
O58   O     O_3   0.572589 0.186711 0.211594 -0.588786
O59   O     O_3   0.827384 0.400920 0.212727 -0.610990
O60   O     O_3   0.426484 0.815187 0.210671 -0.592663
O61   O     O_3   0.697825 0.982370 0.711572 -0.586421
O62   O     O_3   0.041276 0.696739 0.712120 -0.585284
O63   O     O_3   0.303431 0.020683 0.711266 -0.586035
O64   O     O_3   0.946607 0.308372 0.710747 -0.585672
O65   O     O_2   0.094340 0.659062 0.153895 -0.632663
O66   O     O_R   0.142868 0.567642 0.117373 -0.839199
O67   O     O_2   0.473904 0.185097 0.154531 -0.599074
O68   O     O_R   0.560680 0.000000 0.087420 -0.607625
O69   O     O_R   0.562661 0.143800 0.114500 -0.816201
O70   O     O_2   0.904456 0.342637 0.152226 -0.636747
O71   O     O_R   0.855428 0.435977 0.117424 -0.835339
O72   O     O_2   0.533539 0.817234 0.154751 -0.554640
O73   O     O_R   0.442657 0.853947 0.114750 -0.816653
O74   O     O_2   0.667407 0.082595 0.655917 -0.600475
O75   O     O_R   0.652323 0.989947 0.612804 -0.819284
O76   O     O_2   0.945240 0.680511 0.654352 -0.580737
O77   O     O_R   0.036883 0.650637 0.613373 -0.823346
O78   O     O_2   0.333661 0.916235 0.657339 -0.593769
O79   O     O_R   0.500000 0.060680 0.587420 -0.631910
O80   O     O_R   0.348252 0.005977 0.612550 -0.838981
O81   O     O_2   0.055944 0.321273 0.657728 -0.597461
O82   O     O_R   0.970544 0.349516 0.612671 -0.822855
O83   O     O_R   0.939320 0.500000 0.587420 -0.642560
O84   O     O_R   0.500000 0.939320 0.587420 -0.633433
O85   O     O_3   0.500000 0.000000 0.999990 -0.533386
O86   O     O_R   0.060680 0.500000 0.587420 -0.625716
O87   O     O_R   0.853840 0.585430 0.977070 -0.612362
O88   O     O_R   0.414570 0.853840 0.977070 -0.616192
O89   O     O_R   0.146160 0.414570 0.977070 -0.613125
O90   O     O_R   0.585430 0.146160 0.977070 -0.615285
O91   O     O_R   0.146160 0.585430 0.977070 -0.603387
O92   O     O_R   0.585430 0.853840 0.977070 -0.611064
O93   O     O_R   0.853840 0.414570 0.977070 -0.606524
O94   O     O_R   0.414570 0.146160 0.977070 -0.609296
O95   O     O_R   0.353840 0.085430 0.477070 -0.614319
O96   O     O_3   0.500000 1.000000 0.499990 -0.524741
O97   O     O_R   0.914570 0.353840 0.477070 -0.611571
O98   O     O_R   0.646160 0.914570 0.477070 -0.616151
O99   O     O_R   0.085430 0.646160 0.477070 -0.631757
O100  O     O_R   0.646160 0.085430 0.477070 -0.613533
O101  O     O_R   0.085430 0.353840 0.477070 -0.615547
O102  O     O_R   0.353840 0.914570 0.477070 -0.605821
O103  O     O_R   0.914570 0.646160 0.477070 -0.625235
O104  O     O_R   0.085450 0.353820 0.022910 -0.608768
O105  O     O_R   0.646180 0.085450 0.022910 -0.603437
O106  O     O_R   0.914550 0.646180 0.022910 -0.611591
O107  O     O_3   0.000000 0.500000 0.499990 -0.524525
O108  O     O_R   0.353820 0.914550 0.022910 -0.594176
O109  O     O_R   0.914550 0.353820 0.022910 -0.631702
O110  O     O_R   0.353820 0.085450 0.022910 -0.613941
O111  O     O_R   0.085450 0.646180 0.022910 -0.641583
O112  O     O_R   0.646180 0.914550 0.022910 -0.654397
O113  O     O_R   0.585450 0.853820 0.522910 -0.618867
O114  O     O_R   0.146180 0.585450 0.522910 -0.594255
O115  O     O_R   0.414550 0.146180 0.522910 -0.610595
O116  O     O_R   0.853820 0.414550 0.522910 -0.599162
O117  O     O_R   0.414550 0.853820 0.522910 -0.638719
O118  O     O_R   0.060740 0.500000 0.912560 -0.616542
O119  O     O_R   0.853820 0.585450 0.522910 -0.687418
O120  O     O_R   0.585450 0.146180 0.522910 -0.650567
O121  O     O_R   0.146180 0.414550 0.522910 -0.621049
O122  O     O_3   0.117836 0.780669 0.037268 -0.647387
O123  O     O_3   0.250033 0.144427 0.058511 -0.617929
O124  O     O_3   0.880652 0.221242 0.039560 -0.651017
O125  O     O_3   0.742297 0.842290 0.063472 -0.610222
O126  O     O_3   0.877507 0.778375 0.040107 -0.623884
O127  O     O_3   0.781034 0.108627 0.028767 -0.627910
O128  O     O_3   0.124900 0.225624 0.043147 -0.627533
O129  O     O_R   0.500000 0.060740 0.912560 -0.623693
O130  O     O_3   0.219653 0.890260 0.029250 -0.609524
O131  O     O_3   0.622210 0.274258 0.544061 -0.657895
O132  O     O_3   0.802906 0.709582 0.574907 -0.613596
O133  O     O_3   0.377730 0.726841 0.543289 -0.636302
O134  O     O_3   0.263654 0.370295 0.550189 -0.627484
O135  O     O_3   0.377696 0.275398 0.542441 -0.625045
O136  O     O_3   0.280562 0.611515 0.533082 -0.616845
O137  O     O_3   0.663139 0.771111 0.567661 -0.588359
O138  O     O_3   0.729992 0.380780 0.543840 -0.616597
O139  O     O_2   0.429490 0.679080 0.903270 -0.554837
O140  O     O_R   0.939260 0.500000 0.912560 -0.619343
O141  O     O_R   0.364696 0.783530 0.910061 -0.790147
O142  O     O_2   0.143428 0.326431 0.887259 -0.599431
O143  O     O_R   0.149054 0.215727 0.916148 -0.836509
O144  O     O_2   0.571750 0.320879 0.902409 -0.555951
O145  O     O_R   0.634707 0.215327 0.909327 -0.790577
O146  O     O_2   0.857640 0.680070 0.886432 -0.600296
O147  O     O_R   0.849852 0.789290 0.916977 -0.825906
O148  O     O_2   0.712478 0.823473 0.870503 -0.525100
O149  O     O_R   0.706458 0.889423 0.926285 -0.846451
O150  O     O_2   0.684870 0.430234 0.901931 -0.549582
O151  O     O_R   0.500000 0.939260 0.912560 -0.628298
O152  O     O_R   0.786815 0.362716 0.909300 -0.776097
O153  O     O_2   0.280593 0.180684 0.870423 -0.521315
O154  O     O_R   0.300387 0.111500 0.924056 -0.844056
O155  O     O_2   0.316978 0.569669 0.902538 -0.554775
O156  O     O_R   0.214251 0.635890 0.910050 -0.777935
O157  O     O_2   0.920598 0.185123 0.397075 -0.554613
O158  O     O_R   0.858451 0.290541 0.406515 -0.780258
O159  O     O_2   0.627200 0.797429 0.387838 -0.585222
O160  O     O_R   0.627895 0.708637 0.433853 -0.834491
O161  O     O_2   0.070411 0.811431 0.400284 -0.530540
O162  O     O_R   0.560740 0.000000 0.412560 -0.624101
O163  O     O_R   0.142141 0.711588 0.406830 -0.784098
O164  O     O_2   0.356901 0.176822 0.387520 -0.590763
O165  O     O_R   0.351773 0.284815 0.419480 -0.824969
O166  O     O_2   0.212403 0.321734 0.370950 -0.555446
O167  O     O_R   0.215148 0.386738 0.427099 -0.834018
O168  O     O_2   0.182648 0.926148 0.399489 -0.547495
O169  O     O_R   0.288069 0.864777 0.407905 -0.769914
O170  O     O_2   0.756423 0.653270 0.376472 -0.553960
O171  O     O_R   0.775431 0.597104 0.434476 -0.835321
O172  O     O_2   0.803560 0.074409 0.396844 -0.524359
Zn1   Zn    Zn3+2 0.000000 0.586730 0.032740 1.018764
Zn2   Zn    Zn3+2 0.500000 0.913250 0.967240 1.033712
Zn3   Zn    Zn3+2 0.086750 0.500000 0.967240 1.036644
Zn4   Zn    Zn3+2 0.500000 0.086750 0.967240 1.031216
Zn5   Zn    Zn3+2 0.413250 0.000000 0.467240 1.040125
Zn6   Zn    Zn3+2 1.000000 0.413250 0.467240 1.041591
Zn7   Zn    Zn3+2 0.586750 0.000000 0.467240 1.037656
Zn8   Zn    Zn3+2 0.000000 0.586750 0.467240 1.031515
Zn9   Zn    Zn3+2 0.413270 0.000000 0.032740 1.037978
Zn10  Zn    Zn3+2 0.000000 0.413270 0.032740 1.020618
Zn11  Zn    Zn3+2 0.586730 0.000000 0.032740 1.017050
Zn12  Zn    Zn3+2 0.500000 0.086730 0.532740 1.002045
Zn13  Zn    Zn3+2 0.913270 0.500000 0.532740 1.002371
Zn14  Zn    Zn3+2 0.500000 0.913270 0.532740 1.008686
Zn15  Zn    Zn3+2 0.086730 0.500000 0.532740 1.026324
Zn16  Zn    Zn3+2 0.913250 0.500000 0.967240 1.036374

loop_
_geom_bond_atom_site_label_1
_geom_bond_atom_site_label_2
_ccdc_geom_bond_type
C83   H177  S    
C187  O70   D    
C188  O72   D    
C157  C158  S    
H59   O36   S    
C198  C206  A    
C45   C148  S    
C8    C26   A    
C96   H207  S    
C230  O83   A    
C94   H204  S    
C16   C269  A    
C187  O71   S    
H54   O27   S    
C89   H191  S    
C161  H74   S    
O83   Zn13  S    
C51   H159  S    
C86   H185  S    
C119  O149  S    
C133  O7    S    
C131  O172  D    
C84   H180  S    
C78   H167  S    
C164  H83   S    
C259  C263  A    
C2    C55   A    
O68   Zn11  S    
C236  O112  A    
C148  O34   D    
C181  H122  S    
C238  O110  A    
C70   H145  S    
C221  C225  A    
C189  O75   S    
C137  O12   D    
C237  O109  A    
C108  C109  S    
C172  H100  S    
C121  O153  D    
C97   O134  S    
C49   H112  S    
C110  C111  S    
C174  H106  S    
C182  H126  S    
C124  C168  A    
C141  O21   D    
C179  O58   S    
C64   H68   S    
C39   C141  S    
C62   H24   S    
C203  C210  A    
C130  O171  S    
C168  C200  A    
C108  H12   S    
C247  O119  A    
C142  O23   D    
C145  O31   S    
C235  C266  S    
C45   C130  S    
C163  H80   S    
C17   O126  S    
C101  C240  A    
O101  Zn6   S    
H37   O163  S    
O95   Zn5   S    
C180  H120  S    
C224  C228  S    
O110  Zn9   S    
C104  C105  S    
C184  H129  S    
H138  O77   S    
C189  C217  S    
C143  O27   S    
C30   C115  S    
C80   H168  S    
C187  C215  S    
C57   C209  A    
C57   C262  A    
C234  C271  S    
C234  O105  A    
C257  C265  A    
C26   O135  S    
C103  H223  S    
C15   C268  A    
C71   H149  S    
C65   H101  S    
C28   O137  S    
C90   C151  S    
C100  H219  S    
C183  H128  S    
C19   O128  S    
C21   C29   A    
C171  H97   S    
H34   O158  S    
C47   C131  S    
C6    C259  A    
C178  H117  S    
O35   Zn1   S    
H133  O69   S    
C183  C184  S    
C43   C145  S    
C140  O19   D    
C93   H199  S    
C175  H109  S    
C177  H114  S    
C128  O167  S    
C175  C176  S    
O140  Zn16  S    
C253  C270  A    
C208  C212  A    
C12   C20   A    
C184  H131  S    
C39   C265  S    
C119  O148  D    
C113  C199  A    
O112  Zn11  S    
O117  Zn14  S    
H43   O5    S    
C100  O135  S    
C18   O127  S    
C207  O24   A    
C166  H87   S    
C243  O114  A    
C37   C121  S    
O94   Zn4   S    
C249  C255  A    
C46   C229  A    
C159  H71   S    
C194  C203  A    
C139  O18   S    
C94   H202  S    
C39   C47   S    
C193  O82   S    
C161  H76   S    
H58   O33   S    
O1    Zn1   S    
O116  Zn13  S    
C14   C19   A    
C6    C246  S    
C258  C264  A    
C200  C209  A    
C72   C73   S    
C7    C25   A    
O118  Zn3   S    
C23   O133  S    
H140  O82   S    
C148  O36   S    
C41   C143  S    
C186  O67   D    
H60   O38   S    
C81   H172  S    
C54   H192  S    
C137  O14   S    
C115  O141  S    
C152  O43   D    
C172  H102  S    
C66   H113  S    
C73   H154  S    
C227  O68   A    
C244  O100  A    
O24   Zn6   S    
C127  O165  S    
C129  O169  S    
C232  O88   A    
C144  O28   D    
C125  O159  D    
O93   Zn16  S    
C87   H187  S    
C33   C34   S    
C120  O150  D    
C149  O38   S    
H42   O3    S    
C12   C266  A    
C201  C214  A    
C175  O62   S    
C108  H14   S    
C196  O162  A    
C88   C89   S    
C158  O54   D    
C98   C99   S    
C151  O42   S    
C63   H57   S    
C176  H110  S    
C162  H78   S    
C252  C253  A    
C93   H200  S    
C15   C18   A    
O99   Zn8   S    
H49   O16   S    
O79   Zn12  S    
H134  O71   S    
H53   O25   S    
C63   H46   S    
O97   Zn6   S    
C32   C117  S    
C21   O131  S    
C68   C210  A    
C25   O134  S    
O85   Zn4   S    
C97   C98   S    
C45   C258  S    
C238  O94   A    
C85   C86   S    
C91   O132  S    
C176  H111  S    
C165  H85   S    
C30   C38   S    
C138  O16   S    
C32   C36   S    
C194  O60   S    
C97   H211  S    
C122  O155  D    
H29   O147  S    
O1    Zn16  S    
C2    C68   A    
C230  O86   A    
C94   O133  S    
C223  C227  S    
C252  C269  A    
C13   C57   A    
C170  C171  S    
C73   H153  S    
H69   O55   S    
C254  C271  A    
O1    Zn10  S    
C79   C195  A    
C77   O127  S    
C164  H82   S    
C182  C183  S    
O105  Zn11  S    
H40   O169  S    
C116  O143  S    
C114  H25   S    
C61   H2    S    
H39   O167  S    
C140  O20   S    
C198  O63   S    
C104  H4    S    
H32   O154  S    
C127  O164  D    
C96   H209  S    
C242  O98   A    
C144  O29   S    
C241  O97   A    
C33   C118  S    
C131  O3    S    
O1    Zn3   S    
C105  H6    S    
C109  H16   S    
C69   C70   S    
O84   Zn14  S    
C42   C261  S    
C43   C260  S    
C53   C60   A    
C200  C213  A    
C67   H142  S    
C235  O111  A    
C255  C272  A    
C169  O60   S    
C115  O139  D    
O90   Zn4   S    
C160  H72   S    
C91   C92   S    
C159  H70   S    
C170  H96   S    
C24   C157  A    
C190  C202  A    
H132  O66   S    
C134  O9    S    
C25   C26   A    
C50   C56   A    
O113  Zn14  S    
C86   H184  S    
C120  O152  S    
C15   O124  S    
C102  H220  S    
C118  O146  D    
C185  O65   D    
C100  H218  S    
C38   C248  S    
C29   O138  S    
C173  H103  S    
C99   H216  S    
C90   C229  A    
C169  H93   S    
C61   O122  S    
O114  Zn15  S    
C128  O166  D    
C184  H130  S    
C167  H92   S    
C11   C241  S    
C30   C256  S    
C132  O5    S    
C107  H10   S    
C107  O137  S    
C84   H179  S    
C9    C243  S    
C182  H125  S    
C14   C267  A    
C59   C207  S    
C180  H119  S    
C150  O39   D    
C14   O123  S    
H64   O47   S    
C260  C261  A    
C96   H208  S    
C74   O126  S    
C192  O78   D    
C80   H169  S    
C136  O11   S    
C154  O48   D    
C73   H155  S    
C7    C245  S    
C74   H156  S    
C2    C135  A    
C113  C251  A    
C31   C255  S    
C133  O6    D    
C239  O115  A    
C249  C267  A    
O106  Zn1   S    
C1    O140  A    
C250  C268  A    
C71   C72   S    
C164  H84   S    
C82   H174  S    
C32   C134  S    
C181  H121  S    
C40   C125  S    
C70   H146  S    
C123  O158  S    
C193  C221  S    
C199  C208  A    
C185  C213  S    
C227  O46   A    
H38   O165  S    
C98   H212  S    
C102  C103  S    
C117  O144  D    
O85   Zn9   S    
O96   Zn5   S    
C77   H164  S    
C36   C250  S    
C214  C223  A    
C231  O106  A    
C50   H148  S    
C114  H23   S    
C74   H157  S    
C76   H161  S    
C32   C254  S    
O119  Zn13  S    
O87   Zn16  S    
C178  O63   S    
C116  O142  D    
C106  H7    S    
C202  C209  A    
C8    C261  A    
H65   O49   S    
C4    C244  S    
C145  O30   D    
C250  C254  A    
C87   C88   S    
C147  O32   D    
C111  H21   S    
C46   C251  A    
C51   C229  A    
C98   H213  S    
C201  C210  A    
C197  C205  A    
O96   Zn14  S    
C110  H19   S    
C69   H144  S    
C233  C272  S    
H52   O22   S    
C61   H214  S    
C188  C216  S    
C92   H197  S    
C246  O102  A    
C90   C197  A    
C109  H17   S    
C77   C78   S    
C245  O101  A    
C156  O52   D    
C162  C163  S    
C195  O61   S    
C124  C154  S    
C155  O50   D    
C185  O66   S    
C40   C264  S    
C72   H151  S    
C183  H127  S    
C246  O117  A    
O91   Zn3   S    
C138  O15   D    
C231  C270  S    
C65   H90   S    
C44   C147  S    
C39   C123  S    
C178  H118  S    
C3    C256  A    
H62   O42   S    
H137  O75   S    
C48   C240  A    
C75   H160  S    
C226  O57   A    
O108  Zn9   S    
C126  O161  D    
C205  C219  A    
O98   Zn7   S    
C179  C201  A    
C64   H79   S    
C88   H190  S    
C91   H196  S    
H56   O31   S    
C70   H147  S    
C89   H194  S    
C202  C215  A    
C117  O145  S    
C154  O49   S    
H48   O14   S    
C54   C59   A    
C4    C257  A    
C31   C133  S    
C53   H181  S    
C83   H178  S    
C22   O132  S    
C66   H135  S    
C22   C28   A    
C55   C60   A    
C242  O113  A    
C7    C260  A    
C139  O17   D    
C112  O129  A    
C192  O80   S    
C80   H171  S    
C193  O81   D    
C161  H75   S    
C171  H98   S    
C40   C45   S    
C157  C194  A    
C85   H182  S    
C63   H35   S    
C84   C85   S    
H33   O156  S    
C166  H88   S    
C195  C204  A    
C205  C212  A    
C206  C220  A    
C44   C129  S    
C27   O136  S    
C111  H20   S    
C152  O44   S    
C121  O154  S    
C237  O93   A    
O86   Zn15  S    
O85   Zn11  S    
C174  H105  S    
C62   C63   S    
H31   O152  S    
C13   C52   A    
C141  O22   S    
C203  C216  A    
C77   H165  S    
C159  C160  S    
C81   O128  S    
C126  O163  S    
C76   H163  S    
O92   Zn2   S    
C3    C20   A    
C130  O170  D    
C51   C58   A    
C38   C122  S    
C156  O53   S    
C79   C150  S    
C158  O55   S    
C114  H22   S    
C151  O41   D    
C42   C144  S    
C99   H217  S    
C41   C44   S    
O107  Zn8   S    
C197  O62   S    
C112  O151  A    
C243  O99   A    
C215  C222  A    
C199  O64   S    
C9    C27   A    
C64   O123  S    
C93   H201  S    
O115  Zn12  S    
C10   C28   A    
C34   C119  S    
C86   H186  S    
C232  O108  A    
O121  Zn15  S    
C41   C126  S    
C132  O4    D    
C107  H11   S    
C35   C240  A    
C103  H224  S    
C71   H150  S    
C43   C128  S    
C178  C180  S    
C19   C272  A    
C149  O37   D    
C105  C106  S    
C101  C152  S    
C160  H73   S    
C162  O58   S    
C188  O73   S    
O107  Zn15  S    
C64   C65   S    
C97   H210  S    
H63   O44   S    
C216  C223  A    
C122  O156  S    
C181  H123  S    
C75   H158  S    
C12   O122  S    
C177  H115  S    
C33   C136  S    
C136  O10   D    
C52   H170  S    
C47   C257  S    
C71   O125  S    
C204  C211  A    
C134  O8    D    
C92   C93   S    
C177  H116  S    
C111  C114  S    
C78   C80   S    
C94   C95   S    
C36   C120  S    
O13   Zn5   S    
H66   O51   S    
C24   C68   A    
C49   C251  A    
C31   C37   S    
C83   H176  S    
C248  C266  A    
C159  O56   S    
C82   C83   S    
C226  O35   A    
H27   O143  S    
C241  O116  A    
H28   O145  S    
C191  O77   S    
C36   C138  S    
C196  O13   A    
O96   Zn12  S    
C180  C181  S    
C17   C270  A    
C78   H166  S    
H47   O11   S    
C247  O103  A    
C165  C166  S    
C40   C142  S    
C234  O90   A    
C105  H5    S    
C169  C170  S    
C231  O87   A    
C233  O89   A    
C163  C164  S    
C10   C242  S    
C245  O121  A    
C75   C76   S    
C81   C82   S    
C135  C155  S    
C67   H141  S    
C173  C174  S    
C81   H173  S    
C175  H108  S    
C147  O33   S    
C237  C268  S    
H61   O40   S    
C238  C267  S    
C153  O45   D    
C30   C132  S    
C67   O124  S    
C228  O79   A    
C16   C17   A    
H139  O80   S    
C222  C226  S    
C125  O160  S    
C186  C214  S    
C87   H188  S    
O88   Zn2   S    
C213  C222  A    
C35   C211  A    
C189  O74   D    
C225  C230  S    
C236  C269  S    
C118  O147  S    
C155  O51   S    
C163  H81   S    
C206  C211  A    
C5    C22   A    
C47   C149  S    
C102  H221  S    
C165  O59   S    
C99   H215  S    
C142  O25   S    
O107  Zn6   S    
C23   C27   A    
C88   H189  S    
O2    Zn8   S    
H51   O20   S    
C162  H77   S    
H55   O29   S    
C143  O26   D    
C48   H1    S    
C217  C224  A    
O103  Zn8   S    
C110  H18   S    
O151  Zn2   S    
C244  O120  A    
H30   O149  S    
C167  H91   S    
C61   C62   S    
C13   C146  A    
C5    C247  S    
C103  H222  S    
C18   C271  A    
C69   H143  S    
C16   O125  S    
C165  H86   S    
C174  H107  S    
C150  O40   S    
C89   H193  S    
C74   C75   S    
O107  Zn13  S    
C54   C262  A    
C41   C263  S    
C66   H124  S    
C172  O61   S    
C129  O168  D    
C191  O76   D    
C191  C219  S    
C101  C198  A    
C79   C218  A    
C171  H99   S    
C208  C221  A    
C50   C218  A    
C49   C58   A    
H136  O73   S    
C67   C69   S    
C235  O91   A    
C52   C59   A    
C82   H175  S    
O120  Zn12  S    
C124  C262  A    
C107  C108  S    
O57   Zn10  S    
C123  O157  D    
C100  C102  S    
O85   Zn2   S    
C11   C265  A    
C95   H206  S    
O102  Zn5   S    
H36   O160  S    
C219  C225  A    
C190  O59   S    
H41   O171  S    
C104  H3    S    
C95   H205  S    
O100  Zn7   S    
C42   C127  S    
C91   H195  S    
C176  C177  S    
O109  Zn10  S    
C76   H162  S    
C186  O69   S    
C37   C139  S    
C166  C167  S    
C207  O2    A    
C106  H8    S    
C192  C220  S    
C35   C218  A    
C239  O95   A    
C31   C116  S    
C220  C224  A    
C172  C173  S    
C60   C196  S    
C8    C239  S    
C182  O64   S    
C48   C56   A    
C84   O130  S    
H26   O141  S    
O111  Zn1   S    
C87   O131  S    
O46   Zn9   S    
C113  C153  S    
H50   O18   S    
C3    C232  S    
C153  O47   S    
C55   H203  S    
C170  H95   S    
C248  C256  A    
C92   H198  S    
H67   O53   S    
C24   C53   A    
O162  Zn7   S    
O89   Zn3   S    
C34   C137  S    
C204  C217  A    
C106  H9    S    
C160  C161  S    
C33   C253  S    
C62   H13   S    
C135  C179  A    
C236  O92   A    
C233  O104  A    
C1    C58   S    
C110  O138  S    
C44   C259  S    
C20   O130  S    
C4    C21   A    
C72   H152  S    
C37   C249  S    
C46   C212  A    
C6    C23   A    
C9    C263  A    
C173  H104  S    
C5    C258  A    
C10   C264  A    
C169  H94   S    
C228  O84   A    
O129  Zn4   S    
C85   H183  S    
C168  O56   S    
C109  H15   S    
O104  Zn10  S    
C146  C156  S    
C11   C29   A    
H44   O7    S    
H45   O9    S    
C65   C66   S    
C42   C43   S    
O96   Zn7   S    
C95   C96   S    
C167  H89   S    
C38   C140  S    
C146  C190  A    
C34   C252  S    
C1    O118  A    
C56   C112  S    
C104  O136  S    
