data_mof_unit_45076.cif
_audit_creation_date              2013-03-05T15:55:45-0500
_audit_creation_method            fapswitch 2.2
_symmetry_space_group_name_H-M    P1
_symmetry_Int_Tables_number       1
_space_group_crystal_system       triclinic
_cell_length_a                    10.61617
_cell_length_b                    12.323622
_cell_length_c                    13.142757
_cell_angle_alpha                 116.497951
_cell_angle_beta                  77.854122
_cell_angle_gamma                 101.134265
_cell_volume                      1494.67889169

loop_
_atom_site_label
_atom_site_type_symbol
_atom_site_description
_atom_site_fract_x
_atom_site_fract_y
_atom_site_fract_z
_atom_type_partial_charge
O1    O     O_R   0.537510 0.972500 0.318130 -0.529124
O2    O     O_R   0.487140 0.806530 0.359650 -0.615022
C1    C     C_R   0.513356 0.854704 0.285804 0.795594
O3    O     O_R   0.708330 0.082950 0.479220 -0.560551
O4    O     O_R   0.657960 0.916980 0.520740 -0.605494
C2    C     C_R   0.740233 0.999477 0.500063 0.844556
Cu1   Cu    Cu3+1 0.529830 0.098270 0.475420 1.010953
Cu2   Cu    Cu3+1 0.470170 0.901730 0.524580 0.943010
O5    O     O_R   0.512860 0.193470 0.640350 -0.573838
O6    O     O_R   0.462490 0.027500 0.681870 -0.584884
O7    O     O_R   0.342040 0.083020 0.479260 -0.586740
O8    O     O_R   0.291670 0.917050 0.520780 -0.594415
C3    C     C_R   0.482080 0.144916 0.713600 0.844667
C4    C     C_R   0.259883 0.000127 0.499392 0.801512
C5    C     C_3   0.981428 0.987267 0.396980 -0.211776
C6    C     C_3   0.039895 0.894005 0.417507 -0.137499
H1    H     H_    0.962916 0.976350 0.312674 0.174435
C7    C     C_3   0.123485 0.000683 0.499102 -0.035582
C8    C     C_3   0.067923 0.094090 0.478232 -0.185777
C9    C     C_3   0.962577 0.103027 0.580232 0.350067
C10   C     C_3   0.019779 0.012444 0.603222 -0.206199
C11   C     C_3   0.933436 0.905981 0.521454 -0.172754
C12   C     C_3   0.876788 0.999138 0.500793 -0.088612
H2    H     H_    0.124365 0.172060 0.462118 0.167100
H3    H     H_    0.038019 0.024487 0.687990 0.170091
C13   C     C_R   0.347981 0.272272 0.026938 -0.149814
H4    H     H_    0.341407 0.093237 0.889160 0.171531
H5    H     H_    0.262489 0.456557 0.218287 0.145752
H6    H     H_    0.277874 0.242477 0.084911 0.153056
C14   C     C_R   0.463806 0.226462 0.835965 -0.068881
C15   C     C_R   0.621739 0.808574 0.084134 0.284875
C16   C     C_R   0.686585 0.721390 0.987455 -0.229612
C17   C     C_R   0.658096 0.597541 0.962560 0.219363
C18   C     C_R   0.545603 0.557450 0.023242 -0.034254
C19   C     C_R   0.484795 0.645483 0.125948 0.014045
C20   C     C_R   0.491098 0.433277 0.985708 0.104386
C21   C     C_R   0.395663 0.395852 0.060505 0.148210
C22   C     C_R   0.340940 0.483107 0.163305 -0.213002
C23   C     C_R   0.378211 0.606112 0.191161 -0.121267
C24   C     C_R   0.517699 0.348086 0.871636 -0.126597
C25   C     C_R   0.383823 0.187344 0.915401 -0.156785
C26   C     C_R   0.532503 0.770940 0.162000 -0.210512
H7    H     H_    0.573254 0.377112 0.807480 0.192779
H8    H     H_    0.321217 0.669871 0.264055 0.160790
C27   C     C_R   0.707639 0.347876 0.329956 -0.257792
H9    H     H_    0.749181 0.548145 0.296409 0.166698
H10   H     H_    0.788679 0.347715 0.264109 0.161528
N1    N     N_R   0.575030 0.246270 0.438190 -0.192901
C28   C     C_R   0.323816 0.759318 0.644610 -0.008331
C29   C     C_R   0.283697 0.662279 0.676570 0.275124
C30   C     C_R   0.350888 0.558717 0.620910 -0.266961
C31   C     C_R   0.457274 0.551262 0.534147 -0.059421
C32   C     C_R   0.493469 0.653131 0.505416 0.276921
C33   C     C_R   0.529243 0.446960 0.475022 -0.001436
C34   C     C_R   0.634995 0.447371 0.388889 0.156362
C35   C     C_R   0.668324 0.547233 0.362165 -0.260783
C36   C     C_R   0.599568 0.647674 0.419229 -0.158559
C37   C     C_R   0.501839 0.341514 0.497182 0.035863
C38   C     C_R   0.676054 0.247807 0.356314 0.160421
N2    N     N_R   0.425760 0.754330 0.561190 -0.232268
H11   H     H_    0.423267 0.332863 0.560849 0.128763
H12   H     H_    0.273533 0.839996 0.686476 0.170427
H13   H     H_    0.318272 0.485235 0.646765 0.185826
H14   H     H_    0.633856 0.719263 0.392604 0.202824
H15   H     H_    0.075507 0.807675 0.350126 0.145444
N3    N     N_R   0.653386 0.934738 0.105048 0.131780
O9    O     O_R   0.772810 0.977252 0.082423 -0.369048
O10   O     O_R   0.560951 0.000273 0.124853 -0.337225
N4    N     N_R   0.753246 0.517545 0.887489 0.145106
O11   O     O_R   0.788254 0.442189 0.918171 -0.270996
O12   O     O_R   0.820044 0.533669 0.799192 -0.270365
H16   H     H_    0.765795 0.751015 0.935243 0.233606
H17   H     H_    0.732095 0.170986 0.311542 0.162834
N5    N     N_R   0.175122 0.668929 0.765142 0.143585
O13   O     O_R   0.110901 0.763679 0.814690 -0.348471
O14   O     O_R   0.139425 0.580455 0.797254 -0.268156
N6    N     N_R   0.922730 0.218326 0.670381 0.143062
O15   O     O_R   0.007900 0.299898 0.730307 -0.277057
O16   O     O_R   0.802459 0.239695 0.692938 -0.319923
H18   H     H_    0.876397 0.828797 0.538554 0.175743

loop_
_geom_bond_atom_site_label_1
_geom_bond_atom_site_label_2
_geom_bond_distance
_ccdc_geom_bond_type
C15   N3    1.435822 S    
N3    O10   1.301537 A    
C34   C35   1.388642 A    
C1    C26   1.482402 S    
C15   C26   1.416235 A    
C7    C10   1.535044 S    
C4    C7    1.450176 S    
C8    C9    1.531313 S    
Cu1   Cu2   2.704961 S    
C16   H16   1.083267 S    
N6    O15   1.300203 A    
Cu1   O7    1.958003 S    
C28   N2    1.357694 A    
N5    O14   1.301631 A    
C9    N6    1.456248 S    
N1    C38   1.353964 A    
C20   C21   1.417933 A    
C7    C8    1.536333 S    
C29   N5    1.441224 S    
C22   C23   1.386557 A    
O7    C4    1.293920 A    
C5    C6    1.549733 S    
C35   C36   1.384788 A    
Cu1   O5    1.937922 S    
C18   C19   1.418746 A    
C27   H10   1.083944 S    
N4    O12   1.301570 A    
C19   C26   1.419948 A    
O5    C3    1.302972 A    
C5    C8    1.551733 S    
C24   H7    1.079426 S    
C14   C25   1.400477 A    
C38   H17   1.081478 S    
C17   N4    1.436308 S    
C37   H11   1.076499 S    
C5    C12   1.537491 S    
N3    O9    1.301593 A    
C10   C11   1.551887 S    
O3    Cu1   1.953336 S    
C32   N2    1.384963 A    
C31   C33   1.441515 A    
C29   C30   1.404177 A    
N6    O16   1.299390 A    
N5    O13   1.301716 A    
C30   C31   1.410299 A    
C3    C14   1.461430 S    
C20   C24   1.400518 A    
C30   H13   1.076752 S    
O3    C2    1.293448 A    
C32   C36   1.407374 A    
O1    C1    1.305884 A    
C19   C23   1.414660 A    
C21   C22   1.390602 A    
H4    C25   1.083259 S    
C15   C16   1.393616 A    
C9    C12   1.521734 S    
H5    C22   1.084131 S    
Cu2   O8    1.953338 S    
C17   C18   1.424539 A    
C14   C24   1.395822 A    
Cu2   O6    1.949657 S    
O8    C4    1.292766 A    
C31   C32   1.428946 A    
C36   H14   1.063543 S    
C33   C37   1.419203 A    
C5    H1    1.110315 S    
C10   H3    1.110344 S    
C33   C34   1.417759 A    
C27   C38   1.387763 A    
C6    C11   1.549276 S    
C28   H12   1.081414 S    
O1    Cu1   1.949658 S    
O2    Cu2   1.937922 S    
O6    C3    1.301059 A    
O4    Cu2   1.958002 S    
C13   C21   1.402478 A    
N1    C37   1.367201 A    
C23   H8    1.081330 S    
Cu1   N1    2.038581 S    
O2    C1    1.307115 A    
C11   H18   1.110386 S    
C16   C17   1.394904 A    
O4    C2    1.293840 A    
C2    C12   1.452567 S    
C8    H2    1.110396 S    
C18   C20   1.422810 A    
N4    O11   1.301420 A    
C9    C10   1.531742 S    
C27   C34   1.401601 A    
C13   H6    1.083868 S    
C6    C7    1.535475 S    
C28   C29   1.401487 A    
H9    C35   1.084710 S    
C11   C12   1.538473 S    
C6    H15   1.110307 S    
Cu2   N2    2.026614 S    
C13   C25   1.392518 A    
