data_mof_unit_22427.cif
_audit_creation_date              2013-03-05T15:43:42-0500
_audit_creation_method            fapswitch 2.2
_symmetry_space_group_name_H-M    P1
_symmetry_Int_Tables_number       1
_space_group_crystal_system       triclinic
_cell_length_a                    14.380259
_cell_length_b                    14.406922
_cell_length_c                    26.941151
_cell_angle_alpha                 88.902302
_cell_angle_beta                  89.833394
_cell_angle_gamma                 120.874984
_cell_volume                      4789.16789069

loop_
_atom_site_label
_atom_site_type_symbol
_atom_site_description
_atom_site_fract_x
_atom_site_fract_y
_atom_site_fract_z
_atom_type_partial_charge
O1    O     O_R   0.137150 0.468200 0.553200 -0.472081
O2    O     O_R   0.531800 0.668950 0.553200 -0.455575
O3    O     O_R   0.331050 0.862850 0.553200 -0.476032
O4    O     O_R   0.173970 0.688730 0.549930 -0.503351
O5    O     O_R   0.311270 0.485240 0.549930 -0.511104
O6    O     O_R   0.514760 0.826030 0.549930 -0.485209
C1    C     C_R   0.238901 0.780524 0.571073 0.533128
C2    C     C_R   0.213433 0.449491 0.569683 0.522128
C3    C     C_R   0.508450 0.739947 0.574172 0.516153
O7    O     O_R   0.140110 0.470540 0.446010 -0.471260
O8    O     O_R   0.529460 0.669570 0.446010 -0.463063
O9    O     O_R   0.330430 0.859890 0.446010 -0.470213
O10   O     O_R   0.176710 0.690910 0.450560 -0.425356
O11   O     O_R   0.309090 0.485800 0.450560 -0.424499
O12   O     O_R   0.514200 0.823290 0.450560 -0.423755
C4    C     C_R   0.232405 0.789907 0.432795 0.558205
C5    C     C_R   0.210898 0.443950 0.432609 0.552268
C6    C     C_R   0.557254 0.768803 0.432679 0.560032
Cr1   Cr    Cr6+3 0.164410 0.584450 0.499910 1.158611
Cr2   Cr    Cr6+3 0.415550 0.579960 0.499910 1.155725
Cr3   Cr    Cr6+3 0.420040 0.835590 0.499910 1.163226
O13   O     O_3   0.333333 0.666667 0.499990 -0.377084
C7    C     C_3   0.554979 0.843739 0.758128 0.258994
C8    C     C_3   0.111946 0.663377 0.751312 0.277548
C9    C     C_3   0.292295 0.467621 0.741875 0.246780
C10   C     C_3   0.724660 0.931285 0.706323 0.366841
C11   C     C_3   0.110358 0.829526 0.721737 0.368398
C12   C     C_3   0.200618 0.264699 0.733958 0.377461
C13   C     C_3   0.799139 0.953492 0.752727 0.447127
C14   C     C_3   0.120619 0.871455 0.775903 0.408756
C15   C     C_3   0.189631 0.250023 0.792895 0.384817
H1    H     H_    0.527739 0.898849 0.744774 0.221794
H2    H     H_    0.038093 0.600803 0.732714 0.207348
H3    H     H_    0.368014 0.480732 0.724667 0.217190
C16   C     C_1   0.813576 0.907737 0.891298 0.065667
C17   C     C_1   0.133339 0.862267 0.904774 0.072810
C18   C     C_1   0.155194 0.293005 0.912037 0.063941
C19   C     C_3   0.616517 0.822986 0.715896 -0.102943
C20   C     C_3   0.175373 0.771718 0.718997 -0.092432
C21   C     C_3   0.193482 0.365745 0.717858 -0.120529
C22   C     C_3   0.630516 0.896170 0.803949 0.427401
C23   C     C_3   0.082444 0.688988 0.803833 0.468479
C24   C     C_3   0.296678 0.450357 0.799449 0.542324
C25   C     C_3   0.729532 0.878436 0.799375 -0.131217
C26   C     C_3   0.159166 0.812961 0.812677 -0.112158
C27   C     C_3   0.188439 0.347084 0.816266 -0.135350
C28   C     C_3   0.680724 0.755180 0.788493 0.392100
C29   C     C_3   0.279172 0.843869 0.799750 0.379794
C30   C     C_3   0.090355 0.356452 0.796032 0.387248
C31   C     C_3   0.639724 0.733185 0.734519 0.708891
C32   C     C_3   0.289539 0.840602 0.742051 0.705498
C33   C     C_3   0.084953 0.349311 0.738744 0.758343
C34   C     C_1   0.784742 0.901547 0.848373 0.097772
C35   C     C_1   0.147901 0.839806 0.863924 0.081635
C36   C     C_1   0.178639 0.329593 0.870495 0.075838
C37   C     C_1   0.561085 0.787241 0.667927 0.190438
C38   C     C_1   0.192763 0.763949 0.665987 0.151447
C39   C     C_1   0.195425 0.381342 0.663039 0.138226
C40   C     C_1   0.533715 0.761814 0.625679 0.120341
C41   C     C_1   0.213943 0.775280 0.622404 0.124251
C42   C     C_1   0.199104 0.404742 0.619377 0.104641
O14   O     O_R   0.176750 0.985260 0.074180 -0.477857
O15   O     O_R   0.014740 0.191490 0.074180 -0.479976
O16   O     O_R   0.808510 0.823250 0.074180 -0.478183
O17   O     O_R   0.146100 0.172630 0.068980 -0.490936
O18   O     O_R   0.827370 0.973470 0.068980 -0.480171
O19   O     O_R   0.026530 0.853900 0.068980 -0.487776
C43   C     C_R   0.106750 0.221783 0.087598 0.555838
C44   C     C_R   0.775407 0.882080 0.086681 0.577912
C45   C     C_R   0.115640 0.892156 0.087248 0.564029
Cr4   Cr    Cr6+3 0.155170 0.075460 0.019960 1.117125
Cr5   Cr    Cr6+3 0.924540 0.079710 0.019960 1.115879
Cr6   Cr    Cr6+3 0.920290 0.844830 0.019960 1.113267
C46   C     C_R   0.112576 0.229171 0.956298 0.548572
C47   C     C_R   0.841266 0.911362 0.943402 0.551967
C48   C     C_R   0.113442 0.894991 0.951206 0.558520
O20   O     O_3   0.000000 0.000000 0.020040 -0.296442
O21   O     O_R   0.148270 0.170520 0.969620 -0.486180
O22   O     O_R   0.829480 0.977750 0.969620 -0.476790
O23   O     O_R   0.022250 0.851730 0.969620 -0.512286
C49   C     C_R   0.634700 0.903742 0.362821 0.386866
C50   C     C_R   0.096079 0.736267 0.366118 0.388860
C51   C     C_R   0.267322 0.368185 0.364137 0.387149
C52   C     C_R   0.658834 0.918382 0.311931 -0.042609
C53   C     C_R   0.080339 0.744427 0.315376 -0.041378
C54   C     C_R   0.257655 0.341737 0.313917 -0.039722
C55   C     C_R   0.681780 0.932005 0.207330 -0.049371
C56   C     C_R   0.061711 0.750144 0.210979 -0.049465
C57   C     C_R   0.248212 0.311507 0.210012 -0.048032
C58   C     C_R   0.674263 0.011875 0.233794 0.440768
C59   C     C_R   0.979341 0.665284 0.240502 0.441824
C60   C     C_R   0.334468 0.318446 0.238168 0.435221
C61   C     C_R   0.661502 0.004059 0.285124 0.487997
C62   C     C_R   0.989371 0.662144 0.291710 0.489998
C63   C     C_R   0.339685 0.335063 0.289005 0.483722
C64   C     C_R   0.697297 0.938208 0.155142 0.092101
C65   C     C_R   0.053214 0.757966 0.158814 0.091085
C66   C     C_R   0.239131 0.293272 0.158138 0.090216
C67   C     C_R   0.708743 0.857363 0.132009 -0.038865
C68   C     C_R   0.137112 0.848037 0.132586 -0.038392
C69   C     C_R   0.148884 0.285027 0.133101 -0.036893
C70   C     C_R   0.670258 0.756281 0.366152 0.090178
C71   C     C_R   0.254944 0.917058 0.363374 0.088390
C72   C     C_R   0.084481 0.336870 0.364970 0.088346
C73   C     C_R   0.677933 0.758738 0.314088 -0.063985
C74   C     C_R   0.249753 0.920084 0.311296 -0.066389
C75   C     C_R   0.080182 0.326972 0.313010 -0.063474
C76   C     C_R   0.672219 0.840816 0.286815 -0.170072
C77   C     C_R   0.161383 0.832833 0.287188 -0.170842
C78   C     C_R   0.167494 0.328869 0.287393 -0.168883
C79   C     C_R   0.684509 0.678231 0.288417 0.461030
C80   C     C_R   0.332946 0.004405 0.282502 0.463873
C81   C     C_R   0.993984 0.320472 0.285661 0.457200
C82   C     C_R   0.682812 0.677318 0.236983 0.448732
C83   C     C_R   0.330001 0.001635 0.231112 0.452749
C84   C     C_R   0.995116 0.318170 0.234236 0.446687
C85   C     C_R   0.678617 0.759099 0.209491 -0.045636
C86   C     C_R   0.242221 0.916130 0.206768 -0.043707
C87   C     C_R   0.080942 0.319290 0.208427 -0.042413
C88   C     C_R   0.678881 0.844762 0.234511 -0.129110
C89   C     C_R   0.154418 0.833642 0.234960 -0.129415
C90   C     C_R   0.164965 0.318574 0.235271 -0.128225
C91   C     C_R   0.678687 0.760171 0.157608 0.105496
C92   C     C_R   0.237534 0.912991 0.154983 0.108945
C93   C     C_R   0.083226 0.317533 0.156559 0.110388
C94   C     C_R   0.628961 0.815258 0.388653 -0.022831
C95   C     C_R   0.189785 0.817667 0.388812 -0.025356
C96   C     C_R   0.184817 0.375775 0.388452 -0.024335
O24   O     O_R   0.179100 0.982980 0.967000 -0.487973
O25   O     O_R   0.017020 0.196120 0.967000 -0.503978
O26   O     O_R   0.803880 0.820900 0.967000 -0.471163
F1    F     F_    0.667118 0.005924 0.802947 -0.568687
F2    F     F_    0.975939 0.663042 0.802352 -0.584618
F3    F     F_    0.385369 0.439069 0.808398 -0.510141
F4    F     F_    0.465661 0.746815 0.772215 -0.432880
F5    F     F_    0.176230 0.620424 0.757663 -0.412067
F6    F     F_    0.292230 0.560768 0.730231 -0.451242
I1    I     I_    0.547104 0.846668 0.875856 0.050141
I2    I     I_    0.074318 0.592056 0.868277 0.038648
I3    I     I_    0.330563 0.580792 0.846997 0.274602
I4    I     I_    0.777328 0.685953 0.806696 0.169425
I5    I     I_    0.412078 0.989138 0.831824 0.027147
I6    I     I_    0.932055 0.262329 0.831814 0.103851
I7    I     I_    0.694093 0.060067 0.108661 0.006386
I8    I     I_    0.923876 0.632856 0.116780 0.010613
I9    I     I_    0.363430 0.289328 0.114869 0.005367
F7    F     F_    0.609456 0.970789 0.386373 -0.510919
F8    F     F_    0.023985 0.646320 0.392740 -0.511162
F9    F     F_    0.359303 0.392009 0.388590 -0.511859
F10   F     F_    0.679012 0.099036 0.211291 -0.448444
F11   F     F_    0.887586 0.583656 0.221133 -0.443478
F12   F     F_    0.415648 0.309554 0.217849 -0.453201
F13   F     F_    0.652119 0.081773 0.308410 -0.400919
F14   F     F_    0.908667 0.577384 0.317985 -0.402893
F15   F     F_    0.425958 0.343813 0.313743 -0.410236
I10   I     I_    0.617483 0.614642 0.116002 -0.042776
I11   I     I_    0.380809 0.991656 0.108524 -0.062274
I12   I     I_    0.005140 0.382612 0.111776 -0.069896
F16   F     F_    0.692374 0.598936 0.214743 -0.458861
F17   F     F_    0.411072 0.087721 0.205880 -0.458762
F18   F     F_    0.907172 0.307481 0.210546 -0.464438
F19   F     F_    0.683544 0.594041 0.312297 -0.443121
F20   F     F_    0.422785 0.086477 0.303144 -0.438286
F21   F     F_    0.911498 0.325101 0.307554 -0.448555
I13   I     I_    0.735482 0.680320 0.412249 0.067034
I14   I     I_    0.343735 0.062170 0.405226 0.085173
I15   I     I_    0.939467 0.274374 0.409792 0.066222
F22   F     F_    0.771475 0.923343 0.662511 -0.545903
F23   F     F_    0.150995 0.915525 0.687466 -0.541385
F24   F     F_    0.119206 0.173601 0.711988 -0.517463
I16   I     I_    0.702163 0.066366 0.687502 0.129912
I17   I     I_    0.947816 0.718205 0.693375 0.062109
I18   I     I_    0.350825 0.284285 0.702804 0.077626
F25   F     F_    0.846210 0.060362 0.765368 -0.498215
F26   F     F_    0.023662 0.856344 0.793349 -0.578972
F27   F     F_    0.278065 0.247402 0.811312 -0.536393
I19   I     I_    0.931610 0.942121 0.725581 0.264540
I20   I     I_    0.232248 0.040246 0.774112 0.122450
I21   I     I_    0.053407 0.102486 0.825021 -0.078339
F28   F     F_    0.546415 0.632314 0.733127 -0.497032
F29   F     F_    0.347144 0.792118 0.729739 -0.487083
F30   F     F_    0.065465 0.427071 0.718623 -0.491957
F31   F     F_    0.714774 0.729860 0.703410 -0.555516
F32   F     F_    0.344765 0.943796 0.720814 -0.570215
F33   F     F_    0.999212 0.249965 0.725008 -0.486636
F34   F     F_    0.592923 0.693800 0.820097 -0.526363
F35   F     F_    0.296429 0.766483 0.821142 -0.514100
F36   F     F_    0.111636 0.456921 0.806601 -0.534183

loop_
_geom_bond_atom_site_label_1
_geom_bond_atom_site_label_2
_geom_bond_distance
_ccdc_geom_bond_type
O12   C6    1.320282 A    
C20   C32   1.556702 S    
C18   C46   1.420754 S    
Cr6   O26   2.096982 S    
O8    C6    1.313639 A    
C49   C94   1.404950 A    
C16   C34   1.219045 T    
O1    C2    1.332254 A    
C8    C23   1.579696 S    
C76   C88   1.410171 A    
C14   C26   1.565135 S    
C31   F28   1.383776 S    
C31   F31   1.385207 S    
C51   C96   1.407168 A    
C58   F10   1.353374 S    
C9    C24   1.572782 S    
O6    C3    1.351290 A    
O5    Cr2   1.935068 S    
C74   C80   1.405592 A    
C27   C30   1.581722 S    
C10   F22   1.392518 S    
C23   F2    1.378536 S    
C54   C78   1.410611 A    
C33   F30   1.388251 S    
Cr5   O22   1.972807 S    
C53   C77   1.411209 A    
C9    C21   1.578999 S    
C12   I18   2.191943 S    
C87   C90   1.414439 A    
O18   C44   1.217972 A    
C64   I7    2.156763 S    
C57   C90   1.424622 A    
C12   C21   1.564390 S    
O7    C5    1.310227 A    
C20   C38   1.465423 S    
C64   C67   1.412827 A    
C8    C20   1.583772 S    
O14   C45   1.210674 A    
C70   C73   1.405020 A    
C48   O24   1.214113 A    
C75   C81   1.406038 A    
C17   C48   1.424044 S    
C52   C76   1.411615 A    
O4    Cr1   1.989636 S    
C25   C34   1.495109 S    
C29   C32   1.565099 S    
O18   Cr5   1.938074 S    
C28   F34   1.385669 S    
O9    C4    1.299370 A    
C11   C20   1.540860 S    
C72   I15   2.152714 S    
C49   F7    1.359954 S    
C15   C27   1.552541 S    
C27   C36   1.471793 S    
C60   F12   1.353257 S    
C69   C93   1.404252 A    
O16   Cr6   2.066470 S    
O19   Cr6   1.977045 S    
Cr4   O21   1.947782 S    
C79   C82   1.386181 A    
C71   C95   1.407003 A    
C11   F23   1.392470 S    
C56   C65   1.418378 A    
C25   C28   1.572828 S    
C9    H3    1.104017 S    
C91   I10   2.151469 S    
C81   C84   1.386733 A    
C8    F5    1.360432 S    
C39   C42   1.210919 T    
C73   C79   1.405501 A    
C13   I19   2.123075 S    
Cr3   O13   2.088739 S    
C55   C64   1.416861 A    
C11   C14   1.568371 S    
O11   C5    1.316291 A    
C79   F19   1.355746 S    
O4    C1    1.307608 A    
C4    C95   1.475584 S    
C47   O26   1.280198 A    
C28   C31   1.547061 S    
C15   F27   1.384595 S    
O10   C4    1.305349 A    
C50   C95   1.405443 A    
C73   C76   1.418346 A    
O8    Cr2   2.050001 S    
O1    Cr1   2.061707 S    
C21   C39   1.487635 S    
O10   Cr1   1.947684 S    
O2    Cr2   2.093876 S    
O11   Cr2   1.975129 S    
C84   F18   1.356085 S    
C80   C83   1.385983 A    
Cr1   O13   2.085879 S    
C43   C69   1.476711 S    
C29   F35   1.377281 S    
C32   F32   1.386124 S    
C85   C88   1.415827 A    
C93   I12   2.154227 S    
C10   C19   1.552837 S    
C38   C41   1.199025 T    
C66   I9    2.156801 S    
C32   F29   1.373042 S    
C21   C33   1.555284 S    
O6    Cr3   1.971396 S    
O9    Cr3   2.084749 S    
C60   C63   1.390507 A    
C15   I21   2.179615 S    
C3    C40   1.434939 S    
C23   C26   1.568266 S    
C24   F3    1.387213 S    
C9    F6    1.372753 S    
Cr5   O20   1.942978 S    
Cr4   O24   2.114213 S    
C53   C62   1.401890 A    
C14   F26   1.375879 S    
C72   C96   1.408937 A    
C56   C59   1.414701 A    
O7    Cr1   2.104676 S    
C62   F14   1.358945 S    
C83   C86   1.407427 A    
C16   C47   1.454795 S    
C92   I11   2.151775 S    
C14   I20   2.116898 S    
C29   I5    2.180186 S    
C24   I3    2.136760 S    
C86   C92   1.397464 A    
O16   C44   1.217564 A    
C57   C60   1.415995 A    
C22   I1    2.180789 S    
C10   C13   1.576020 S    
C87   C93   1.398682 A    
C12   F24   1.378497 S    
Cr2   O13   2.115218 S    
C10   I16   2.181370 S    
C70   I13   2.151239 S    
C46   O25   1.232466 A    
C13   C25   1.606359 S    
C22   C25   1.575264 S    
O3    Cr3   2.092802 S    
O5    C2    1.330167 A    
C33   F33   1.384726 S    
O17   C43   1.223313 A    
C7    C19   1.563872 S    
C66   C69   1.415365 A    
C44   C67   1.470816 S    
C1    C41   1.418550 S    
Cr4   O20   1.916019 S    
C65   C68   1.411342 A    
C58   C61   1.389289 A    
C67   C91   1.401142 A    
C26   C29   1.580989 S    
C80   F20   1.355720 S    
C28   I4    2.138284 S    
O15   C43   1.219826 A    
C23   I2    2.171781 S    
C65   I8    2.154132 S    
C12   C15   1.594454 S    
C48   O23   1.224659 A    
C30   C33   1.548323 S    
C56   C89   1.425007 A    
C70   C94   1.406288 A    
C59   C62   1.389821 A    
C26   C35   1.471569 S    
C22   F1    1.386406 S    
C50   F8    1.360048 S    
C37   C40   1.206341 T    
C5    C96   1.479833 S    
Cr5   O25   2.055540 S    
C19   C31   1.567207 S    
C50   C53   1.398848 A    
C2    C42   1.442036 S    
O3    C1    1.325099 A    
C8    H2    1.108803 S    
C7    C22   1.573494 S    
C84   C87   1.407528 A    
C7    F4    1.371030 S    
C83   F17   1.355922 S    
O19   C45   1.215424 A    
C7    H1    1.105587 S    
C45   C68   1.471450 S    
C61   F13   1.358970 S    
C85   C91   1.397590 A    
C55   C88   1.424282 A    
O17   Cr4   1.994530 S    
C78   C90   1.413478 A    
C81   F21   1.355713 S    
C59   F11   1.353237 S    
C77   C89   1.411178 A    
C30   F36   1.353335 S    
C57   C66   1.420951 A    
C30   I6    2.172346 S    
C75   C78   1.418646 A    
Cr6   O23   1.957721 S    
O14   Cr4   2.064606 S    
C71   C74   1.406260 A    
C63   F15   1.358953 S    
C52   C61   1.401323 A    
C72   C75   1.408133 A    
C24   C27   1.560415 S    
C82   F16   1.355678 S    
C82   C85   1.407187 A    
C17   C35   1.200663 T    
C54   C63   1.401946 A    
C18   C36   1.198714 T    
O12   Cr3   1.969100 S    
C51   C54   1.400538 A    
C19   C37   1.476799 S    
O15   Cr5   2.089726 S    
C71   I14   2.152062 S    
C46   O21   1.241310 A    
C55   C58   1.415168 A    
Cr6   O20   1.918779 S    
C49   C52   1.398466 A    
C68   C92   1.401765 A    
O2    C3    1.360780 A    
C47   O22   1.278291 A    
C11   I17   2.197572 S    
C86   C89   1.415355 A    
C13   F25   1.377142 S    
C6    C94   1.473876 S    
C51   F9    1.359831 S    
C74   C77   1.418957 A    
