data_mof_unit_65588.cif
_audit_creation_date              2012-12-10T19:29:55-0500
_audit_creation_method            fapswitch 2.2
_symmetry_space_group_name_H-M    P1
_symmetry_Int_Tables_number       1
_space_group_crystal_system       triclinic
_cell_length_a                    16.441926
_cell_length_b                    17.207732
_cell_length_c                    17.731482
_cell_angle_alpha                 90.218692
_cell_angle_beta                  89.48969
_cell_angle_gamma                 84.920001
_cell_volume                      4996.7801032

loop_
_atom_site_label
_atom_site_type_symbol
_atom_type_description
_atom_site_fract_x
_atom_site_fract_y
_atom_site_fract_z
_atom_type_partial_charge
C1    C     C_R   0.500343 0.501605 0.355265 0.833746
C2    C     C_R   0.563884 0.535643 0.230920 0.366724
C3    C     C_R   0.437159 0.465732 0.847765 -0.177132
C4    C     C_R   0.562745 0.534313 0.152236 -0.178424
C5    C     C_R   0.500026 0.498348 0.885659 0.071728
C6    C     C_R   0.499972 0.501529 0.114357 0.070676
C7    C     C_1   0.500113 0.499495 0.966200 -0.024231
C8    C     C_1   0.499883 0.500362 0.033817 -0.023519
C9    C     C_R   0.823967 0.548459 0.549117 -0.257442
C10   C     C_R   0.176011 0.452064 0.450340 -0.257633
C11   C     C_R   0.738228 0.547615 0.548294 0.102062
C12   C     C_R   0.499656 0.498385 0.644738 0.834811
C13   C     C_R   0.261749 0.452920 0.451199 0.096781
C14   C     C_R   0.747873 0.452351 0.451580 0.134387
C15   C     C_R   0.252139 0.547080 0.548910 0.132103
C16   C     C_R   0.511380 0.349684 0.499126 0.801716
C17   C     C_R   0.488647 0.650299 0.499225 0.795966
C18   C     C_R   0.833810 0.451497 0.450646 -0.246708
C19   C     C_R   0.166204 0.547899 0.549829 -0.247698
C20   C     C_R   0.873061 0.499969 0.499874 0.136991
C21   C     C_R   0.126935 0.499982 0.500079 0.135215
C22   C     C_1   0.962701 0.499955 0.499923 -0.019045
C23   C     C_R   0.562718 0.529460 0.845323 -0.142585
C24   C     C_1   0.037297 0.499979 0.500014 -0.019329
C25   C     C_R   0.520089 0.265336 0.491354 -0.031612
C26   C     C_R   0.480180 0.734522 0.491208 -0.015637
C27   C     C_R   0.474003 0.219272 0.536780 -0.161835
C28   C     C_R   0.523976 0.781212 0.537688 -0.175739
C29   C     C_R   0.481336 0.138656 0.527247 -0.104786
C30   C     C_R   0.517063 0.861700 0.527889 -0.099596
C31   C     C_R   0.531691 0.103897 0.469607 0.157224
C32   C     C_R   0.469574 0.895655 0.468985 0.156264
C33   C     C_R   0.578710 0.150412 0.425075 -0.068153
C34   C     C_R   0.437371 0.470283 0.154706 -0.141578
C35   C     C_R   0.424832 0.848508 0.423350 -0.068353
C36   C     C_R   0.573655 0.230708 0.436553 -0.196671
C37   C     C_R   0.429373 0.768361 0.435041 -0.171980
C38   C     C_2   0.535728 0.018686 0.456416 -0.149462
C39   C     C_2   0.466178 0.980687 0.455584 -0.146484
C40   C     C_2   0.383771 0.022545 0.443828 0.834703
C41   C     C_2   0.618659 0.976677 0.446757 0.835828
C42   C     C_R   0.562264 0.528539 0.766761 -0.249186
C43   C     C_R   0.437820 0.471247 0.233268 -0.246087
C44   C     C_R   0.498821 0.496811 0.727710 -0.117941
C45   C     C_R   0.501171 0.503144 0.272300 -0.123497
C46   C     C_R   0.436016 0.464434 0.769080 0.366554
Cl1   Cl    Cl    0.356796 0.418301 0.725851 -0.615389
Cl2   Cl    Cl    0.642979 0.581958 0.274141 -0.589783
Cu1   Cu    Cu3+1 0.580420 0.500000 0.499980 0.984282
Cu2   Cu    Cu3+1 0.419580 0.500000 0.500020 0.979228
H1    H     H_    0.433207 0.245609 0.579890 0.168622
H2    H     H_    0.130750 0.585775 0.589160 0.143562
H3    H     H_    0.395394 0.732414 0.398710 0.145333
H4    H     H_    0.609494 0.266132 0.401077 0.136649
H5    H     H_    0.618266 0.124748 0.380748 0.141810
H6    H     H_    0.387503 0.873552 0.378016 0.142633
H7    H     H_    0.550000 0.897425 0.565284 0.129667
H8    H     H_    0.446557 0.103443 0.563848 0.134822
H9    H     H_    0.611757 0.554626 0.874577 0.148875
H10   H     H_    0.388408 0.444983 0.125464 0.150174
H11   H     H_    0.611066 0.553617 0.736478 0.160191
H12   H     H_    0.562674 0.755460 0.581777 0.129781
H13   H     H_    0.389091 0.446069 0.263566 0.164262
H14   H     H_    0.389157 0.440846 0.879435 0.170426
H15   H     H_    0.610673 0.559301 0.120557 0.170770
H16   H     H_    0.262451 0.025919 0.463537 0.340994
H17   H     H_    0.738932 0.973560 0.469483 0.341579
H18   H     H_    0.851641 0.586784 0.588018 0.140890
H19   H     H_    0.148324 0.414171 0.411030 0.144086
H20   H     H_    0.701292 0.585343 0.586561 0.113459
H21   H     H_    0.298665 0.415622 0.412556 0.123652
H22   H     H_    0.718531 0.414652 0.413379 0.122097
H23   H     H_    0.281482 0.584346 0.587522 0.129763
H24   H     H_    0.869279 0.413166 0.411714 0.142600
N1    N     N_R   0.701220 0.499980 0.499970 -0.169500
N2    N     N_R   0.298780 0.500020 0.500030 -0.172157
O1    O     O_R   0.567930 0.499990 0.391240 -0.536016
O2    O     O_R   0.314875 0.993126 0.475928 -0.760482
O3    O     O_2   0.628428 0.917552 0.408000 -0.558804
O4    O     O_R   0.685932 0.006508 0.480534 -0.760774
O5    O     O_R   0.432070 0.500010 0.608760 -0.535382
O6    O     O_R   0.432120 0.500000 0.391270 -0.602889
O7    O     O_R   0.567880 0.500000 0.608730 -0.601505
O8    O     O_R   0.575780 0.386400 0.499970 -0.592891
O9    O     O_R   0.424220 0.613600 0.500030 -0.597764
O10   O     O_R   0.439960 0.386410 0.500000 -0.568331
O11   O     O_R   0.560040 0.613590 0.500000 -0.563278
O12   O     O_2   0.375913 0.081166 0.404804 -0.576397

loop_
_geom_bond_atom_site_label_1
_geom_bond_atom_site_label_2
_ccdc_geom_bond_type
C33   H5    S    
C16   O10   A    
C27   C29   A    
C1    O1    A    
Cu1   O11   S    
C41   O4    S    
C11   H20   S    
C43   H13   S    
C7    C8    T    
C3    H14   S    
C23   H9    S    
C23   C42   A    
C17   O9    A    
C17   C26   S    
Cu1   O8    S    
C19   C21   A    
C38   C39   D    
C30   H7    S    
C16   O8    A    
C33   C36   A    
C32   C39   S    
C14   C18   A    
Cu2   O9    S    
C15   C19   A    
C19   H2    S    
C27   H1    S    
C31   C33   A    
C18   C20   A    
C37   H3    S    
C15   N2    A    
C18   H24   S    
C34   H10   S    
C42   C44   A    
C44   C46   A    
C10   C21   A    
H16   O2    S    
C34   C43   A    
C32   C35   A    
C38   C41   S    
C4    C6    A    
C39   C40   S    
C5    C7    S    
C6    C8    S    
C13   H21   S    
C2    Cl2   S    
C1    O6    A    
C6    C34   A    
C12   O7    A    
C2    C4    A    
Cu2   N2    S    
C9    C11   A    
C9    C20   A    
C5    C23   A    
C13   N2    A    
Cu1   N1    S    
C43   C45   A    
C42   H11   S    
C15   H23   S    
C20   C22   S    
C40   O2    S    
Cu2   O6    S    
C16   C25   S    
C46   Cl1   S    
C35   C37   A    
C35   H6    S    
C17   O11   A    
C14   H22   S    
H17   O4    S    
C3    C5    A    
C10   C13   A    
C41   O3    D    
C26   C37   A    
C25   C27   A    
C3    C46   A    
C26   C28   A    
C31   C38   S    
C14   N1    A    
Cu1   O7    S    
C28   C30   A    
C9    H18   S    
C12   C44   S    
C11   N1    A    
C30   C32   A    
C1    C45   S    
C4    H15   S    
Cu1   O1    S    
C12   O5    A    
C22   C24   T    
C36   H4    S    
C2    C45   A    
Cu2   O10   S    
C25   C36   A    
C10   H19   S    
C29   H8    S    
C29   C31   A    
Cu1   Cu2   S    
C21   C24   S    
C40   O12   D    
Cu2   O5    S    
C28   H12   S    
