data_mof_unit_6833.cif
_audit_creation_date              2013-03-05T15:40:57-0500
_audit_creation_method            fapswitch 2.2
_symmetry_space_group_name_H-M    P1
_symmetry_Int_Tables_number       1
_space_group_crystal_system       triclinic
_cell_length_a                    7.834201
_cell_length_b                    8.645756
_cell_length_c                    13.688584
_cell_angle_alpha                 93.687187
_cell_angle_beta                  92.446182
_cell_angle_gamma                 94.323715
_cell_volume                      921.557799094

loop_
_atom_site_label
_atom_site_type_symbol
_atom_site_description
_atom_site_fract_x
_atom_site_fract_y
_atom_site_fract_z
_atom_type_partial_charge
O1    O     O_R   0.891570 0.738930 0.506190 -0.582268
O2    O     O_R   0.108430 0.261070 0.493810 -0.576554
O3    O     O_R   0.174650 0.711050 0.490030 -0.578338
O4    O     O_R   0.825350 0.288950 0.509970 -0.580603
C1    C     C_R   0.043070 0.793468 0.492382 0.868342
C2    C     C_R   0.953702 0.205572 0.496583 0.891195
O5    O     O_R   0.909850 0.521900 0.644940 -0.629279
O6    O     O_R   0.090150 0.478100 0.355060 -0.609708
O7    O     O_R   0.192930 0.494020 0.628780 -0.619002
O8    O     O_R   0.807070 0.505980 0.371220 -0.615698
C3    C     C_R   0.062304 0.513489 0.682765 0.859924
C4    C     C_R   0.937339 0.484697 0.317553 0.879482
Zn1   Zn    Zn3+2 0.810990 0.518620 0.510790 1.017702
Zn2   Zn    Zn3+2 0.189010 0.481380 0.489210 1.029099
C5    C     C_R   0.090751 0.526627 0.789364 -0.101282
C6    C     C_R   0.904900 0.453290 0.212405 -0.080254
C7    C     C_R   0.043067 0.638069 0.951833 -0.165235
C8    C     C_R   0.922330 0.291204 0.062940 -0.220748
C9    C     C_R   0.988207 0.609892 0.853674 0.088222
C10   C     C_R   0.988628 0.340556 0.157388 0.100753
C11   C     C_R   0.236743 0.463854 0.826028 -0.287494
C12   C     C_R   0.763910 0.518105 0.171968 -0.309310
C13   C     C_R   0.293906 0.491943 0.923829 0.090793
C14   C     C_R   0.683482 0.455050 0.084058 0.096327
C15   C     C_R   0.197887 0.585454 0.986179 0.121986
C16   C     C_R   0.768337 0.344175 0.027385 0.148053
C17   C     C_R   0.450317 0.438528 0.958962 0.071250
C18   C     C_R   0.519216 0.496253 0.052754 0.074313
C19   C     C_R   0.418387 0.587476 0.113890 -0.230218
C20   C     C_R   0.539441 0.328846 0.903693 -0.234836
C21   C     C_R   0.259358 0.628809 0.081389 -0.218552
C22   C     C_R   0.695578 0.282934 0.937585 -0.204828
H1    H     H_    0.185793 0.698031 0.130537 0.164842
H2    H     H_    0.758387 0.197026 0.893808 0.161580
H3    H     H_    0.714281 0.613059 0.213956 0.174126
H4    H     H_    0.311069 0.401961 0.774489 0.171012
H5    H     H_    0.967611 0.706296 0.000483 0.154573
H6    H     H_    0.985589 0.205333 0.019401 0.137191
H7    H     H_    0.455127 0.624080 0.189013 0.174125
H8    H     H_    0.488811 0.270460 0.835552 0.166098
C23   C     C_2   0.060977 0.953216 0.474870 -0.022241
C24   C     C_2   0.925443 0.042158 0.487083 -0.022682
N1    N     N_2   0.440860 0.456490 0.474790 -0.144156
N2    N     N_2   0.559140 0.543510 0.525210 -0.146819
H9    H     H_    0.487448 0.373800 0.427715 0.226346
H10   H     H_    0.512552 0.626241 0.572250 0.218652
N3    N     N_3   0.132532 0.269970 0.199285 -0.387708
H11   H     H_    0.236376 0.353644 0.206041 0.209631
H12   H     H_    0.168500 0.179694 0.151866 0.198047
N4    N     N_3   0.833900 0.674002 0.821263 -0.448389
H13   H     H_    0.862151 0.748787 0.766089 0.209720
H14   H     H_    0.746164 0.583190 0.793362 0.218144
N5    N     N_R   0.225957 0.012851 0.445904 0.233891
O9    O     O_R   0.356079 0.026210 0.508780 -0.300470
O10   O     O_R   0.246538 0.049890 0.356312 -0.383769
N6    N     N_R   0.752495 0.980263 0.498492 0.242563
O11   O     O_R   0.659682 0.919384 0.422540 -0.330940
O12   O     O_R   0.685996 0.992225 0.583880 -0.366601

loop_
_geom_bond_atom_site_label_1
_geom_bond_atom_site_label_2
_geom_bond_distance
_ccdc_geom_bond_type
C15   C21   1.388288 A    
N4    H14   1.045179 S    
O7    Zn2   1.905409 S    
C21   H1    1.084551 S    
C16   C22   1.388250 A    
C13   C17   1.417610 A    
C20   C22   1.384736 A    
N1    H9    1.029426 S    
C23   C24   1.366895 D    
N3    H11   1.044016 S    
C8    C16   1.401395 A    
O6    C4    1.289036 A    
N1    N2    1.294035 D    
C7    C15   1.400392 A    
C19   H7    1.076851 S    
N5    O10   1.300842 A    
N4    H13   1.045438 S    
C8    H6    1.084329 S    
O3    C1    1.296930 A    
C20   H8    1.076959 S    
C19   C21   1.384949 A    
C11   H4    1.075467 S    
C7    H5    1.084677 S    
N5    O9    1.299169 A    
C17   C20   1.418367 A    
O5    C3    1.290354 A    
C12   H3    1.077952 S    
O7    C3    1.302376 A    
C9    N4    1.432588 S    
C23   N5    1.436364 S    
O2    C2    1.272637 A    
O3    Zn2   1.996646 S    
O8    C4    1.299995 A    
O1    C1    1.270030 A    
O4    C2    1.293197 A    
C18   C19   1.418385 A    
C7    C9    1.393657 A    
N2    H10   1.029384 S    
C8    C10   1.400575 A    
C11   C13   1.393701 A    
O2    Zn2   1.966736 S    
C12   C14   1.393338 A    
C5    C11   1.390748 A    
C10   N3    1.437319 S    
O1    Zn1   1.966737 S    
C6    C10   1.411232 A    
C14   C18   1.417147 A    
O5    Zn1   1.959925 S    
C13   C15   1.416224 A    
N6    O11   1.301554 A    
N3    H12   1.045724 S    
C2    C24   1.410243 S    
C17   C18   1.416540 A    
C1    C23   1.414541 S    
C6    C12   1.386172 A    
O6    Zn2   1.959926 S    
C24   N6    1.437373 S    
C5    C9    1.415851 A    
C3    C5    1.462500 S    
Zn1   N2    2.017418 S    
C4    C6    1.455361 S    
O4    Zn1   1.996645 S    
N6    O12   1.301090 A    
Zn2   N1    2.017418 S    
C14   C16   1.416725 A    
O8    Zn1   1.905410 S    
C22   H2    1.084391 S    
