data_mof_unit_20361.cif
_audit_creation_date              2012-12-10T16:56:35-0500
_audit_creation_method            fapswitch 2.2
_symmetry_space_group_name_H-M    P1
_symmetry_Int_Tables_number       1
_space_group_crystal_system       triclinic
_cell_length_a                    7.818221
_cell_length_b                    8.571257
_cell_length_c                    15.711231
_cell_angle_alpha                 91.634711
_cell_angle_beta                  84.920386
_cell_angle_gamma                 93.777595
_cell_volume                      1046.15450185

loop_
_atom_site_label
_atom_site_type_symbol
_atom_type_description
_atom_site_fract_x
_atom_site_fract_y
_atom_site_fract_z
_atom_type_partial_charge
C1    C     C_R   0.545693 0.794587 0.497883 0.943804
C2    C     C_3   0.345531 0.455790 0.033429 0.165411
C3    C     C_1   0.502068 0.500118 0.750631 -0.185130
C4    C     C_1   0.497932 0.499882 0.249369 -0.185130
C5    C     C_3   0.385340 0.600703 0.977926 -0.249957
C6    C     C_3   0.614660 0.399297 0.022074 -0.249957
C7    C     C_3   0.499473 0.499427 0.916793 0.167186
C8    C     C_3   0.500527 0.500573 0.083207 0.167186
C9    C     C_1   0.501582 0.499790 0.825918 -0.063074
C10   C     C_1   0.498418 0.500210 0.174082 -0.063074
C11   C     C_3   0.953499 0.308153 0.359237 -0.143666
C12   C     C_R   0.454307 0.205413 0.502117 0.943804
C13   C     C_3   0.046501 0.691847 0.640763 -0.143665
C14   C     C_R   0.500814 0.500418 0.661843 0.881055
C15   C     C_R   0.499186 0.499582 0.338157 0.881055
C16   C     C_2   0.569601 0.958229 0.496584 -0.382086
C17   C     C_2   0.430399 0.041771 0.503416 -0.382086
C18   C     C_3   0.544451 0.646703 0.028539 -0.196652
C19   C     C_3   0.455549 0.353297 0.971461 -0.196652
C20   C     C_3   0.654469 0.544210 0.966571 0.165411
H1    H     H_    0.584123 0.765194 0.052983 0.140290
H2    H     H_    0.129314 0.500905 0.109120 0.178308
H3    H     H_    0.949539 0.415903 0.321777 0.153336
H4    H     H_    0.824384 0.248056 0.371501 0.173922
H5    H     H_    0.033547 0.227004 0.319391 0.137284
H6    H     H_    0.175616 0.751943 0.628499 0.173922
H7    H     H_    0.050460 0.584097 0.678223 0.153336
H8    H     H_    0.966452 0.772995 0.680609 0.137284
H9    H     H_    0.415877 0.234806 0.947016 0.140290
H10   H     H_    0.710587 0.320113 0.041259 0.140108
H11   H     H_    0.289413 0.679886 0.958741 0.140108
H12   H     H_    0.701041 0.009396 0.489989 0.195825
H13   H     H_    0.298959 0.990604 0.510011 0.195825
H14   H     H_    0.904989 0.614754 0.976423 0.168758
H15   H     H_    0.870686 0.499095 0.890880 0.178308
H16   H     H_    0.095011 0.385246 0.023577 0.168758
N1    N     N_2   0.950320 0.457950 0.477300 0.192880
N2    N     N_2   0.049680 0.542050 0.522700 0.192880
N3    N     N_3   0.824271 0.593823 0.927200 -0.467713
N4    N     N_3   0.175729 0.406177 0.072800 -0.467713
O1    O     O_R   0.389250 0.738570 0.505570 -0.632705
O2    O     O_3   0.969376 0.659632 0.564483 -0.525164
O3    O     O_R   0.610750 0.261430 0.494430 -0.632705
O4    O     O_R   0.678390 0.711630 0.491020 -0.573729
O5    O     O_R   0.321610 0.288370 0.508980 -0.573729
O6    O     O_R   0.355460 0.513480 0.630490 -0.659057
O7    O     O_R   0.644540 0.486520 0.369510 -0.659056
O8    O     O_R   0.644600 0.486540 0.615950 -0.583365
O9    O     O_R   0.355400 0.513460 0.384050 -0.583365
O10   O     O_3   0.030624 0.340368 0.435517 -0.525164
Zn1   Zn    Zn3+2 0.306940 0.517990 0.509710 1.024132
Zn2   Zn    Zn3+2 0.693060 0.482010 0.490290 1.024132

loop_
_geom_bond_atom_site_label_1
_geom_bond_atom_site_label_2
_ccdc_geom_bond_type
C12   C17   S    
H15   N3    S    
C13   H8    S    
N1    N2    D    
C3    C9    T    
C16   H12   S    
C18   H1    S    
C6    C20   S    
C1    O4    A    
C18   C20   S    
C15   O7    A    
H2    N4    S    
O4    Zn2   S    
C4    C15   S    
C20   N3    S    
C1    C16   S    
C14   O6    A    
C11   O10   S    
C6    C19   S    
O7    Zn2   S    
C3    C14   S    
C17   H13   S    
C5    C18   S    
C14   O8    A    
C1    O1    A    
C13   O2    S    
C6    H10   S    
N2    O2    S    
C12   O3    A    
C7    C19   S    
C15   O9    A    
C13   H6    S    
C2    C8    S    
O3    Zn2   S    
C2    C5    S    
C16   C17   D    
O5    Zn1   S    
C4    C10   T    
H14   N3    S    
C19   H9    S    
C2    N4    S    
C11   H4    S    
H16   N4    S    
C7    C9    S    
C7    C20   S    
C11   H3    S    
N1    O10   S    
C5    C7    S    
N1    Zn2   S    
C11   H5    S    
C13   H7    S    
C6    C8    S    
N2    Zn1   S    
C5    H11   S    
C2    C19   S    
O8    Zn2   S    
O6    Zn1   S    
O1    Zn1   S    
C8    C10   S    
C8    C18   S    
C12   O5    A    
O9    Zn1   S    
