data_mof_unit_42229.cif
_audit_creation_date              2012-12-10T17:19:00-0500
_audit_creation_method            fapswitch 2.2
_symmetry_space_group_name_H-M    P1
_symmetry_Int_Tables_number       1
_space_group_crystal_system       triclinic
_cell_length_a                    10.312212
_cell_length_b                    10.375012
_cell_length_c                    13.907915
_cell_angle_alpha                 92.77701
_cell_angle_beta                  104.842855
_cell_angle_gamma                 93.203474
_cell_volume                      1433.05936259

loop_
_atom_site_label
_atom_site_type_symbol
_atom_type_description
_atom_site_fract_x
_atom_site_fract_y
_atom_site_fract_z
_atom_type_partial_charge
C1    C     C_R   0.050051 0.734600 0.494833 0.894691
C2    C     C_2   0.973934 0.065422 0.408777 0.149027
C3    C     C_2   0.427962 0.531034 0.479888 0.169284
C4    C     C_2   0.567916 0.498132 0.476275 0.227748
C5    C     C_R   0.099996 0.528667 0.683986 0.887655
C6    C     C_R   0.901111 0.485589 0.314536 0.900246
C7    C     C_R   0.163427 0.594600 0.782494 -0.105738
C8    C     C_R   0.843092 0.496270 0.207974 -0.079841
C9    C     C_R   0.147034 0.724332 0.929970 0.177193
C10   C     C_R   0.866923 0.495208 0.039756 0.181595
C11   C     C_R   0.087772 0.666478 0.834032 -0.187499
C12   C     C_R   0.946598 0.264935 0.497736 0.914836
C13   C     C_R   0.914133 0.464292 0.138548 -0.149427
C14   C     C_R   0.302636 0.601312 0.819248 -0.219685
C15   C     C_R   0.720253 0.552591 0.177325 -0.205545
C16   C     C_R   0.365152 0.667119 0.911161 0.058285
C17   C     C_R   0.679260 0.600530 0.083270 0.059807
C18   C     C_R   0.285784 0.713707 0.972235 0.109410
C19   C     C_R   0.755777 0.572890 0.013825 0.111199
C20   C     C_R   0.504961 0.669428 0.948984 0.016268
C21   C     C_R   0.557632 0.664169 0.052348 0.038704
C22   C     C_3   0.060976 0.793283 0.985847 -0.870317
C23   C     C_R   0.481531 0.717935 0.115541 0.153321
C24   C     C_3   0.929611 0.436367 0.963046 -0.868478
C25   C     C_3   0.540463 0.765051 0.223025 -0.813527
C26   C     C_3   0.565305 0.753659 0.796574 -0.767156
C27   C     C_R   0.594258 0.675258 0.887545 0.151202
C28   C     C_R   0.347697 0.745965 0.073444 -0.210246
C29   C     C_R   0.719747 0.625464 0.920835 -0.199981
C30   C     C_2   0.069316 0.873033 0.488970 -0.011506
C31   C     C_2   0.916458 0.125509 0.475126 -0.063134
C32   C     C_2   0.995745 0.927000 0.408524 0.102230
H1    H     H_    0.291045 0.787092 0.121618 0.187623
H2    H     H_    0.005932 0.368278 0.995579 0.251087
H3    H     H_    0.850764 0.382015 0.902968 0.271099
H4    H     H_    0.979770 0.512480 0.930928 0.247047
H5    H     H_    0.509008 0.696051 0.272691 0.247712
H6    H     H_    0.651086 0.779655 0.241388 0.264382
H7    H     H_    0.504117 0.860987 0.238020 0.265269
H8    H     H_    0.491769 0.701017 0.732742 0.256996
H9    H     H_    0.524492 0.846231 0.814027 0.255061
H10   H     H_    0.658451 0.778418 0.773244 0.252285
H11   H     H_    0.788790 0.627469 0.874323 0.172650
H12   H     H_    0.659131 0.561856 0.228702 0.198910
H13   H     H_    0.361972 0.548713 0.778807 0.187755
H14   H     H_    0.005543 0.414427 0.161145 0.182397
H15   H     H_    0.981233 0.672941 0.801527 0.174887
H16   H     H_    0.957957 0.801838 0.938297 0.245038
H17   H     H_    0.053245 0.739655 0.051539 0.259178
H18   H     H_    0.106022 0.892821 0.010946 0.263532
I1    I     I_    0.033225 0.163590 0.292644 -0.267555
I2    I     I_    0.941132 0.820630 0.267993 -0.367305
I3    I     I_    0.796381 0.024071 0.554550 -0.226204
I4    I     I_    0.181805 0.977482 0.622386 -0.269547
I5    I     I_    0.566962 0.369805 0.350689 -0.279250
I6    I     I_    0.418995 0.735156 0.490795 -0.264118
I7    I     I_    0.677401 0.500518 0.680082 -0.314491
I8    I     I_    0.365167 0.259374 0.504429 -0.100220
N1    N     N_2   0.322180 0.446120 0.460900 -0.032947
N2    N     N_2   0.677820 0.553880 0.539100 -0.043689
O1    O     O_R   0.935190 0.693030 0.507870 -0.585197
O2    O     O_R   0.064810 0.306970 0.492130 -0.570446
O3    O     O_R   0.142080 0.658430 0.482770 -0.573835
O4    O     O_R   0.857920 0.341570 0.517230 -0.552395
O5    O     O_R   0.969700 0.527180 0.651960 -0.584757
O6    O     O_R   0.030300 0.472820 0.348040 -0.587475
O7    O     O_R   0.176600 0.492580 0.626860 -0.596186
O8    O     O_R   0.823400 0.507420 0.373140 -0.604616
Zn1   Zn    Zn3+2 0.861850 0.523100 0.516760 1.037544
Zn2   Zn    Zn3+2 0.138150 0.476900 0.483240 1.049156

loop_
_geom_bond_atom_site_label_1
_geom_bond_atom_site_label_2
_ccdc_geom_bond_type
C28   H1    S    
C22   H16   S    
C17   C21   A    
C8    C13   A    
C20   C27   A    
C25   H6    S    
C27   C29   A    
C12   O2    A    
C3    I6    S    
C2    C31   D    
C11   H15   S    
O3    Zn2   S    
C16   C20   A    
C10   C19   A    
C22   H18   S    
O7    Zn2   S    
C10   C24   S    
C4    N2    D    
C6    O8    A    
C12   C31   S    
C24   H4    S    
C23   C28   A    
C25   H7    S    
C30   C32   D    
C30   I4    S    
O2    Zn2   S    
C26   H8    S    
C26   C27   S    
O6    Zn2   S    
C5    O7    A    
C22   H17   S    
O5    Zn1   S    
N2    Zn1   S    
C2    C32   S    
C5    O5    A    
C1    C30   S    
C17   C19   A    
C15   H12   S    
C7    C11   A    
C14   H13   S    
C5    C7    S    
C9    C11   A    
C4    I5    S    
C13   H14   S    
C12   O4    A    
C14   C16   A    
C9    C22   S    
C24   H3    S    
C2    I1    S    
N1    Zn2   S    
C1    O1    A    
C3    C4    S    
C19   C29   A    
C1    O3    A    
C9    C18   A    
C6    O6    A    
C23   C25   S    
C18   C28   A    
C20   C21   A    
C26   H10   S    
C16   C18   A    
O1    Zn1   S    
C15   C17   A    
C29   H11   S    
I7    N2    S    
C6    C8    S    
C8    C15   A    
C25   H5    S    
I8    N1    S    
O4    Zn1   S    
C21   C23   A    
C7    C14   A    
C31   I3    S    
C26   H9    S    
C3    N1    D    
O8    Zn1   S    
C32   I2    S    
C10   C13   A    
C24   H2    S    
