data_mof_unit_42451.cif
_audit_creation_date              2013-03-05T16:11:15-0500
_audit_creation_method            fapswitch 2.2
_symmetry_space_group_name_H-M    P1
_symmetry_Int_Tables_number       1
_space_group_crystal_system       triclinic
_cell_length_a                    6.95214
_cell_length_b                    20.539666
_cell_length_c                    24.536757
_cell_angle_alpha                 89.963769
_cell_angle_beta                  90.553786
_cell_angle_gamma                 89.586085
_cell_volume                      3503.46128178

loop_
_atom_site_label
_atom_site_type_symbol
_atom_site_description
_atom_site_fract_x
_atom_site_fract_y
_atom_site_fract_z
_atom_type_partial_charge
O1    O     O_R   0.507280 0.423750 0.460310 -0.577342
O2    O     O_R   0.171030 0.555650 0.437630 -0.589090
O3    O     O_R   0.004080 0.576250 0.539690 -0.597210
C1    C     C_R   0.339040 0.575736 0.421839 1.035694
O4    O     O_R   0.177330 0.422980 0.453960 -0.586256
O5    O     O_R   0.010420 0.442640 0.556140 -0.596512
C2    C     C_R   0.345914 0.399174 0.443364 1.034536
O6    O     O_R   0.500930 0.557360 0.443860 -0.578934
O7    O     O_3   0.340310 0.506600 0.533500 -0.289802
V1    V     V_3+5 0.064140 0.498780 0.493780 1.204590
O8    O     O_R   0.680890 0.444350 0.562370 -0.597433
C3    C     C_R   0.850602 0.424411 0.578156 0.970974
O9    O     O_R   0.674590 0.577020 0.546040 -0.596345
C4    C     C_R   0.843045 0.600645 0.557082 0.914553
V2    V     V_3+5 0.564550 0.501220 0.506220 1.198320
O10   O     O_3   0.838250 0.493400 0.466500 -0.245421
C5    C     C_R   0.975322 0.838115 0.911258 -0.179567
C6    C     C_R   0.848519 0.661032 0.589683 -0.096757
C7    C     C_R   0.038237 0.721765 0.907851 0.528433
C8    C     C_R   0.028450 0.780196 0.936853 -0.254995
C9    C     C_R   0.931508 0.838223 0.855353 -0.236089
C10   C     C_R   0.942446 0.780158 0.823651 0.086161
C11   C     C_R   0.996601 0.721355 0.850907 -0.059152
C12   C     C_R   0.903847 0.778759 0.765813 0.102464
C13   C     C_R   0.920065 0.718784 0.736056 0.061619
C14   C     C_R   0.973264 0.662260 0.765042 -0.222270
C15   C     C_R   0.009918 0.663572 0.820689 -0.082177
C16   C     C_R   0.849964 0.835423 0.736637 -0.203057
C17   C     C_R   0.813453 0.833902 0.680939 -0.241122
C18   C     C_R   0.827998 0.776053 0.651584 0.183192
C19   C     C_R   0.881910 0.717312 0.678280 0.108672
C20   C     C_R   0.786521 0.776750 0.595478 -0.173884
C21   C     C_R   0.795158 0.719723 0.565000 -0.166863
C22   C     C_R   0.892740 0.659707 0.645822 -0.237177
H1    H     H_    0.050328 0.617897 0.839495 0.204279
H2    H     H_    0.930525 0.612914 0.662796 0.106240
H3    H     H_    0.758776 0.721276 0.521975 0.108075
H4    H     H_    0.772077 0.878808 0.660575 0.134362
H5    H     H_    0.063741 0.781070 0.979929 0.194471
H6    H     H_    0.893997 0.884770 0.837935 0.106505
H7    H     H_    0.988652 0.615457 0.745812 0.138872
H8    H     H_    0.833728 0.882331 0.755565 0.130944
H9    H     H_    0.744627 0.821609 0.575165 0.117559
H10   H     H_    0.619039 0.208643 0.795046 0.122257
C23   C     C_R   0.729975 0.271158 0.732414 -0.168880
H11   H     H_    0.588032 0.286865 0.719114 0.119775
C24   C     C_R   0.894322 0.295183 0.706582 0.180387
C25   C     C_R   0.076568 0.273925 0.724661 -0.169803
H12   H     H_    0.205193 0.291807 0.705280 0.119512
C26   C     C_R   0.094255 0.229305 0.767919 -0.164138
H13   H     H_    0.236197 0.213582 0.781208 0.119600
C27   C     C_R   0.929906 0.205249 0.793727 0.179188
C28   C     C_R   0.747664 0.226540 0.775673 -0.160709
C29   C     C_1   0.876394 0.341164 0.661529 -0.024215
C30   C     C_1   0.947828 0.159120 0.838672 -0.014488
C31   C     C_1   0.961031 0.120827 0.876385 -0.270902
C32   C     C_1   0.863202 0.379308 0.623708 -0.286933
H14   H     H_    0.676670 0.730469 0.314255 0.127836
C33   C     C_R   0.577767 0.783204 0.243405 -0.127468
H15   H     H_    0.713173 0.808379 0.239045 0.171232
C34   C     C_R   0.426205 0.795217 0.206342 -0.021740
C35   C     C_R   0.250153 0.761389 0.213001 0.342578
C36   C     C_R   0.232405 0.716353 0.256362 -0.268265
H16   H     H_    0.098334 0.690679 0.261824 0.176831
C37   C     C_R   0.384441 0.704910 0.293243 0.125025
C38   C     C_R   0.557181 0.738630 0.286350 -0.158034
C39   C     C_1   0.455772 0.841027 0.161477 0.163349
C40   C     C_1   0.363184 0.658938 0.338262 0.037844
C41   C     C_1   0.348789 0.620854 0.376107 -0.248460
C42   C     C_1   0.474428 0.879136 0.123819 -0.167978
C43   C     C_R   0.474821 0.160882 0.089701 -0.326412
C44   C     C_R   0.350925 0.339899 0.409578 -0.248890
C45   C     C_R   0.542839 0.276493 0.094253 0.560652
C46   C     C_R   0.546998 0.217403 0.066370 -0.312751
C47   C     C_R   0.407877 0.161768 0.143884 0.291006
C48   C     C_R   0.432701 0.219182 0.176402 -0.067847
C49   C     C_R   0.480471 0.278043 0.149094 -0.090865
C50   C     C_R   0.412374 0.220812 0.234790 0.116437
C51   C     C_R   0.407685 0.281881 0.263047 0.069583
C52   C     C_R   0.411441 0.338966 0.231498 -0.105981
C53   C     C_R   0.458426 0.337263 0.176756 -0.046192
C54   C     C_R   0.407031 0.163442 0.266226 -0.091877
C55   C     C_R   0.363872 0.165176 0.321246 -0.214411
C56   C     C_R   0.348194 0.224317 0.348689 0.154711
C57   C     C_R   0.389296 0.283571 0.321485 -0.037879
C58   C     C_R   0.297457 0.224088 0.403762 -0.144959
C59   C     C_R   0.290446 0.281771 0.433105 -0.210658
C60   C     C_R   0.410380 0.340938 0.354482 0.273643
H17   H     H_    0.471472 0.383452 0.156103 0.206000
H18   H     H_    0.245538 0.280619 0.475269 0.125127
H19   H     H_    0.347983 0.119547 0.342932 0.137941
H20   H     H_    0.599259 0.215594 0.024949 0.194530
H21   H     H_    0.377670 0.386113 0.248112 0.185107
H22   H     H_    0.437677 0.116180 0.249340 0.175578
H23   H     H_    0.260811 0.179049 0.424102 0.121202
O11   O     O_R   0.323320 0.942780 0.056240 -0.563339
O12   O     O_R   0.647300 0.077050 0.046060 -0.590144
O13   O     O_R   0.813840 0.057330 0.943840 -0.599263
C61   C     C_R   0.478851 0.100937 0.056687 1.073389
O14   O     O_R   0.653250 0.944380 0.062400 -0.579544
O15   O     O_R   0.819830 0.923720 0.960300 -0.592938
C62   C     C_R   0.485158 0.924346 0.078206 1.023052
O16   O     O_R   0.317330 0.076390 0.039790 -0.573870
O17   O     O_3   0.483830 0.993470 0.966560 -0.298189
V3    V     V_3+5 0.760140 0.001210 0.006210 1.234007
O18   O     O_R   0.149290 0.922840 0.953850 -0.598888
C63   C     C_R   0.980763 0.899182 0.942973 0.964610
O19   O     O_R   0.143340 0.055500 0.937510 -0.601505
C64   C     C_R   0.973644 0.075564 0.921822 0.968715
V4    V     V_3+5 0.259690 0.998600 0.993650 1.223405
O20   O     O_3   0.986130 0.006520 0.033440 -0.239149
N1    N     N_R   0.088921 0.771593 0.176520 0.232118
O21   O     O_R   0.058252 0.827951 0.153674 -0.406598
O22   O     O_R   0.961718 0.726052 0.169727 -0.366474
N2    N     N_R   0.513865 0.396621 0.335429 0.216940
O23   O     O_R   0.686330 0.389375 0.316082 -0.373273
O24   O     O_R   0.440206 0.454826 0.339395 -0.428954
S1    S     S_3+6 0.625367 0.346660 0.059591 -0.002602
O25   O     O_2   0.458799 0.392447 0.049999 -0.244979
O26   O     O_2   0.775401 0.380022 0.093900 -0.254793
O27   O     O_3   0.721543 0.326305 0.999237 -0.527212
H24   H     H_    0.763357 0.368044 0.983118 0.399705
N3    N     N_R   0.293894 0.108212 0.162487 0.221935
O28   O     O_R   0.357806 0.048662 0.159025 -0.442006
O29   O     O_R   0.122687 0.118918 0.181667 -0.379559
S2    S     S_3+6 0.107008 0.650712 0.944620 -0.001521
O30   O     O_2   0.950728 0.600802 0.939640 -0.243620
O31   O     O_2   0.289779 0.623592 0.921173 -0.271736
O32   O     O_3   0.143520 0.667855 0.010951 -0.493244
H25   H     H_    0.189654 0.626476 0.027404 0.406266

loop_
_geom_bond_atom_site_label_1
_geom_bond_atom_site_label_2
_geom_bond_distance
_ccdc_geom_bond_type
C13   C19   1.440090 A    
C61   O16   1.298653 A    
C30   C31   1.216434 T    
C36   C37   1.403210 A    
O15   C63   1.299182 A    
S2    O30   1.503314 D    
C54   H22   1.076407 S    
O11   C62   1.296777 A    
C45   C46   1.393864 A    
C4    C6    1.476842 S    
O17   V3    2.151810 S    
C7    C8    1.397225 A    
C1    O6    1.297294 A    
N1    O22   1.301571 A    
N3    O28   1.301421 A    
C23   H11   1.083244 S    
C14   C15   1.386871 A    
C17   C18   1.393412 A    
O13   V3    1.955783 S    
O16   V4    1.999491 S    
C47   N3    1.437111 S    
C16   C17   1.388036 A    
C48   C50   1.441359 A    
C5    C63   1.477016 S    
C33   C38   1.404497 A    
O5    C3    1.297636 A    
C18   C19   1.418793 A    
N3    O29   1.301433 A    
O18   C63   1.297075 A    
V2    O10   2.151259 S    
C5    C8    1.390777 A    
O19   C64   1.301466 A    
C46   H20   1.083192 S    
C34   C39   1.464690 S    
V4    O20   2.151333 S    
C1    C41   1.457256 S    
O12   C61   1.295338 A    
S1    O25   1.503173 D    
O8    V2    1.969657 S    
H10   C28   1.083256 S    
H14   C38   1.083426 S    
C24   C25   1.404854 A    
C40   C41   1.219080 T    
N2    O24   1.301240 A    
C17   H4    1.084412 S    
C26   C27   1.404416 A    
O1    V2    1.990521 S    
C11   C15   1.402772 A    
O7    V1    2.151841 S    
C27   C30   1.457292 S    
O12   V3    1.999274 S    
C25   C26   1.405789 A    
V3    O20   1.705573 S    
C23   C28   1.405798 A    
C33   H15   1.083470 S    
O13   C64   1.297601 A    
O1    C2    1.298322 A    
O9    C4    1.297169 A    
N1    O21   1.301142 A    
C44   C60   1.417658 A    
C48   C49   1.424781 A    
C23   C24   1.404439 A    
O15   V3    1.994037 S    
C33   C34   1.405566 A    
C12   C13   1.436674 A    
C2    C44   1.473753 S    
O4    C2    1.295410 A    
C8    H5    1.082924 S    
C50   C51   1.433914 A    
S2    O32   1.682656 S    
C15   H1    1.079400 S    
C13   C14   1.406491 A    
C43   C61   1.474512 S    
C21   H3    1.083574 S    
C51   C52   1.405114 A    
S1    O27   1.682490 S    
O2    C1    1.303892 A    
C47   C48   1.434757 A    
C35   C36   1.416259 A    
C50   C54   1.408855 A    
C55   C56   1.393330 A    
C49   C53   1.401441 A    
C37   C40   1.462019 S    
O14   C62   1.304171 A    
C26   H13   1.083247 S    
O14   V3    1.961098 S    
C19   C22   1.428611 A    
C56   C57   1.419896 A    
C6    C22   1.408657 A    
O27   H24   0.990595 S    
O3    C4    1.299212 A    
C24   C29   1.457343 S    
C3    C32   1.452854 S    
C25   H12   1.083253 S    
C43   C47   1.412893 A    
C54   C55   1.386216 A    
O6    V2    1.960566 S    
O9    V2    1.992116 S    
C10   C12   1.442110 A    
O2    V1    1.960899 S    
C31   C64   1.452790 S    
C51   C57   1.441219 A    
C44   C59   1.395202 A    
C27   C28   1.404847 A    
O17   V4    1.702591 S    
O32   H25   0.990603 S    
O18   V4    1.992194 S    
C57   C60   1.437647 A    
S2    O31   1.503363 D    
C45   S1    1.774652 S    
C58   C59   1.387594 A    
C12   C16   1.412386 A    
C56   C58   1.399906 A    
C52   C53   1.385812 A    
O5    V1    1.955859 S    
C43   C46   1.392978 A    
O8    C3    1.301464 A    
C42   C62   1.456623 S    
C55   H19   1.084284 S    
C7    S2    1.775488 S    
C39   C42   1.219076 T    
C20   C21   1.391346 A    
C60   N2    1.435945 S    
O7    V2    1.705390 S    
C53   H17   1.080097 S    
O4    V1    1.999225 S    
O3    V1    1.994244 S    
V1    O10   1.705507 S    
C18   C20   1.403841 A    
C9    H6    1.076314 S    
O11   V4    1.961139 S    
C16   H8    1.075501 S    
C20   H9    1.083951 S    
O19   V4    1.969877 S    
C22   H2    1.077012 S    
C34   C35   1.422490 A    
C6    C21   1.394956 A    
S1    O26   1.503430 D    
C58   H23   1.083995 S    
C36   H16   1.083634 S    
C7    C11   1.424173 A    
C35   N1    1.441731 S    
C37   C38   1.402244 A    
C59   H18   1.083817 S    
C45   C49   1.418049 A    
C10   C11   1.426644 A    
C52   H21   1.076164 S    
C9    C10   1.426245 A    
N2    O23   1.301390 A    
C14   H7    1.076229 S    
C29   C32   1.216471 T    
C5    C9    1.402269 A    
