data_mof_unit_66336.cif
_audit_creation_date              2012-12-10T19:25:00-0500
_audit_creation_method            fapswitch 2.2
_symmetry_space_group_name_H-M    P1
_symmetry_Int_Tables_number       1
_space_group_crystal_system       triclinic
_cell_length_a                    15.697504
_cell_length_b                    10.487309
_cell_length_c                    9.813679
_cell_angle_alpha                 90.284213
_cell_angle_beta                  89.788401
_cell_angle_gamma                 90.059493
_cell_volume                      1615.54100019

loop_
_atom_site_label
_atom_site_type_symbol
_atom_type_description
_atom_site_fract_x
_atom_site_fract_y
_atom_site_fract_z
_atom_type_partial_charge
C1    C     C_R   0.499975 0.257802 0.499534 0.923112
C2    C     C_R   0.500025 0.742197 0.500466 0.923112
C3    C     C_3   0.569771 0.957039 0.433630 -0.234500
C4    C     C_3   0.430229 0.042961 0.566369 -0.234500
C5    C     C_3   0.499998 0.877234 0.501472 -0.116314
C6    C     C_3   0.500002 0.122766 0.498528 -0.116314
C7    C     C_3   0.500931 0.960171 0.630533 -0.175611
C8    C     C_3   0.499069 0.039829 0.369467 -0.175611
C9    C     C_3   0.434407 0.441268 0.047996 0.283706
C10   C     C_3   0.565593 0.558732 0.952004 0.283706
C11   C     C_3   0.501072 0.384696 0.950292 -0.254861
C12   C     C_3   0.498928 0.615304 0.049708 -0.254861
C13   C     C_3   0.433276 0.555747 0.952982 0.292048
C14   C     C_3   0.566724 0.444253 0.047018 0.292049
C15   C     C_R   0.338205 0.500249 0.500196 0.909565
C16   C     C_R   0.661795 0.499751 0.499804 0.909565
C17   C     C_3   0.971787 0.391726 0.558634 -0.204912
C18   C     C_3   0.028213 0.608274 0.441366 -0.204912
C19   C     C_3   0.028491 0.399544 0.430220 0.339055
C20   C     C_3   0.971509 0.600456 0.569780 0.339055
C21   C     C_1   0.249230 0.500923 0.500699 -0.057356
C22   C     C_1   0.750770 0.499077 0.499301 -0.057356
C23   C     C_3   0.027701 0.494171 0.629795 -0.209941
C24   C     C_3   0.972299 0.505829 0.370204 -0.209941
C25   C     C_3   0.082921 0.500941 0.500654 0.029766
C26   C     C_3   0.917079 0.499059 0.499345 0.029766
C27   C     C_1   0.173859 0.501261 0.500903 0.075325
C28   C     C_1   0.826141 0.498739 0.499097 0.075325
C29   C     C_3   0.569981 0.042183 0.561872 0.318075
C30   C     C_3   0.430019 0.957817 0.438128 0.318075
H1    H     H_    0.946891 0.302973 0.605523 0.210973
H2    H     H_    0.053109 0.697027 0.394477 0.210973
H3    H     H_    0.947823 0.509583 0.264280 0.206456
H4    H     H_    0.052177 0.490416 0.735720 0.206456
H5    H     H_    0.626668 0.917713 0.380717 0.195725
H6    H     H_    0.373332 0.082287 0.619283 0.195725
H7    H     H_    0.502274 0.924194 0.736737 0.206909
H8    H     H_    0.497726 0.075805 0.263263 0.206910
H9    H     H_    0.501998 0.287604 0.904687 0.203972
H10   H     H_    0.498002 0.712396 0.095313 0.203972
N1    N     N_3   0.499940 0.500030 0.863290 -0.147899
N2    N     N_3   0.500060 0.499970 0.136710 -0.147899
O1    O     O_R   0.500000 0.313960 0.616610 -0.613003
O2    O     O_R   0.500000 0.686040 0.383390 -0.613003
O3    O     O_R   0.500040 0.313950 0.383350 -0.592456
O4    O     O_R   0.499960 0.686050 0.616650 -0.592456
O5    O     O_R   0.376760 0.499990 0.616610 -0.589518
O6    O     O_R   0.623240 0.500010 0.383390 -0.589518
O7    O     O_R   0.376790 0.499980 0.383350 -0.567752
O8    O     O_R   0.623210 0.500020 0.616650 -0.567752
Zn1   Zn    Zn3+2 0.499980 0.500010 0.655740 1.049643
Zn2   Zn    Zn3+2 0.500020 0.499990 0.344260 1.049643
Br1   Br    Br    0.071998 0.254267 0.329213 -0.352051
Br2   Br    Br    0.928002 0.745733 0.670787 -0.352051
Br3   Br    Br    0.671045 0.107914 0.650740 -0.401232
Br4   Br    Br    0.328955 0.892086 0.349260 -0.401232
Br5   Br    Br    0.337545 0.347660 0.118395 -0.354860
Br6   Br    Br    0.662455 0.652340 0.881605 -0.354860
Br7   Br    Br    0.334582 0.645012 0.884475 -0.372065
Br8   Br    Br    0.665418 0.354988 0.115525 -0.372065

loop_
_geom_bond_atom_site_label_1
_geom_bond_atom_site_label_2
_ccdc_geom_bond_type
O2    Zn2   S    
C12   H10   S    
O5    Zn1   S    
C4    H6    S    
C7    C29   S    
C3    H5    S    
C25   C27   S    
C14   Br8   S    
C26   C28   S    
C24   H3    S    
C20   C23   S    
C15   O5    A    
C14   N2    S    
C23   H4    S    
C8    C30   S    
C19   Br1   S    
C13   N1    S    
C19   C24   S    
C7    H7    S    
C22   C28   T    
C2    O4    A    
C10   N1    S    
C11   H9    S    
C12   C13   S    
C9    C11   S    
C1    O3    A    
C9    N2    S    
C17   C23   S    
C18   C25   S    
C20   C26   S    
C8    H8    S    
O1    Zn1   S    
C4    C7    S    
C13   Br7   S    
C17   C26   S    
C10   C12   S    
C20   Br2   S    
C10   Br6   S    
N1    Zn1   S    
C16   O8    A    
C11   N1    S    
C9    Br5   S    
C23   C25   S    
C6    C8    S    
C21   C27   T    
C17   H1    S    
C11   C14   S    
C18   C24   S    
C15   C21   S    
C3    C8    S    
C2    C5    S    
C18   H2    S    
C19   C25   S    
C12   N2    S    
C1    C6    S    
O6    Zn2   S    
C6    C29   S    
C16   O6    A    
C18   C20   S    
C4    C6    S    
C5    C30   S    
C10   C14   S    
C2    O2    A    
C5    C7    S    
C9    C13   S    
C17   C19   S    
C3    C29   S    
C16   C22   S    
C29   Br3   S    
O3    Zn2   S    
O8    Zn1   S    
C30   Br4   S    
O4    Zn1   S    
C1    O1    A    
C4    C30   S    
C24   C26   S    
O7    Zn2   S    
C15   O7    A    
C3    C5    S    
N2    Zn2   S    
