data_mof_unit_55151.cif
_audit_creation_date              2012-12-10T18:59:17-0500
_audit_creation_method            fapswitch 2.2
_symmetry_space_group_name_H-M    P1
_symmetry_Int_Tables_number       1
_space_group_crystal_system       triclinic
_cell_length_a                    10.855725
_cell_length_b                    10.911399
_cell_length_c                    9.535091
_cell_angle_alpha                 89.777086
_cell_angle_beta                  87.320671
_cell_angle_gamma                 91.714069
_cell_volume                      1127.68712143

loop_
_atom_site_label
_atom_site_type_symbol
_atom_type_description
_atom_site_fract_x
_atom_site_fract_y
_atom_site_fract_z
_atom_type_partial_charge
Br1   Br    Br    0.405286 0.864805 0.206817 -0.587744
C1    C     C_R   0.499733 0.262155 0.499713 0.852587
C2    C     C_R   0.475523 0.936435 0.371244 0.166768
C3    C     C_R   0.489668 0.870322 0.497068 -0.194611
C4    C     C_R   0.261108 0.500251 0.504281 0.810166
C5    C     C_R   0.507625 0.934843 0.620923 -0.031592
C6    C     C_3   0.427082 0.927338 0.752467 -0.431119
C7    C     C_3   0.429208 0.066437 0.753522 0.383725
C8    C     C_R   0.532528 0.604014 0.070323 0.264137
C9    C     C_R   0.460407 0.400110 0.076815 -0.103272
C10   C     C_R   0.461659 0.399647 0.928154 -0.122490
C11   C     C_R   0.529639 0.604527 0.923334 0.190167
C12   C     C_R   0.051235 0.458614 0.635892 0.053744
C13   C     C_3   0.646555 0.677868 0.904526 -0.536014
C14   C     C_3   0.651726 0.678763 0.063794 0.280212
C15   C     C_R   0.493376 0.737185 0.499589 0.865138
C16   C     C_R   0.736258 0.486285 0.497869 0.782072
C17   C     C_R   0.094027 0.454642 0.774676 -0.295000
C18   C     C_R   0.018059 0.405386 0.888152 0.534597
C19   C     C_R   0.902617 0.355688 0.860614 -0.169201
C20   C     C_R   0.857225 0.364912 0.728037 -0.259371
C21   C     C_R   0.925190 0.428577 0.619575 0.104655
C22   C     C_3   0.236473 0.105764 0.852279 -0.289546
C23   C     C_R   0.125031 0.495355 0.513008 -0.095268
C24   C     C_3   0.859387 0.694013 0.098419 -0.332177
C25   C     C_3   0.173671 0.406815 0.048275 -0.354185
C26   C     C_3   0.610945 0.123355 0.175632 -0.306116
C27   C     C_R   0.067329 0.516035 0.386812 -0.194780
C28   C     C_R   0.941244 0.502155 0.379306 -0.178988
C29   C     C_R   0.868881 0.466006 0.496549 -0.117283
C30   C     C_R   0.509197 0.061823 0.621423 -0.048202
C31   C     C_R   0.502032 0.128528 0.496754 -0.200500
C32   C     C_R   0.495007 0.063669 0.368728 0.451274
Cu1   Cu    Cu3+1 0.499990 0.499980 0.640670 0.948224
Cu2   Cu    Cu3+1 0.500010 0.500020 0.359330 1.004741
H1    H     H_    0.119581 0.547004 0.293270 0.183995
H2    H     H_    0.845180 0.313573 0.944565 0.158881
H3    H     H_    0.766903 0.324052 0.712111 0.170002
H4    H     H_    0.899479 0.521842 0.282348 0.226974
H5    H     H_    0.335395 0.883547 0.734234 0.205748
H6    H     H_    0.283296 0.139846 0.946571 0.158634
H7    H     H_    0.203395 0.009406 0.870070 0.178180
H8    H     H_    0.154090 0.161584 0.838802 0.187474
H9    H     H_    0.862992 0.751258 0.194354 0.166199
H10   H     H_    0.863724 0.754278 0.003546 0.153512
H11   H     H_    0.943392 0.638719 0.090190 0.211865
H12   H     H_    0.473573 0.889089 0.843044 0.168960
H13   H     H_    0.216174 0.500426 0.036715 0.179839
H14   H     H_    0.219707 0.341263 0.976280 0.153063
H15   H     H_    0.187698 0.374165 0.156434 0.212290
H16   H     H_    0.608953 0.171325 0.073021 0.173080
H17   H     H_    0.640693 0.028199 0.154247 0.161914
H18   H     H_    0.679643 0.173056 0.239338 0.161304
H19   H     H_    0.478986 0.108941 0.841473 0.067971
H20   H     H_    0.425853 0.319949 0.133857 0.200515
H21   H     H_    0.430387 0.318459 0.874845 0.163351
H22   H     H_    0.721019 0.625398 0.850544 0.245264
H23   H     H_    0.634490 0.770005 0.859243 0.157289
H24   H     H_    0.641181 0.770879 0.112109 0.112887
H25   H     H_    0.180424 0.497651 0.799044 0.180117
N1    N     N_R   0.500790 0.500930 0.147930 -0.173552
N2    N     N_R   0.500790 0.500890 0.852020 -0.175400
O1    O     O_R   0.500000 0.319640 0.618810 -0.593193
O2    O     O_3   0.753807 0.614322 0.107926 -0.536105
O3    O     O_3   0.046425 0.409860 0.028919 -0.594482
O4    O     O_3   0.491848 0.124504 0.241655 -0.555454
O5    O     O_R   0.500010 0.319680 0.381230 -0.554535
O6    O     O_R   0.319640 0.499980 0.618820 -0.593548
O7    O     O_R   0.319650 0.500020 0.381230 -0.587010
O8    O     O_R   0.499990 0.680320 0.618770 -0.580674
O9    O     O_R   0.500000 0.680360 0.381190 -0.552940
O10   O     O_R   0.680350 0.499980 0.618770 -0.589564
O11   O     O_R   0.680360 0.500020 0.381180 -0.540075
O12   O     O_3   0.313252 0.116044 0.728961 -0.557525

loop_
_geom_bond_atom_site_label_1
_geom_bond_atom_site_label_2
_ccdc_geom_bond_type
C24   H10   S    
C18   C19   A    
C10   N2    A    
C6    C7    S    
C1    O1    A    
C22   H7    S    
C12   C17   A    
C8    N1    A    
C27   C28   A    
C17   C18   A    
C25   H15   S    
C2    C32   A    
Cu1   N2    S    
C22   H8    S    
C1    C31   S    
Cu1   Cu2   S    
C4    O7    A    
C20   H3    S    
C14   O2    S    
Cu1   O8    S    
C25   H13   S    
C5    C30   A    
Cu2   O9    S    
C20   C21   A    
C16   O11   A    
C16   C29   S    
C7    C30   S    
C15   O9    A    
C4    O6    A    
C24   H9    S    
C26   H16   S    
C32   O4    S    
C13   H23   S    
C15   O8    A    
C3    C5    A    
C1    O5    A    
C25   H14   S    
C7    H19   S    
C12   C23   A    
Br1   C2    S    
C24   O2    S    
C6    H12   S    
C3    C15   S    
C28   C29   A    
C11   N2    A    
C30   C31   A    
Cu2   O5    S    
C6    H5    S    
C28   H4    S    
C7    O12   S    
Cu2   N1    S    
C9    H20   S    
C27   H1    S    
C17   H25   S    
C11   C13   S    
C9    N1    A    
C22   O12   S    
Cu1   O6    S    
C2    C3    A    
Cu1   O10   S    
C26   H17   S    
C13   H22   S    
Cu2   O11   S    
C21   C29   A    
C25   O3    S    
C14   H24   S    
C23   C27   A    
C26   H18   S    
C5    C6    S    
C22   H6    S    
C31   C32   A    
C8    C14   S    
C26   O4    S    
C19   H2    S    
C4    C23   S    
Cu1   O1    S    
C12   C21   A    
C18   O3    S    
C8    C11   A    
C9    C10   A    
C19   C20   A    
Cu2   O7    S    
C16   O10   A    
C13   C14   S    
C24   H11   S    
C10   H21   S    
