data_mof_unit_64376.cif
_audit_creation_date              2012-10-26T17:26:41-0400
_audit_creation_method            fapswitch 2.2
_symmetry_space_group_name_H-M    P1
_symmetry_Int_Tables_number       1
_space_group_crystal_system       triclinic
_cell_length_a                    44.342177
_cell_length_b                    38.92802
_cell_length_c                    21.751495
_cell_angle_alpha                 89.958024
_cell_angle_beta                  61.633059
_cell_angle_gamma                 89.954795
_cell_volume                      33037.9327864

loop_
_atom_site_label
_atom_site_type_symbol
_atom_type_description
_atom_site_fract_x
_atom_site_fract_y
_atom_site_fract_z
_atom_type_partial_charge
C1    C     C_R   0.066196 0.499976 0.432159 0.567114
C2    C     C_R   0.018288 0.475858 0.199928 0.247058
C3    C     C_R   0.000381 0.500097 0.118320 0.584222
C4    C     C_R   0.499616 0.000243 0.881667 0.586877
C5    C     C_R   0.500385 0.000107 0.118309 0.586655
C6    C     C_R   0.999991 0.566117 0.999987 0.607143
C7    C     C_R   0.499981 0.066120 0.000149 0.602754
C8    C     C_R   0.500001 0.433811 0.000028 0.564765
C9    C     C_R   0.999993 0.933809 0.000026 0.563702
C10   C     C_R   0.433852 0.499445 0.065579 0.573270
C11   C     C_R   0.566169 0.499399 0.934418 0.571488
C12   C     C_R   0.933828 0.999391 0.065582 0.571400
C13   C     C_R   0.481095 0.976347 0.800794 0.245976
C14   C     C_R   0.066174 0.999397 0.934412 0.571130
C15   C     C_R   0.500005 0.566043 0.999973 0.540301
C16   C     C_R   0.999998 0.066046 0.999983 0.540464
C17   C     C_R   0.489119 0.621980 0.062545 -0.131378
C18   C     C_R   0.510958 0.621937 0.937135 -0.131106
C19   C     C_R   0.989328 0.121965 0.062563 -0.131415
C20   C     C_R   0.010674 0.121974 0.937302 -0.131405
C21   C     C_R   0.488888 0.657786 0.062542 -0.121206
C22   C     C_R   0.511235 0.657741 0.936952 -0.121202
C23   C     C_R   0.989094 0.157769 0.062627 -0.121327
C24   C     C_R   0.518428 0.975867 0.199708 0.246725
C25   C     C_R   0.010935 0.157780 0.937183 -0.121297
C26   C     C_R   0.500074 0.676070 0.999699 0.032967
C27   C     C_R   0.000025 0.176079 0.999891 0.033020
C28   C     C_R   0.056631 0.577577 0.669292 -0.085796
C29   C     C_R   0.943648 0.577859 0.330380 -0.086171
C30   C     C_R   0.559403 0.075344 0.665998 -0.056337
C31   C     C_R   0.442595 0.076957 0.331442 -0.082907
C32   C     C_R   0.500027 0.603787 0.999887 0.017941
C33   C     C_R   0.999997 0.103794 0.999946 0.017757
C34   C     C_R   0.491633 0.732412 0.954113 -0.119568
C35   C     C_R   0.998676 0.501861 0.816066 -0.028830
C36   C     C_R   0.508582 0.732404 0.045012 -0.119517
C37   C     C_R   0.991255 0.232445 0.954897 -0.119670
C38   C     C_R   0.008852 0.232381 0.044832 -0.119626
C39   C     C_R   0.991518 0.268245 0.954584 -0.082906
C40   C     C_R   0.008599 0.268180 0.045158 -0.082866
C41   C     C_R   0.491899 0.768212 0.953738 -0.083162
C42   C     C_R   0.508317 0.768202 0.045286 -0.083248
C43   C     C_R   0.000057 0.286160 0.999879 0.098013
C44   C     C_R   0.500102 0.786152 0.999497 0.097018
C45   C     C_R   0.500099 0.714096 0.999601 0.027130
C46   C     C_R   0.001354 0.501942 0.183927 -0.028521
C47   C     C_R   0.000047 0.214103 0.999868 0.027107
C48   C     C_R   0.974040 0.341741 0.056172 0.219938
C49   C     C_R   0.026046 0.341766 0.943678 0.219859
C50   C     C_R   0.473700 0.841703 0.055254 0.221972
C51   C     C_R   0.526382 0.841788 0.943951 0.222409
C52   C     C_R   0.974887 0.377813 0.057764 0.196456
C53   C     C_R   0.025175 0.377842 0.942136 0.196454
C54   C     C_R   0.474443 0.877760 0.056894 0.197563
C55   C     C_R   0.525618 0.877851 0.942608 0.197367
C56   C     C_R   0.000024 0.395971 0.999963 -0.055462
C57   C     C_R   0.498640 0.002085 0.816021 -0.027556
C58   C     C_R   0.500024 0.895967 0.999826 -0.057880
C59   C     C_R   0.000048 0.323830 0.999909 -0.050853
C60   C     C_R   0.500053 0.823819 0.999542 -0.051991
C61   C     C_R   0.525475 0.378266 0.007502 -0.141224
C62   C     C_R   0.474587 0.378152 0.993103 -0.142161
C63   C     C_R   0.025050 0.878166 0.008530 -0.141374
C64   C     C_R   0.974854 0.878237 0.991713 -0.141467
C65   C     C_R   0.047351 0.582680 0.739522 0.241600
C66   C     C_R   0.953033 0.583004 0.260084 0.240651
C67   C     C_R   0.551319 0.080797 0.735344 0.251368
C68   C     C_R   0.501367 0.001909 0.183894 -0.028665
C69   C     C_R   0.451985 0.082316 0.261225 0.239405
C70   C     C_R   0.525638 0.341990 0.008601 0.264596
C71   C     C_R   0.474401 0.341859 0.992716 0.263613
C72   C     C_R   0.025200 0.841880 0.009304 0.264467
C73   C     C_R   0.974663 0.841952 0.991006 0.264341
C74   C     C_R   0.500031 0.324072 0.000792 0.128377
C75   C     C_R   0.999926 0.824070 0.000159 0.129412
C76   C     C_R   0.500041 0.396145 0.000119 -0.062938
C77   C     C_R   0.999965 0.896139 0.000095 -0.063044
C78   C     C_R   0.477652 0.268064 0.061996 0.259154
C79   C     C_R   0.378018 0.481321 0.071948 0.271677
C80   C     C_R   0.522459 0.267905 0.940399 0.256169
C81   C     C_R   0.977468 0.767988 0.060888 0.258867
C82   C     C_R   0.022373 0.768009 0.939376 0.258854
C83   C     C_R   0.976535 0.731827 0.059937 0.224067
C84   C     C_R   0.023309 0.731846 0.940292 0.224239
C85   C     C_R   0.476668 0.231899 0.061276 0.224918
C86   C     C_R   0.523352 0.231744 0.941532 0.226612
C87   C     C_R   0.999924 0.713782 0.000108 -0.050801
C88   C     C_R   0.499968 0.213777 0.001492 -0.051701
C89   C     C_R   0.500054 0.286045 0.001074 0.032969
C90   C     C_R   0.622093 0.482716 0.929742 0.271912
C91   C     C_R   0.999922 0.786050 0.000142 0.033663
C92   C     C_R   0.013286 0.657876 0.037423 -0.094083
C93   C     C_R   0.986604 0.657928 0.962729 -0.093879
C94   C     C_R   0.514315 0.157746 0.036517 -0.099026
C95   C     C_R   0.485302 0.158078 0.966194 -0.080361
C96   C     C_R   0.014580 0.621799 0.035533 0.219535
C97   C     C_R   0.985352 0.621863 0.964551 0.218191
C98   C     C_R   0.515580 0.121689 0.034219 0.211715
C99   C     C_R   0.484129 0.122019 0.967628 0.209646
C100  C     C_R   0.999969 0.603819 0.000032 0.059668
C101  C     C_R   0.877931 0.982872 0.070026 0.271999
C102  C     C_R   0.499885 0.103823 0.000705 0.034758
C103  C     C_R   0.028731 0.557313 0.787822 -0.056279
C104  C     C_R   0.971518 0.557548 0.211882 -0.057851
C105  C     C_R   0.530234 0.056758 0.785813 -0.084356
C106  C     C_R   0.471004 0.057246 0.212504 -0.058594
C107  C     C_R   0.999933 0.675911 0.000094 0.013967
C108  C     C_R   0.499804 0.175917 0.001526 0.011515
C109  C     C_R   0.015895 0.528459 0.768262 -0.129403
C110  C     C_R   0.984247 0.528629 0.231563 -0.130227
C111  C     C_R   0.516747 0.028073 0.767200 -0.121082
C112  C     C_R   0.933791 0.500012 0.567975 0.551523
C113  C     C_R   0.122155 0.983192 0.930083 0.271977
C114  C     C_R   0.483998 0.028404 0.231838 -0.127941
C115  C     C_R   0.020861 0.525917 0.699299 -0.049576
C116  C     C_R   0.979263 0.526087 0.300538 -0.051259
C117  C     C_R   0.521800 0.025086 0.698308 -0.048452
C118  C     C_R   0.478992 0.025729 0.300805 -0.050875
C119  C     C_R   0.002570 0.500128 0.683948 -0.043926
C120  C     C_R   0.997553 0.500304 0.315955 -0.043075
C121  C     C_R   0.502612 0.999983 0.683886 -0.043856
C122  C     C_R   0.497528 0.000120 0.315957 -0.044950
C123  C     C_3   0.932326 0.461927 0.736312 0.027457
C124  C     C_R   0.342153 0.477771 0.110745 0.281014
C125  C     C_3   0.909037 0.431462 0.744159 -0.246076
C126  C     C_3   0.871515 0.442491 0.777147 -0.493536
C127  C     C_3   0.068088 0.463311 0.263806 0.025099
C128  C     C_3   0.091105 0.433405 0.260854 -0.246733
C129  C     C_3   0.128619 0.444334 0.228364 -0.492668
C130  C     C_3   0.431334 0.963907 0.737130 0.026724
C131  C     C_3   0.407126 0.934174 0.745783 -0.246044
C132  C     C_3   0.369895 0.946240 0.779467 -0.492825
C133  C     C_3   0.568091 0.962484 0.263255 0.027027
C134  C     C_3   0.591662 0.932229 0.255329 -0.245828
C135  C     C_R   0.657955 0.479080 0.891364 0.281321
C136  C     C_3   0.629121 0.943500 0.221662 -0.493379
C137  C     C_3   0.209690 0.510700 0.430826 -0.130976
C138  C     C_3   0.790899 0.502950 0.568077 -0.131016
C139  C     C_3   0.708868 0.001992 0.431776 -0.132376
C140  C     C_3   0.290775 0.000666 0.567254 -0.131114
C141  C     C_3   0.105472 0.553799 0.276526 0.024704
C142  C     C_3   0.075481 0.574544 0.279621 -0.259687
C143  C     C_3   0.071959 0.569831 0.213624 -0.492249
C144  C     C_3   0.906823 0.557383 0.694972 0.039850
C145  C     C_3   0.879049 0.563616 0.770490 -0.261944
C146  C     C_R   0.842076 0.979193 0.108331 0.281290
C147  C     C_3   0.894523 0.565068 0.819938 -0.502669
C148  C     C_3   0.593186 0.057867 0.305468 0.039798
C149  C     C_3   0.621021 0.063954 0.229925 -0.262739
C150  C     C_3   0.605568 0.065714 0.180461 -0.501911
C151  C     C_3   0.406047 0.058752 0.693220 0.040275
C152  C     C_3   0.377820 0.065319 0.768209 -0.262831
C153  C     C_3   0.392734 0.067591 0.818537 -0.500015
C154  C     C_3   0.180984 0.579486 0.319842 -0.111005
C155  C     C_3   0.817184 0.577843 0.667198 -0.105956
C156  C     C_3   0.682789 0.077592 0.333701 -0.105017
C157  C     C_R   0.158003 0.979456 0.891688 0.281359
C158  C     C_3   0.317040 0.077378 0.662585 -0.105175
C159  C     C_3   0.088988 0.519901 0.561816 -0.115384
C160  C     C_3   0.911326 0.519682 0.437346 -0.112131
C161  C     C_3   0.589190 0.015772 0.561715 -0.117002
C162  C     C_3   0.411192 0.018030 0.437022 -0.112927
C163  C     C_3   0.919819 0.321435 0.101011 -0.099351
C164  C     C_3   0.080281 0.321439 0.898846 -0.099395
C165  C     C_3   0.419656 0.821124 0.098345 -0.098186
C166  C     C_3   0.580440 0.821149 0.900658 -0.098310
C167  C     C_3   0.959417 0.395725 0.168352 0.030343
C168  C     C_R   0.324002 0.494762 0.175631 -0.013926
C169  C     C_3   0.934893 0.419292 0.227091 -0.255944
C170  C     C_3   0.941286 0.417866 0.290085 -0.476297
C171  C     C_3   0.040681 0.395797 0.831516 0.030236
C172  C     C_3   0.065206 0.419371 0.772785 -0.256074
C173  C     C_3   0.058918 0.417890 0.709667 -0.476525
C174  C     C_3   0.458151 0.896899 0.167004 0.032160
C175  C     C_3   0.432111 0.919366 0.225986 -0.256366
C176  C     C_3   0.438549 0.919560 0.288959 -0.475706
C177  C     C_3   0.541895 0.897613 0.832876 0.033627
C178  C     C_3   0.568287 0.919794 0.773819 -0.257157
C179  C     C_R   0.676067 0.494448 0.824749 -0.014415
C180  C     C_3   0.561721 0.920614 0.711026 -0.476318
C181  C     C_3   0.562299 0.337858 0.057442 -0.142329
C182  C     C_3   0.437244 0.337524 0.945017 -0.141930
C183  C     C_3   0.061358 0.837625 0.059376 -0.142662
C184  C     C_3   0.938453 0.837840 0.941040 -0.142831
C185  C     C_3   0.468767 0.287583 0.167465 -0.107584
C186  C     C_3   0.531339 0.287384 0.834865 -0.102303
C187  C     C_3   0.968154 0.787173 0.166880 -0.107855
C188  C     C_3   0.031677 0.787304 0.833417 -0.107779
C189  C     C_3   0.922566 0.710624 0.117648 -0.098200
C190  C     C_R   0.823927 0.994334 0.175135 -0.014422
C191  C     C_3   0.077280 0.710600 0.882540 -0.098555
C192  C     C_3   0.422567 0.211087 0.120005 -0.098442
C193  C     C_3   0.577283 0.210417 0.883268 -0.092500
C194  C     C_3   0.062503 0.609529 0.045166 -0.128838
C195  C     C_3   0.937326 0.608992 0.955999 -0.126531
C196  C     C_3   0.565036 0.108100 0.036365 -0.126469
C197  C     C_3   0.435041 0.108652 0.963827 -0.110394
C198  C     C_3   0.042004 0.639954 0.760784 -0.109408
C199  C     C_3   0.958865 0.640251 0.238646 -0.110157
C200  C     C_3   0.575085 0.104228 0.800881 -0.101639
C201  C     C_R   0.176067 0.994232 0.824494 -0.014480
C202  C     C_3   0.457869 0.139335 0.237960 -0.110654
C203  C     C_3   0.932737 0.454222 0.891589 -0.087292
C204  C     C_3   0.067137 0.453493 0.109248 -0.087502
C205  C     C_3   0.431519 0.955798 0.892369 -0.084625
C206  C     C_3   0.567535 0.954412 0.108249 -0.086470
C207  C     C_3   0.392609 0.485177 0.956926 -0.091516
C208  C     C_3   0.607423 0.490083 0.044152 -0.090512
C209  C     C_3   0.892607 0.990727 0.955716 -0.090765
C210  C     C_3   0.107582 0.991808 0.044110 -0.090519
C211  C     C_3   0.316372 0.425927 0.116427 0.016061
C212  C     C_R   0.342251 0.511799 0.204307 -0.187223
C213  C     C_3   0.345582 0.400110 0.078410 -0.254893
C214  C     C_3   0.334880 0.363927 0.107720 -0.492010
C215  C     C_3   0.684208 0.428217 0.891132 0.016440
C216  C     C_3   0.655285 0.402476 0.931629 -0.255005
C217  C     C_3   0.666396 0.365861 0.905723 -0.492237
C218  C     C_3   0.815923 0.928427 0.107833 0.016335
C219  C     C_3   0.844905 0.902775 0.067007 -0.254972
C220  C     C_3   0.833866 0.866078 0.092382 -0.492324
C221  C     C_3   0.184261 0.928883 0.893246 0.016393
C222  C     C_3   0.155348 0.903305 0.934831 -0.254854
C223  C     C_R   0.566205 0.999997 0.431863 0.554029
C224  C     C_R   0.657833 0.509868 0.794234 -0.187490
C225  C     C_3   0.166418 0.866517 0.910262 -0.492343
C226  C     C_R   0.842121 0.009547 0.205887 -0.187713
C227  C     C_R   0.157803 0.009156 0.793562 -0.187620
C228  C     C_R   0.377911 0.512802 0.168580 -0.196852
C229  C     C_R   0.622169 0.510980 0.829901 -0.196711
C230  C     C_R   0.877786 0.010694 0.170258 -0.196968
C231  C     C_R   0.122146 0.010365 0.829357 -0.196778
C232  C     C_R   0.396094 0.497944 0.102170 -0.016899
C233  C     C_R   0.603967 0.497784 0.897876 -0.018258
C234  C     C_R   0.896027 0.997739 0.102104 -0.018473
C235  C     C_R   0.433780 0.000015 0.567908 0.552502
C236  C     C_R   0.103979 0.997751 0.897826 -0.018723
C237  C     C_R   0.267787 0.504029 0.177630 -0.109970
C238  C     C_R   0.732066 0.506267 0.821732 -0.108595
C239  C     C_R   0.767961 0.006426 0.178155 -0.108558
C240  C     C_R   0.232092 0.006711 0.820759 -0.108289
C241  C     C_R   0.001560 0.500001 0.617559 0.584981
C242  C     C_R   0.998415 0.500045 0.382478 0.590967
C243  C     C_R   0.501522 0.999972 0.617587 0.588468
C244  C     C_R   0.498511 0.000010 0.382369 0.586233
C245  C     C_R   0.232096 0.504801 0.212867 -0.134770
C246  C     C_R   0.982547 0.475603 0.735285 0.225932
C247  C     C_R   0.767752 0.506996 0.786729 -0.135535
C248  C     C_R   0.732275 0.007144 0.213062 -0.135593
C249  C     C_R   0.267770 0.007456 0.785619 -0.135203
C250  C     C_R   0.213994 0.497495 0.284596 0.050511
C251  C     C_R   0.785999 0.496998 0.716444 0.048589
C252  C     C_R   0.713993 0.996851 0.283172 0.048722
C253  C     C_R   0.285973 0.996770 0.715763 0.048938
C254  C     C_R   0.232303 0.489214 0.320958 0.274463
C255  C     C_R   0.767876 0.486096 0.681246 0.274909
C256  C     C_R   0.732079 0.985662 0.318296 0.275101
C257  C     C_R   0.017755 0.475919 0.264565 0.226459
C258  C     C_R   0.267818 0.985115 0.681158 0.275015
C259  C     C_R   0.268156 0.487808 0.284768 -0.110065
C260  C     C_R   0.732014 0.484897 0.717234 -0.110831
C261  C     C_R   0.767946 0.984486 0.282400 -0.110919
C262  C     C_R   0.231955 0.983926 0.717298 -0.110945
C263  C     C_R   0.286105 0.495393 0.213170 -0.010115
C264  C     C_R   0.713930 0.495122 0.787374 -0.010106
C265  C     C_R   0.786064 0.995004 0.212434 -0.009966
C266  C     C_R   0.213920 0.994868 0.786981 -0.010020
C267  C     C_R   0.157562 0.470304 0.360564 -0.159775
C268  C     C_R   0.481873 0.976096 0.735931 0.226603
C269  C     C_R   0.842601 0.469029 0.645986 -0.160701
C270  C     C_R   0.657396 0.968808 0.352971 -0.161227
C271  C     C_R   0.342647 0.968730 0.646510 -0.160757
C272  C     C_R   0.121930 0.470952 0.396158 -0.226271
C273  C     C_R   0.878217 0.469851 0.610470 -0.223494
C274  C     C_R   0.621781 0.969655 0.388479 -0.224649
C275  C     C_R   0.378264 0.969608 0.611234 -0.223071
C276  C     C_R   0.103937 0.499736 0.391996 -0.036897
C277  C     C_R   0.896044 0.499815 0.609474 -0.051504
C278  C     C_R   0.603947 0.999757 0.390108 -0.050387
C279  C     C_R   0.517725 0.975730 0.264501 0.227068
C280  C     C_R   0.396010 0.999819 0.609160 -0.051037
C281  C     C_R   0.122256 0.527814 0.349503 0.259495
C282  C     C_R   0.877348 0.529124 0.647051 0.269803
C283  C     C_R   0.622644 0.029158 0.352996 0.271164
C284  C     C_R   0.377198 0.029359 0.645339 0.270090
C285  C     C_R   0.158372 0.527806 0.316143 0.260860
C286  C     C_R   0.841329 0.528723 0.679602 0.270674
C287  C     C_R   0.658664 0.028707 0.320448 0.270409
C288  C     C_R   0.341192 0.028865 0.677522 0.269696
C289  C     C_R   0.044975 0.548713 0.648316 0.264463
C290  C     C_R   0.981792 0.475747 0.800115 0.247907
C291  C     C_R   0.955148 0.548892 0.351472 0.263026
C292  C     C_R   0.546680 0.046854 0.646421 0.260267
C293  C     C_R   0.454540 0.048158 0.352081 0.264543
C294  C     C_R   0.176109 0.498620 0.320860 0.002902
C295  C     C_R   0.823849 0.498311 0.680323 -0.002135
C296  C     C_R   0.676144 0.998182 0.319210 -0.002323
C297  C     C_R   0.323811 0.998190 0.679493 -0.002400
C298  C     C_R   0.000007 0.433791 0.999990 0.611487
C299  C     C_R   0.500008 0.933790 0.999974 0.608053
C300  C     C_R   0.999621 0.500059 0.881689 0.583509
Cu1   Cu    Cu3+1 1.000000 0.534200 0.500000 1.027064
Cu2   Cu    Cu3+1 0.500000 0.499920 0.938200 0.930063
Cu3   Cu    Cu3+1 0.000000 0.999920 0.061800 0.930637
Cu4   Cu    Cu3+1 1.000000 0.999920 0.938200 0.930222
Cu5   Cu    Cu3+1 0.500000 0.034200 0.500000 1.031591
Cu6   Cu    Cu3+1 1.000000 0.465790 0.500000 0.953489
Cu7   Cu    Cu3+1 0.500000 0.965790 0.500000 0.955906
Cu8   Cu    Cu3+1 0.965790 0.499980 0.034190 0.942084
Cu9   Cu    Cu3+1 0.034210 0.499980 0.965810 0.944275
Cu10  Cu    Cu3+1 0.465790 0.999980 0.034190 0.941457
Cu11  Cu    Cu3+1 0.534210 0.999980 0.965810 0.914176
Cu12  Cu    Cu3+1 0.500000 0.499920 0.061800 0.931565
H1    H     H_    0.391317 0.525973 0.192264 0.141199
H2    H     H_    0.781199 0.515236 0.814689 0.141964
H3    H     H_    0.266684 0.014657 0.579146 0.104708
H4    H     H_    0.103298 0.526907 0.261596 0.085042
H5    H     H_    0.129833 0.564898 0.235363 0.177133
H6    H     H_    0.051341 0.566141 0.325339 0.202433
H7    H     H_    0.079349 0.602219 0.286295 0.163223
H8    H     H_    0.095741 0.578242 0.166916 0.137687
H9    H     H_    0.050165 0.585494 0.217543 0.161703
H10   H     H_    0.066850 0.542469 0.207381 0.135297
H11   H     H_    0.926664 0.577676 0.680383 0.159661
H12   H     H_    0.920044 0.532682 0.691235 0.091852
H13   H     H_    0.718854 0.015609 0.185165 0.141672
H14   H     H_    0.865722 0.588251 0.773547 0.197784
H15   H     H_    0.859946 0.542475 0.787602 0.167518
H16   H     H_    0.907825 0.540578 0.817993 0.133668
H17   H     H_    0.873861 0.569196 0.874259 0.143998
H18   H     H_    0.913102 0.586596 0.805389 0.149597
H19   H     H_    0.573545 0.078388 0.320003 0.160294
H20   H     H_    0.579719 0.033343 0.309276 0.091944
H21   H     H_    0.634558 0.088434 0.226802 0.198480
H22   H     H_    0.639942 0.042627 0.212863 0.166415
H23   H     H_    0.592057 0.041380 0.182479 0.133907
H24   H     H_    0.281250 0.016265 0.813132 0.141516
H25   H     H_    0.626269 0.069724 0.126130 0.142823
H26   H     H_    0.587177 0.087429 0.194935 0.151530
H27   H     H_    0.425653 0.079292 0.678567 0.162702
H28   H     H_    0.419429 0.034304 0.690631 0.092223
H29   H     H_    0.364401 0.089740 0.770122 0.199424
H30   H     H_    0.358884 0.044024 0.785456 0.167062
H31   H     H_    0.406071 0.043301 0.817795 0.134043
H32   H     H_    0.371758 0.071981 0.872438 0.144065
H33   H     H_    0.411159 0.089263 0.803856 0.157351
H34   H     H_    0.192922 0.603020 0.289102 0.137266
H35   H     H_    0.281947 0.480647 0.312710 0.121944
H36   H     H_    0.156250 0.587192 0.365337 0.145169
H37   H     H_    0.198789 0.569007 0.337809 0.100142
H38   H     H_    0.805889 0.602691 0.692690 0.137712
H39   H     H_    0.841246 0.583673 0.618365 0.143425
H40   H     H_    0.798324 0.565083 0.654789 0.098350
H41   H     H_    0.694093 0.102512 0.308622 0.138303
H42   H     H_    0.658716 0.083297 0.382603 0.145134
H43   H     H_    0.701635 0.064631 0.345943 0.097945
H44   H     H_    0.305704 0.102432 0.686829 0.138353
H45   H     H_    0.341146 0.082831 0.613576 0.143877
H46   H     H_    0.718318 0.475788 0.690371 0.122064
H47   H     H_    0.298242 0.064142 0.650647 0.098184
H48   H     H_    0.080553 0.492717 0.573862 0.118703
H49   H     H_    0.103829 0.527388 0.589185 0.095886
H50   H     H_    0.107058 0.522043 0.505347 0.143017
H51   H     H_    0.895778 0.528051 0.412038 0.095100
H52   H     H_    0.893818 0.520362 0.494235 0.143501
H53   H     H_    0.920215 0.492791 0.422227 0.116612
H54   H     H_    0.579316 0.989084 0.575210 0.120575
H55   H     H_    0.604325 0.022514 0.588874 0.086329
H56   H     H_    0.607449 0.016852 0.505233 0.144359
H57   H     H_    0.781619 0.975164 0.309187 0.121678
H58   H     H_    0.395803 0.025865 0.411019 0.094295
H59   H     H_    0.393347 0.018627 0.493752 0.143004
H60   H     H_    0.420609 0.991270 0.422117 0.118158
H61   H     H_    0.925999 0.307643 0.051589 0.101385
H62   H     H_    0.908932 0.347227 0.101215 0.150208
H63   H     H_    0.899764 0.306431 0.144618 0.135089
H64   H     H_    0.074105 0.307609 0.948258 0.101425
H65   H     H_    0.091148 0.347219 0.898676 0.150196
H66   H     H_    0.100351 0.306451 0.855230 0.135135
H67   H     H_    0.426337 0.807187 0.048829 0.101167
H68   H     H_    0.218221 0.974271 0.690927 0.121864
H69   H     H_    0.408775 0.846829 0.097843 0.150384
H70   H     H_    0.399411 0.806135 0.141652 0.134820
H71   H     H_    0.573773 0.807068 0.950046 0.100918
H72   H     H_    0.591311 0.846809 0.901381 0.150037
H73   H     H_    0.600689 0.806230 0.857213 0.134752
H74   H     H_    0.986017 0.405587 0.148806 0.165186
H75   H     H_    0.957630 0.369378 0.189764 0.174790
H76   H     H_    0.938292 0.446129 0.207511 0.192365
H77   H     H_    0.908007 0.411417 0.243830 0.174579
H78   H     H_    0.935400 0.391810 0.313733 0.151891
H79   H     H_    0.170738 0.447540 0.364016 0.168181
H80   H     H_    0.924530 0.436782 0.329915 0.139389
H81   H     H_    0.968378 0.424109 0.274367 0.198568
H82   H     H_    0.014075 0.405661 0.850986 0.165045
H83   H     H_    0.042508 0.369454 0.810116 0.175023
H84   H     H_    0.061723 0.446213 0.792305 0.192233
H85   H     H_    0.092096 0.411535 0.756203 0.174990
H86   H     H_    0.064955 0.391849 0.686006 0.151715
H87   H     H_    0.075613 0.436862 0.669891 0.139880
H88   H     H_    0.031809 0.424017 0.725259 0.198575
H89   H     H_    0.484072 0.908481 0.147811 0.164954
H90   H     H_    0.829596 0.445394 0.646560 0.167514
H91   H     H_    0.457927 0.870740 0.187996 0.171953
H92   H     H_    0.433719 0.946087 0.206663 0.190792
H93   H     H_    0.405817 0.909544 0.242649 0.174401
H94   H     H_    0.434838 0.893400 0.311842 0.154185
H95   H     H_    0.420268 0.937380 0.329337 0.138357
H96   H     H_    0.465007 0.928234 0.273441 0.192602
H97   H     H_    0.516176 0.909724 0.852242 0.164461
H98   H     H_    0.541620 0.871584 0.811907 0.171128
H99   H     H_    0.567225 0.946416 0.793159 0.188964
H100  H     H_    0.594406 0.909385 0.756949 0.173728
H101  H     H_    0.670405 0.945088 0.351976 0.167387
H102  H     H_    0.564823 0.894513 0.688191 0.155006
H103  H     H_    0.580337 0.938172 0.670549 0.136591
H104  H     H_    0.535442 0.929964 0.726732 0.189649
H105  H     H_    0.540518 0.347948 0.106304 0.102804
H106  H     H_    0.581543 0.358275 0.029897 0.126592
H107  H     H_    0.575116 0.317749 0.072936 0.133238
H108  H     H_    0.458776 0.347712 0.895892 0.103437
H109  H     H_    0.417930 0.357834 0.973016 0.126584
H110  H     H_    0.424360 0.317348 0.929930 0.135171
H111  H     H_    0.039485 0.847845 0.107937 0.102533
H112  H     H_    0.608789 0.522937 0.804811 0.142674
H113  H     H_    0.329711 0.944902 0.648039 0.167420
H114  H     H_    0.080751 0.857933 0.031932 0.126557
H115  H     H_    0.073931 0.817478 0.075373 0.132767
H116  H     H_    0.960313 0.848056 0.892454 0.102640
H117  H     H_    0.919075 0.858167 0.968529 0.126625
H118  H     H_    0.925851 0.817742 0.925082 0.132904
H119  H     H_    0.494312 0.300257 0.143072 0.116789
H120  H     H_    0.470531 0.261627 0.186937 0.149854
H121  H     H_    0.451374 0.303243 0.213309 0.133987
H122  H     H_    0.505950 0.300394 0.859175 0.116627
H123  H     H_    0.529225 0.261435 0.815879 0.160679
H124  H     H_    0.108399 0.448921 0.427582 0.147643
H125  H     H_    0.548872 0.302790 0.788713 0.135368
H126  H     H_    0.993776 0.799677 0.142965 0.117584
H127  H     H_    0.969641 0.761150 0.186415 0.149589
H128  H     H_    0.950713 0.802864 0.212622 0.133346
H129  H     H_    0.006061 0.799846 0.857355 0.117662
H130  H     H_    0.030176 0.761308 0.813866 0.149730
H131  H     H_    0.049121 0.803004 0.787683 0.133351
H132  H     H_    0.925857 0.696136 0.070750 0.099726
H133  H     H_    0.910682 0.736108 0.119945 0.163169
H134  H     H_    0.904576 0.695831 0.164372 0.138192
H135  H     H_    0.891836 0.446950 0.583056 0.151817
H136  H     H_    0.073997 0.696071 0.929422 0.099762
H137  H     H_    0.089162 0.736064 0.880256 0.163351
H138  H     H_    0.095268 0.695821 0.835801 0.137736
H139  H     H_    0.425486 0.196806 0.073167 0.098879
H140  H     H_    0.410760 0.236675 0.122894 0.164753
H141  H     H_    0.404691 0.196242 0.166758 0.137086
H142  H     H_    0.574156 0.196018 0.930169 0.088420
H143  H     H_    0.589253 0.235882 0.880516 0.162189
H144  H     H_    0.595125 0.195515 0.836583 0.132931
H145  H     H_    0.067751 0.635830 0.057500 0.098596
H146  H     H_    0.608169 0.946674 0.415481 0.151573
H147  H     H_    0.076323 0.604986 0.987692 0.129234
H148  H     H_    0.072869 0.591113 0.069345 0.137203
H149  H     H_    0.931274 0.635582 0.946709 0.098204
H150  H     H_    0.923950 0.602984 0.012922 0.130385
H151  H     H_    0.927199 0.591226 0.930328 0.138039
H152  H     H_    0.571976 0.134717 0.043261 0.097730
H153  H     H_    0.576872 0.101494 0.979806 0.114144
H154  H     H_    0.576021 0.090468 0.060658 0.139018
H155  H     H_    0.428038 0.135377 0.957677 0.101571
H156  H     H_    0.422961 0.101522 0.020159 0.127151
H157  H     H_    0.391946 0.946531 0.584914 0.151875
H158  H     H_    0.424370 0.091342 0.938474 0.137742
H159  H     H_    0.013906 0.636827 0.795140 0.150665
H160  H     H_    0.047462 0.647229 0.707011 0.098504
H161  H     H_    0.050592 0.661449 0.782148 0.180498
H162  H     H_    0.986954 0.636861 0.204520 0.148189
H163  H     H_    0.953355 0.647495 0.292449 0.098482
H164  H     H_    0.950539 0.661881 0.217026 0.181581
H165  H     H_    0.589324 0.079526 0.791508 0.096049
H166  H     H_    0.553186 0.105152 0.854550 0.140271
H167  H     H_    0.592924 0.125102 0.796989 0.134147
H168  H     H_    0.480266 0.608540 0.111738 0.123726
H169  H     H_    0.485693 0.135832 0.201406 0.152861
H170  H     H_    0.453842 0.146656 0.290770 0.101177
H171  H     H_    0.448730 0.160950 0.217873 0.181380
H172  H     H_    0.924835 0.481756 0.896602 0.093852
H173  H     H_    0.927217 0.445156 0.944278 0.147782
H174  H     H_    0.916660 0.438842 0.875474 0.124306
H175  H     H_    0.075320 0.480956 0.102973 0.093628
H176  H     H_    0.072810 0.443834 0.056867 0.146372
H177  H     H_    0.082817 0.438224 0.126652 0.126666
H178  H     H_    0.424206 0.983502 0.897106 0.093257
H179  H     H_    0.519794 0.608462 0.888009 0.123947
H180  H     H_    0.425575 0.946648 0.945252 0.147322
H181  H     H_    0.415299 0.940874 0.875943 0.124965
H182  H     H_    0.575337 0.981972 0.103047 0.093369
H183  H     H_    0.573118 0.945244 0.055605 0.147891
H184  H     H_    0.583639 0.939145 0.124533 0.124623
H185  H     H_    0.409404 0.473934 0.904779 0.126193
H186  H     H_    0.401123 0.512158 0.956231 0.111975
H187  H     H_    0.365955 0.484799 0.964759 0.150557
H188  H     H_    0.590753 0.480002 0.097461 0.126393
H189  H     H_    0.598642 0.516660 0.041972 0.111255
H190  H     H_    0.980674 0.108509 0.111684 0.123859
H191  H     H_    0.634088 0.490590 0.036257 0.150133
H192  H     H_    0.909283 0.980821 0.902271 0.126017
H193  H     H_    0.901372 0.017247 0.958257 0.111046
H194  H     H_    0.865941 0.991330 0.963623 0.149764
H195  H     H_    0.091031 0.982136 0.097820 0.126241
H196  H     H_    0.098673 0.018207 0.041035 0.111030
H197  H     H_    0.134284 0.992646 0.035964 0.149748
H198  H     H_    0.293388 0.416681 0.113515 0.150462
H199  H     H_    0.309032 0.426838 0.173099 0.123271
H200  H     H_    0.353167 0.399960 0.021804 0.184364
H201  H     H_    0.019319 0.108524 0.888203 0.123887
H202  H     H_    0.368149 0.407766 0.084481 0.188318
H203  H     H_    0.327557 0.363436 0.164159 0.155612
H204  H     H_    0.356626 0.345945 0.079611 0.164990
H205  H     H_    0.312869 0.355120 0.100769 0.143120
H206  H     H_    0.707261 0.420092 0.895040 0.150388
H207  H     H_    0.691602 0.427498 0.834426 0.123468
H208  H     H_    0.647725 0.403826 0.988162 0.184679
H209  H     H_    0.632623 0.409012 0.924952 0.187656
H210  H     H_    0.673646 0.363858 0.849445 0.156506
H211  H     H_    0.644892 0.347891 0.935630 0.160078
H212  H     H_    0.479513 0.671116 0.111921 0.105466
H213  H     H_    0.688559 0.358225 0.913268 0.143063
H214  H     H_    0.792898 0.920396 0.103775 0.150242
H215  H     H_    0.808512 0.927476 0.164537 0.123379
H216  H     H_    0.852483 0.904360 0.010485 0.184632
H217  H     H_    0.867541 0.909201 0.073820 0.187682
H218  H     H_    0.826600 0.863839 0.148640 0.156361
H219  H     H_    0.855413 0.848176 0.062242 0.159719
H220  H     H_    0.811730 0.858552 0.084688 0.143060
H221  H     H_    0.207348 0.921058 0.897311 0.150309
H222  H     H_    0.191581 0.927579 0.836614 0.123360
H223  H     H_    0.891133 0.022494 0.195529 0.142601
H224  H     H_    0.520625 0.671034 0.887505 0.105462
H225  H     H_    0.147870 0.905226 0.991263 0.184923
H226  H     H_    0.132642 0.909522 0.928082 0.187565
H227  H     H_    0.173569 0.863938 0.854120 0.156521
H228  H     H_    0.144928 0.848665 0.940966 0.158441
H229  H     H_    0.188638 0.859213 0.917887 0.143229
H230  H     H_    0.979918 0.171081 0.111981 0.105348
H231  H     H_    0.020120 0.171099 0.887810 0.105378
H232  H     H_    0.484375 0.719116 0.919440 0.100439
H233  H     H_    0.515833 0.719103 0.079731 0.100335
H234  H     H_    0.983751 0.219168 0.920584 0.100179
H235  H     H_    0.016351 0.219053 0.079145 0.100237
H236  H     H_    0.984680 0.282027 0.919690 0.109512
H237  H     H_    0.015437 0.281912 0.080062 0.109527
H238  H     H_    0.485312 0.781974 0.918450 0.110007
H239  H     H_    0.108749 0.021933 0.803921 0.143062
H240  H     H_    0.514890 0.781957 0.080559 0.109680
H241  H     H_    0.545433 0.392834 0.010801 0.130120
H242  H     H_    0.454623 0.392656 0.989621 0.131655
H243  H     H_    0.044772 0.892677 0.012820 0.129484
H244  H     H_    0.955149 0.892805 0.987396 0.130020
H245  H     H_    0.022892 0.671898 0.067499 0.115380
H246  H     H_    0.976963 0.671972 0.932686 0.116487
H247  H     H_    0.524920 0.171624 0.064966 0.117020
H248  H     H_    0.474756 0.172223 0.937898 0.133330
H249  H     H_    0.074346 0.595171 0.630268 0.131085
H250  H     H_    0.281133 0.510376 0.122546 0.148717
H251  H     H_    0.925986 0.595516 0.369328 0.132244
H252  H     H_    0.577235 0.092501 0.626045 0.145145
H253  H     H_    0.424626 0.094319 0.370643 0.133730
H254  H     H_    0.023938 0.560840 0.841020 0.187316
H255  H     H_    0.976310 0.561054 0.158675 0.187904
H256  H     H_    0.523659 0.060909 0.839820 0.162234
H257  H     H_    0.475947 0.060974 0.159235 0.184899
H258  H     H_    0.328833 0.524722 0.254252 0.124407
H259  H     H_    0.671275 0.521479 0.742902 0.124653
H260  H     H_    0.828647 0.020976 0.257371 0.124387
H261  H     H_    0.718568 0.514594 0.875678 0.147011
H262  H     H_    0.171218 0.020312 0.741795 0.124657
H263  H     H_    0.934411 0.477881 0.692366 0.128387
H264  H     H_    0.920199 0.477674 0.784941 0.096647
H265  H     H_    0.916842 0.420102 0.691854 0.170149
H266  H     H_    0.911747 0.411416 0.777614 0.176754
H267  H     H_    0.862268 0.450124 0.832425 0.136349
H268  H     H_    0.855620 0.420789 0.775763 0.149326
H269  H     H_    0.868390 0.464593 0.748468 0.154897
H270  H     H_    0.065487 0.481086 0.305885 0.131946
H271  H     H_    0.080657 0.477497 0.213245 0.095214
H272  H     H_    0.781487 0.014975 0.124347 0.146646
H273  H     H_    0.082601 0.423634 0.314640 0.174202
H274  H     H_    0.088863 0.412176 0.229113 0.176559
H275  H     H_    0.138422 0.450889 0.172375 0.135951
H276  H     H_    0.144225 0.422946 0.232181 0.150670
H277  H     H_    0.131502 0.467045 0.255802 0.152162
H278  H     H_    0.433975 0.979769 0.692654 0.126603
H279  H     H_    0.419660 0.980052 0.785250 0.096651
H280  H     H_    0.414343 0.922865 0.693689 0.169807
H281  H     H_    0.409499 0.913840 0.779120 0.177607
H282  H     H_    0.361097 0.953668 0.834696 0.135983
H283  H     H_    0.218625 0.015580 0.874341 0.146769
H284  H     H_    0.353333 0.925143 0.778339 0.149887
H285  H     H_    0.367196 0.968732 0.751132 0.153579
H286  H     H_    0.565886 0.978492 0.307188 0.126785
H287  H     H_    0.580053 0.978269 0.214637 0.096677
H288  H     H_    0.584136 0.921028 0.307671 0.169887
H289  H     H_    0.588940 0.911995 0.222282 0.177307
H290  H     H_    0.638138 0.950850 0.166301 0.135836
H291  H     H_    0.645230 0.922015 0.223199 0.149493
H292  H     H_    0.632217 0.965854 0.249745 0.154493
H293  H     H_    0.190568 0.527485 0.426262 0.108298
H294  H     H_    0.218540 0.510942 0.183941 0.145076
H295  H     H_    0.198897 0.503381 0.486607 0.140436
H296  H     H_    0.233914 0.525039 0.416035 0.105855
H297  H     H_    0.810204 0.520614 0.569609 0.107417
H298  H     H_    0.801579 0.493287 0.513762 0.140567
H299  H     H_    0.766805 0.517056 0.580468 0.104830
H300  H     H_    0.689513 0.019701 0.430472 0.107727
H301  H     H_    0.698180 0.992074 0.485928 0.138611
H302  H     H_    0.732895 0.016115 0.419726 0.104299
H303  H     H_    0.310147 0.018574 0.567802 0.107586
H304  H     H_    0.301358 0.990369 0.513421 0.140391
O1    O     O_R   0.049910 0.528880 0.450120 -0.437775
O2    O     O_R   0.549920 0.499990 0.002300 -0.472982
O3    O     O_3   0.532549 0.948232 0.154852 -0.563901
O4    O     O_3   0.395731 0.465232 0.007801 -0.559834
O5    O     O_3   0.604479 0.468222 0.995560 -0.557583
O6    O     O_3   0.895568 0.968616 0.004009 -0.557203
O7    O     O_3   0.104612 0.969292 0.996461 -0.556790
O8    O     O_3   0.325091 0.458483 0.083400 -0.582142
O9    O     O_3   0.675073 0.461452 0.920848 -0.581147
O10   O     O_3   0.824997 0.961766 0.078587 -0.581212
O11   O     O_3   0.175162 0.962357 0.921717 -0.580931
O12   O     O_R   0.950080 0.999990 0.997700 -0.472567
O13   O     O_R   0.049920 0.999990 0.002300 -0.472082
O14   O     O_R   0.500010 0.549830 0.052290 -0.520223
O15   O     O_R   0.499990 0.549830 0.947710 -0.519844
O16   O     O_R   0.000010 0.049830 0.052290 -0.520134
O17   O     O_R   0.999990 0.049830 0.947710 -0.520068
O18   O     O_R   0.049890 0.471110 0.450120 -0.537701
O19   O     O_R   0.950110 0.471110 0.549880 -0.534931
O20   O     O_R   0.549890 0.971110 0.450120 -0.535149
O21   O     O_R   0.950090 0.528880 0.549880 -0.446840
O22   O     O_R   0.450110 0.971110 0.549880 -0.534385
O23   O     O_R   1.000000 0.528880 0.590170 -0.491292
O24   O     O_R   1.000000 0.528880 0.409830 -0.494018
O25   O     O_R   0.500000 0.028880 0.590170 -0.489639
O26   O     O_R   0.500000 0.028880 0.409830 -0.491229
O27   O     O_R   0.999990 0.471110 0.590170 -0.479887
O28   O     O_R   0.000010 0.471110 0.409830 -0.478210
O29   O     O_R   0.499990 0.971110 0.590170 -0.479509
O30   O     O_R   0.500010 0.971110 0.409830 -0.478889
O31   O     O_R   0.971110 0.450080 0.028870 -0.475370
O32   O     O_R   0.549910 0.028880 0.450120 -0.445355
O33   O     O_R   0.028890 0.450080 0.971130 -0.475064
O34   O     O_R   0.471110 0.950080 0.028870 -0.473749
O35   O     O_R   0.528890 0.950080 0.971130 -0.474094
O36   O     O_R   0.971100 0.499980 0.938700 -0.506141
O37   O     O_R   0.028900 0.499980 0.061300 -0.505303
O38   O     O_R   0.471100 0.999980 0.938700 -0.502698
O39   O     O_R   0.528900 0.999980 0.061300 -0.503207
O40   O     O_R   0.028870 0.499990 0.880960 -0.529718
O41   O     O_R   0.971130 0.499990 0.119040 -0.529571
O42   O     O_R   0.528870 0.999990 0.880960 -0.535614
O43   O     O_R   0.450090 0.028880 0.549880 -0.446444
O44   O     O_R   0.471130 0.999990 0.119040 -0.528938
O45   O     O_R   0.971110 0.549890 0.028880 -0.508394
O46   O     O_R   0.028890 0.549890 0.971120 -0.506784
O47   O     O_R   0.471110 0.049890 0.028880 -0.502449
O48   O     O_R   0.528890 0.049890 0.971120 -0.523210
O49   O     O_R   0.499990 0.450010 0.052090 -0.498665
O50   O     O_R   0.500010 0.450010 0.947910 -0.498270
O51   O     O_R   0.999990 0.950010 0.052090 -0.499016
O52   O     O_R   0.000010 0.950010 0.947910 -0.498908
O53   O     O_3   0.965178 0.449763 0.721360 -0.528055
O54   O     O_R   0.450090 0.499920 0.102070 -0.520090
O55   O     O_3   0.035540 0.450450 0.278345 -0.528740
O56   O     O_3   0.463782 0.950759 0.722706 -0.526149
O57   O     O_3   0.535336 0.950042 0.278266 -0.526185
O58   O     O_3   0.215447 0.480537 0.390979 -0.577136
O59   O     O_3   0.784918 0.474680 0.612922 -0.575764
O60   O     O_3   0.715004 0.973940 0.386417 -0.575784
O61   O     O_3   0.284826 0.972965 0.613368 -0.575822
O62   O     O_3   0.104824 0.555701 0.342128 -0.541374
O63   O     O_3   0.893495 0.559564 0.647407 -0.534733
O64   O     O_3   0.606509 0.059704 0.353072 -0.533202
O65   O     O_R   0.549910 0.499920 0.897930 -0.520747
O66   O     O_3   0.393230 0.060028 0.644723 -0.533052
O67   O     O_3   0.176149 0.555819 0.276319 -0.581421
O68   O     O_3   0.823365 0.557830 0.714081 -0.571108
O69   O     O_3   0.676631 0.057898 0.286465 -0.571257
O70   O     O_3   0.323128 0.058181 0.710549 -0.571246
O71   O     O_3   0.060510 0.541403 0.577806 -0.538853
O72   O     O_3   0.939485 0.541501 0.421982 -0.535776
O73   O     O_3   0.561918 0.038771 0.576276 -0.536741
O74   O     O_3   0.438879 0.040408 0.422433 -0.535290
O75   O     O_3   0.948730 0.323861 0.111625 -0.558541
O76   O     O_R   0.950090 0.999920 0.102070 -0.520869
O77   O     O_3   0.051375 0.323908 0.888214 -0.558639
O78   O     O_3   0.448148 0.823823 0.110295 -0.556169
O79   O     O_3   0.551941 0.823999 0.888748 -0.555558
O80   O     O_3   0.950102 0.395429 0.114621 -0.546553
O81   O     O_3   0.049950 0.395489 0.885313 -0.546544
O82   O     O_3   0.449066 0.895249 0.113031 -0.546292
O83   O     O_3   0.551050 0.895411 0.886697 -0.546482
O84   O     O_3   0.551349 0.322902 0.012297 -0.560755
O85   O     O_3   0.448672 0.322625 0.989482 -0.561404
O86   O     O_3   0.050614 0.822672 0.013903 -0.561659
O87   O     O_R   0.049910 0.999920 0.897930 -0.521020
O88   O     O_3   0.949229 0.822810 0.986445 -0.561782
O89   O     O_3   0.455042 0.285989 0.120879 -0.536355
O90   O     O_3   0.545140 0.285661 0.881316 -0.536891
O91   O     O_3   0.954729 0.785838 0.119762 -0.536265
O92   O     O_3   0.045112 0.785877 0.880518 -0.536275
O93   O     O_3   0.953890 0.714045 0.118992 -0.571813
O94   O     O_3   0.045952 0.714082 0.881216 -0.571721
O95   O     O_3   0.454116 0.214178 0.120520 -0.571725
O96   O     O_3   0.545833 0.213877 0.882437 -0.544237
O97   O     O_3   0.026992 0.603709 0.073645 -0.586727
O98   O     O_R   0.450080 0.499990 0.997700 -0.475233
O99   O     O_3   0.973003 0.603893 0.926271 -0.586363
O100  O     O_3   0.529188 0.103579 0.070098 -0.580916
O101  O     O_3   0.470903 0.104264 0.930686 -0.568935
O102  O     O_3   0.060124 0.610093 0.760264 -0.563634
O103  O     O_3   0.940517 0.610600 0.239167 -0.562737
O104  O     O_3   0.563857 0.110409 0.751028 -0.548734
O105  O     O_3   0.438963 0.109715 0.240939 -0.566059
O106  O     O_3   0.967732 0.448086 0.844951 -0.565579
O107  O     O_3   0.032000 0.447997 0.155533 -0.566165
O108  O     O_3   0.466454 0.949024 0.846303 -0.562205

loop_
_geom_bond_atom_site_label_1
_geom_bond_atom_site_label_2
_ccdc_geom_bond_type
C25   H231  S    
C166  H72   S    
C245  C250  A    
C191  H137  S    
C210  H197  S    
C249  C253  A    
Cu3   O76   S    
C162  H58   S    
C64   C77   A    
C270  C274  A    
C118  C293  A    
C36   C42   A    
C137  H296  S    
C262  H68   S    
C21   C26   A    
C194  H148  S    
C157  O11   S    
C15   C32   S    
C172  H84   S    
C223  C278  S    
C285  O67   S    
C205  H181  S    
C2    O107  S    
Cu3   O16   S    
C119  C246  A    
C42   H240  S    
C259  C263  A    
C128  H273  S    
C16   O16   A    
Cu9   O46   S    
C88   C108  S    
C95   C99   A    
C198  H161  S    
C211  H198  S    
C129  H275  S    
C284  C288  A    
C271  H113  S    
C259  H35   S    
C160  H52   S    
C192  O95   S    
C53   O81   S    
C80   C86   A    
Cu8   O36   S    
C124  C168  A    
C253  C258  A    
C85   O95   S    
C205  H180  S    
C208  H188  S    
C7    C102  S    
C195  H149  S    
C156  H41   S    
C70   C74   A    
C203  H174  S    
C241  O27   A    
C231  C236  A    
C182  O85   S    
C8    O50   A    
Cu5   O26   S    
C238  H261  S    
C63   H243  S    
C218  H215  S    
C35   C109  A    
Cu2   O65   S    
C300  O40   A    
C49   C59   A    
C200  H166  S    
C240  C249  A    
C197  H156  S    
C160  O72   S    
C50   O78   S    
C195  H150  S    
C42   C44   A    
C269  H90   S    
C133  H286  S    
C150  H26   S    
C125  H265  S    
Cu2   O15   S    
C188  H131  S    
C78   C89   A    
C189  H134  S    
C289  O71   S    
C136  H290  S    
C86   C88   A    
C154  H36   S    
C158  H44   S    
C256  O60   S    
C67   C105  A    
C213  H200  S    
C65   O102  S    
C123  O53   S    
C141  H4    S    
C98   C102  A    
C17   C21   A    
C82   C91   A    
C106  H257  S    
C209  H193  S    
C239  C248  A    
C279  O57   S    
C267  C294  A    
C19   C23   A    
C215  C216  S    
C235  C280  S    
C161  H55   S    
C267  H79   S    
C134  H289  S    
C267  C272  A    
C214  H205  S    
C178  C180  S    
C175  C176  S    
Cu6   O18   S    
C14   O13   A    
C4    O42   A    
C154  H37   S    
C10   C232  S    
C237  C245  A    
C202  H170  S    
C9    C77   S    
C31   H253  S    
C185  H121  S    
C293  O74   S    
C119  C241  S    
C151  H28   S    
Cu9   O33   S    
C20   C33   A    
C192  H140  S    
C12   O76   A    
C82   C84   A    
C46   C110  A    
C117  C292  A    
C163  O75   S    
C69   O105  S    
C160  H53   S    
C202  O105  S    
C193  H142  S    
C110  C116  A    
Cu11  O35   S    
C299  O34   A    
C225  H228  S    
C173  H87   S    
C30   H252  S    
C208  H189  S    
C187  O91   S    
C143  H10   S    
C237  H250  S    
C186  O90   S    
C153  H32   S    
C148  H19   S    
C185  O89   S    
C37   H234  S    
C217  H211  S    
C64   H244  S    
C206  H184  S    
C95   H248  S    
C176  H94   S    
C129  H277  S    
C3    C46   S    
C283  O64   S    
C144  C145  S    
C130  C131  S    
C34   H232  S    
C196  H154  S    
C50   C54   A    
C224  C229  A    
C298  O33   A    
C104  C110  A    
C194  O97   S    
C57   C111  A    
C254  C259  A    
C62   H242  S    
C156  H43   S    
C203  H172  S    
C154  O67   S    
C140  H304  S    
C51   C55   A    
C190  C265  S    
C83   O93   S    
Cu10  O47   S    
C269  C295  A    
C73   O88   S    
C95   C108  A    
C270  C296  A    
C35   C290  A    
C257  O55   S    
C87   C107  S    
C9    O51   A    
C300  O36   A    
C165  H70   S    
C101  C234  A    
C17   C32   A    
C130  H279  S    
C249  H24   S    
C113  C157  A    
C272  H124  S    
C248  C252  A    
C178  H100  S    
C12   O12   A    
C11   C233  S    
C113  C236  A    
C227  C231  A    
C277  C282  A    
C231  H239  S    
C204  H177  S    
C136  H292  S    
C207  H187  S    
C43   C59   S    
C154  H34   S    
C197  O101  S    
C224  H259  S    
C128  C129  S    
C180  H103  S    
C142  H7    S    
C164  H65   S    
C167  C169  S    
C192  H141  S    
C184  H116  S    
C35   C300  S    
C141  O62   S    
C221  C222  S    
C151  O66   S    
Cu6   O28   S    
C260  C264  A    
C165  O78   S    
C284  O66   S    
C139  O60   S    
Cu10  O38   S    
C51   O79   S    
C4    O38   A    
C239  H272  S    
C49   C53   A    
C214  H203  S    
C13   C57   A    
C166  H73   S    
C177  H98   S    
C92   C96   A    
C118  C122  A    
C174  C175  S    
C163  H62   S    
C26   C45   S    
C221  H221  S    
C199  H164  S    
C211  H199  S    
Cu12  O49   S    
Cu5   Cu7   S    
C260  H46   S    
C226  H260  S    
C64   C73   A    
C184  O88   S    
C203  O106  S    
C230  C234  A    
C138  O59   S    
C164  O77   S    
C196  O100  S    
C193  H144  S    
C242  O24   A    
C184  H117  S    
C82   O92   S    
C30   C67   A    
C75   C91   S    
C204  H175  S    
C208  H191  S    
C200  O104  S    
C17   H168  S    
C254  O58   S    
Cu7   O22   S    
C13   O108  S    
C258  C262  A    
C72   C75   A    
C217  H213  S    
C126  H269  S    
C81   C83   A    
C181  O84   S    
C200  H165  S    
C176  H96   S    
C61   C76   A    
C163  H61   S    
C171  O81   S    
C182  H109  S    
C142  H6    S    
Cu11  O48   S    
C195  H151  S    
C112  O19   A    
C19   C33   A    
C188  H130  S    
C222  C225  S    
C84   O94   S    
C101  O6    S    
C226  C230  A    
C140  H3    S    
C123  H263  S    
C116  C120  A    
C90   C233  A    
C78   O89   S    
C6    C100  S    
C149  H22   S    
C238  C247  A    
C169  H76   S    
C16   O17   A    
C127  H270  S    
Cu8   O41   S    
C92   H245  S    
C187  H126  S    
C179  C264  S    
C159  H49   S    
C212  H258  S    
C48   C52   A    
C94   H247  S    
C151  C152  S    
C198  H160  S    
C11   O2    A    
C54   C58   A    
C38   C47   A    
C101  C146  A    
C24   O3    S    
C71   O85   S    
C10   O98   A    
C181  H105  S    
C155  H40   S    
C7    O47   A    
C78   C85   A    
C274  C278  A    
C139  H302  S    
C115  C119  A    
C278  C283  A    
C218  O10   S    
C243  O25   A    
C138  H299  S    
C215  O9    S    
C157  C201  A    
C65   C103  A    
C183  O86   S    
C93   C97   A    
C113  O7    S    
C97   C100  A    
Cu5   O43   S    
C48   C59   A    
C219  H216  S    
C53   C56   A    
C189  O93   S    
C121  C243  S    
C211  O8    S    
C246  C290  A    
Cu4   O87   S    
Cu12  O54   S    
C243  O29   A    
C261  H57   S    
C162  H59   S    
C190  C226  A    
C137  O58   S    
Cu1   O21   S    
C227  H262  S    
C299  O35   A    
C70   O84   S    
C193  O96   S    
C79   C124  A    
C177  O83   S    
C15   O14   A    
C179  C224  A    
Cu4   O12   S    
C188  H129  S    
C50   C60   A    
C146  O10   S    
C207  H185  S    
C144  H11   S    
C128  H274  S    
C220  H219  S    
C90   C135  A    
C40   H237  S    
C187  H128  S    
C199  H162  S    
C222  H225  S    
C96   C100  A    
C204  O107  S    
C62   C71   A    
C145  H15   S    
C161  H54   S    
C229  C233  A    
C282  O63   S    
Cu11  O39   S    
C191  H136  S    
C31   C69   A    
C2    C257  A    
C134  H288  S    
C152  C153  S    
C216  H208  S    
C170  H80   S    
C221  O11   S    
C156  H42   S    
Cu4   O17   S    
C203  H173  S    
C172  H85   S    
C51   C60   A    
C242  O28   A    
C126  H267  S    
C147  H18   S    
C175  H93   S    
C1    O1    A    
C61   C70   A    
C250  C254  A    
C83   C87   A    
C13   C268  A    
C197  H155  S    
C237  C263  A    
C73   C75   A    
C183  H114  S    
C238  C264  A    
C3    O37   A    
C219  H217  S    
C159  H48   S    
C96   O97   S    
C206  H182  S    
C213  C214  S    
C273  H135  S    
C170  H81   S    
C189  H133  S    
C286  O68   S    
C186  H123  S    
Cu3   O51   S    
C99   O101  S    
C36   C45   A    
C158  H45   S    
C98   O100  S    
Cu5   O32   S    
C28   C289  A    
C180  H102  S    
C164  H64   S    
C123  C125  S    
C198  O102  S    
C20   C25   A    
C94   C98   A    
C27   C47   S    
C120  C257  A    
C210  H195  S    
C244  O26   A    
C287  O69   S    
C80   C89   A    
C137  H295  S    
C181  H107  S    
C1    C276  S    
C132  H285  S    
C255  C260  A    
C6    O45   A    
C152  H30   S    
C189  H132  S    
Cu6   O19   S    
C292  O73   S    
C139  H300  S    
C285  C294  A    
C138  H297  S    
C288  C297  A    
C191  O94   S    
C202  H171  S    
C55   O83   S    
C185  H120  S    
C10   O54   A    
C163  H63   S    
C230  H223  S    
Cu9   O40   S    
C166  H71   S    
C105  C111  A    
C191  H138  S    
C159  O71   S    
C256  C261  A    
C62   C76   A    
Cu10  O34   S    
C34   C41   A    
C151  H27   S    
Cu1   O23   S    
C5    C68   S    
C194  H147  S    
C72   O86   S    
C145  C147  S    
C150  H23   S    
C58   C299  S    
C225  H227  S    
C281  C285  A    
C173  H86   S    
C124  O8    S    
C216  H209  S    
C144  O63   S    
C283  C287  A    
C143  H9    S    
C23   H230  S    
C137  H293  S    
Cu3   O13   S    
C148  H20   S    
C217  H210  S    
C219  C220  S    
Cu8   O31   S    
C175  H92   S    
C122  C244  S    
C129  H276  S    
C273  C277  A    
C197  H158  S    
C235  O22   A    
C160  H51   S    
C271  C275  A    
C143  H8    S    
C261  C265  A    
C241  O23   A    
C167  H74   S    
C240  C266  A    
C213  H202  S    
C81   O91   S    
C158  H47   S    
C28   H249  S    
C251  C255  A    
C167  O80   S    
C258  O61   S    
C153  H31   S    
C272  C276  A    
C94   C108  A    
C135  O9    S    
C66   C104  A    
C199  O103  S    
C120  C242  S    
C8    O49   A    
C147  H16   S    
C218  H214  S    
C125  H266  S    
C49   O77   S    
C14   O87   A    
C182  H110  S    
C3    O41   A    
C247  C251  A    
C133  C134  S    
C41   C44   A    
C18   C32   A    
C201  C266  S    
C196  H153  S    
C127  C128  S    
C133  H287  S    
C150  H25   S    
C127  O55   S    
C228  C232  A    
C104  H255  S    
C132  H282  S    
C29   H251  S    
Cu10  Cu11  S    
Cu10  O44   S    
C21   H212  S    
Cu8   O45   S    
C133  O57   S    
C223  O20   A    
C180  H104  S    
C71   C74   A    
C164  H66   S    
C69   C106  A    
C24   C279  A    
C80   O90   S    
C183  H111  S    
C209  H194  S    
C103  C109  A    
C251  C295  S    
C18   C22   A    
C28   C65   A    
Cu4   O52   S    
C269  C273  A    
C37   C39   A    
C161  H56   S    
C165  H67   S    
C149  C150  S    
C174  O82   S    
C38   C40   A    
Cu7   O20   S    
C215  H206  S    
C214  H204  S    
C245  H294  S    
Cu1   Cu6   S    
C44   C60   S    
C186  H125  S    
C177  H97   S    
C15   O15   A    
C286  C295  A    
C202  H169  S    
C36   H233  S    
Cu2   O50   S    
C79   C232  A    
C162  O74   S    
C61   H241  S    
C24   C68   A    
C220  H218  S    
C212  C228  A    
C240  H283  S    
C93   H246  S    
C99   C102  A    
C199  H163  S    
C63   C72   A    
C188  O92   S    
C177  C178  S    
C22   C26   A    
C55   C58   A    
Cu2   Cu12  S    
C142  C143  S    
Cu11  O42   S    
C90   O5    S    
C193  H143  S    
C194  H145  S    
C288  O70   S    
C48   O75   S    
C67   O104  S    
C31   C293  A    
C86   O96   S    
C298  O31   A    
C225  H229  S    
C208  O5    S    
C204  H176  S    
C173  H88   S    
C171  C172  S    
C250  C294  S    
C169  C170  S    
C168  C212  A    
C153  H33   S    
C155  H38   S    
C84   C87   A    
C8    C76   S    
C122  C279  A    
C14   C236  S    
C248  H13   S    
C221  H222  S    
C268  O56   S    
C12   C234  S    
C209  H192  S    
Cu12  O2    S    
C106  C114  A    
C131  H280  S    
C74   C89   S    
C183  H115  S    
C223  O32   A    
C5    O39   A    
C195  O99   S    
C276  C281  A    
C141  H5    S    
C287  C296  A    
C239  C265  A    
C140  H303  S    
C130  O56   S    
C152  H29   S    
C149  H21   S    
C117  C121  A    
C112  C277  S    
C246  O53   S    
C2    C46   A    
C52   O80   S    
C123  H264  S    
C1    O18   A    
C200  H167  S    
C155  O68   S    
C158  O70   S    
Cu3   Cu4   S    
C9    O52   A    
C184  H118  S    
C206  O3    S    
C4    C57   S    
C79   O4    S    
C229  H112  S    
C216  C217  S    
C192  H139  S    
C130  H278  S    
C23   C27   A    
C281  O62   S    
C103  H254  S    
C29   C291  A    
C155  H39   S    
C174  H91   S    
C132  H284  S    
C170  H78   S    
C178  H99   S    
C252  C256  A    
C39   H236  S    
C247  H2    S    
C186  H122  S    
C5    O44   A    
C187  H127  S    
Cu12  O14   S    
C97   O99   S    
C121  C268  A    
C38   H235  S    
C159  H50   S    
Cu9   O37   S    
C39   C43   A    
C156  O69   S    
C244  O30   A    
Cu6   O27   S    
C270  H101  S    
C162  H60   S    
Cu2   O98   S    
C275  C280  A    
C148  C149  S    
C271  C297  A    
C274  H146  S    
C171  H83   S    
C134  C136  S    
C205  O108  S    
C56   C298  S    
C228  H1    S    
C29   C66   A    
C19   H190  S    
C275  H157  S    
C115  C289  A    
Cu8   Cu9   S    
C144  H12   S    
C16   C33   S    
C220  H220  S    
C92   C107  A    
C222  H226  S    
C210  O7    S    
C40   C43   A    
C145  H14   S    
C34   C45   A    
C201  C227  A    
C81   C91   A    
C112  O21   A    
C114  C118  A    
C167  H75   S    
C291  O72   S    
C205  H178  S    
C211  C213  S    
C207  O4    S    
C11   O65   A    
C148  O64   S    
C22   H224  S    
C131  H281  S    
C207  H186  S    
C37   C47   A    
Cu7   O29   S    
C161  O73   S    
C126  H268  S    
C147  H17   S    
C253  C297  S    
C172  C173  S    
C85   C88   A    
C138  H298  S    
C63   C77   A    
C176  H95   S    
C140  O61   S    
C209  O6    S    
C290  O106  S    
C182  H108  S    
C252  C296  S    
C166  O79   S    
C280  C284  A    
C262  C266  A    
C206  H183  S    
C30   C292  A    
C25   C27   A    
C235  O43   A    
C116  C291  A    
C165  H69   S    
C196  H152  S    
C20   H201  S    
C41   H238  S    
C282  C286  A    
C169  H77   S    
C135  C179  A    
C105  H256  S    
C141  C142  S    
C93   C107  A    
C66   O103  S    
C218  C219  S    
C125  C126  S    
Cu5   O25   S    
C198  H159  S    
C210  H196  S    
Cu7   O30   S    
Cu1   O1    S    
C131  C132  S    
C168  C263  S    
C181  H106  S    
C174  H89   S    
C109  C115  A    
C7    O48   A    
C6    O46   A    
C215  H207  S    
C171  H82   S    
C139  H301  S    
C54   O82   S    
C111  C117  A    
C136  H291  S    
C18   H179  S    
C146  C190  A    
C255  O59   S    
Cu1   O24   S    
C185  H119  S    
C52   C56   A    
C68   C114  A    
C127  H271  S    
