data_mof_unit_50551.cif
_audit_creation_date              2012-10-26T20:20:46-0400
_audit_creation_method            fapswitch 2.2
_symmetry_space_group_name_H-M    P1
_symmetry_Int_Tables_number       1
_space_group_crystal_system       triclinic
_cell_length_a                    8.731213
_cell_length_b                    10.833376
_cell_length_c                    9.544497
_cell_angle_alpha                 89.968809
_cell_angle_beta                  97.714524
_cell_angle_gamma                 90.543506
_cell_volume                      894.588232208

loop_
_atom_site_label
_atom_site_type_symbol
_atom_type_description
_atom_site_fract_x
_atom_site_fract_y
_atom_site_fract_z
_atom_type_partial_charge
C1    C     C_R   0.502294 0.262310 0.499987 0.571480
C2    C     C_R   0.435869 0.065383 0.603602 -0.161603
C3    C     C_R   0.496510 0.871550 0.500684 0.036625
C4    C     C_R   0.503491 0.128451 0.499312 0.036623
C5    C     C_R   0.401309 0.425141 0.062865 -0.002433
C6    C     C_R   0.598685 0.574865 0.937135 -0.002437
C7    C     C_R   0.400926 0.424738 0.913936 0.210890
C8    C     C_R   0.599074 0.575262 0.086065 0.210895
C9    C     C_R   0.497707 0.737690 0.500012 0.571479
C10   C     C_R   0.203893 0.499731 0.463908 0.546106
C11   C     C_R   0.796107 0.500273 0.536092 0.546110
C12   C     C_2   0.038159 0.498990 0.443997 -0.148265
C13   C     C_2   0.961840 0.501020 0.556001 -0.148267
C14   C     C_R   0.568833 0.062804 0.395024 0.072496
C15   C     C_R   0.431174 0.937198 0.604975 0.072490
C16   C     C_R   0.564128 0.934619 0.396392 -0.161601
Cu1   Cu    Cu3+1 0.500000 0.500020 0.640660 0.988559
Cu2   Cu    Cu3+1 0.500000 0.499980 0.359340 0.988561
H1    H     H_    0.978701 0.496436 0.336415 0.129880
H2    H     H_    0.411788 0.900757 0.809571 0.222317
H3    H     H_    0.316957 0.254446 0.864353 0.190102
H4    H     H_    0.184152 0.367235 0.844494 0.197942
H5    H     H_    0.815840 0.632870 0.155407 0.197891
H6    H     H_    0.682917 0.745574 0.135730 0.190128
H7    H     H_    0.021298 0.503577 0.663583 0.129842
H8    H     H_    0.616347 0.884524 0.317181 0.131065
H9    H     H_    0.383644 0.115476 0.682811 0.131104
H10   H     H_    0.322607 0.365097 0.109936 0.111453
H11   H     H_    0.677380 0.634914 0.890062 0.111452
H12   H     H_    0.757958 0.095620 0.298995 0.222528
H13   H     H_    0.588275 0.099242 0.190434 0.222314
H14   H     H_    0.242079 0.904392 0.701047 0.222530
N1    N     N_R   0.500040 0.500030 0.852080 -0.206930
N2    N     N_R   0.499960 0.499970 0.147920 -0.206932
N3    N     N_3   0.643540 0.125524 0.290122 -0.601623
N4    N     N_3   0.356491 0.874482 0.709893 -0.601632
N5    N     N_3   0.296522 0.344639 0.828133 -0.565392
N6    N     N_3   0.703468 0.655369 0.171870 -0.565372
O1    O     O_R   0.499990 0.319660 0.618740 -0.488960
O2    O     O_R   0.500010 0.680340 0.381260 -0.488983
O3    O     O_R   0.499990 0.319630 0.381170 -0.472932
O4    O     O_R   0.500010 0.680370 0.618830 -0.472932
O5    O     O_R   0.274840 0.500010 0.591370 -0.465932
O6    O     O_R   0.725160 0.499990 0.408630 -0.465907
O7    O     O_R   0.274830 0.499980 0.353800 -0.517363
O8    O     O_R   0.725170 0.500020 0.646200 -0.517363

loop_
_geom_bond_atom_site_label_1
_geom_bond_atom_site_label_2
_ccdc_geom_bond_type
C2    C4    A    
Cu1   O5    S    
C2    H9    S    
C3    C9    S    
Cu2   O6    S    
H5    N6    S    
C11   C13   S    
C1    O1    A    
H6    N6    S    
C6    N1    A    
C1    C4    S    
C5    N2    A    
C10   O7    A    
Cu1   Cu2   S    
C7    N5    S    
H3    N5    S    
C11   O6    A    
C8    N2    A    
C12   C13   D    
C16   H8    S    
C2    C15   A    
Cu2   N2    S    
C13   H7    S    
C9    O4    A    
Cu1   N1    S    
H12   N3    S    
C10   C12   S    
C12   H1    S    
C1    O3    A    
H13   N3    S    
C8    N6    S    
C4    C14   A    
C14   C16   A    
C7    N1    A    
C5    H10   S    
Cu2   O7    S    
H14   N4    S    
C15   N4    S    
C6    H11   S    
C3    C15   A    
Cu1   O8    S    
Cu1   O1    S    
Cu2   O3    S    
C14   N3    S    
C5    C7    A    
Cu2   O2    S    
Cu1   O4    S    
C11   O8    A    
C6    C8    A    
C10   O5    A    
H4    N5    S    
C9    O2    A    
C3    C16   A    
H2    N4    S    
