data_mof_unit_31064.cif
_audit_creation_date              2012-12-11T17:37:50-0500
_audit_creation_method            fapswitch 2.2
_symmetry_space_group_name_H-M    P1
_symmetry_Int_Tables_number       1
_space_group_crystal_system       triclinic
_cell_length_a                    13.098155
_cell_length_b                    13.10937
_cell_length_c                    15.414983
_cell_angle_alpha                 116.487647
_cell_angle_beta                  62.77231
_cell_angle_gamma                 97.457181
_cell_volume                      2097.34777118

loop_
_atom_site_label
_atom_site_type_symbol
_atom_type_description
_atom_site_fract_x
_atom_site_fract_y
_atom_site_fract_z
_atom_type_partial_charge
C1    C     C_R   0.015045 0.834253 0.043398 -0.171595
C2    C     C_R   0.300134 0.591971 0.785965 0.201743
C3    C     C_R   0.244964 0.472625 0.101812 -0.203761
C4    C     C_R   0.678660 0.471954 0.221490 -0.117292
C5    C     C_R   0.983476 0.303672 0.699083 -0.117556
C6    C     C_R   0.336550 0.534125 0.071229 -0.185537
C7    C     C_R   0.919816 0.211179 0.700529 0.058825
C8    C     C_R   0.286604 0.579193 0.696541 -0.004176
C9    C     C_R   0.070735 0.143802 0.981620 0.076332
C10   C     C_R   0.334034 0.014844 0.209813 -0.124885
C11   C     C_R   0.237933 0.003809 0.295609 -0.142243
C12   C     C_R   0.670103 0.545680 0.323608 0.065356
C13   C     C_R   0.127101 0.044185 0.324976 0.097282
C14   C     C_R   0.113656 0.095478 0.267474 -0.242760
C15   C     C_R   0.210053 0.105657 0.181394 -0.080049
C16   C     C_R   0.750165 0.519850 0.899204 -0.173744
C17   C     C_R   0.320067 0.066064 0.153044 -0.052827
C18   C     C_R   0.970008 0.130341 0.508920 -0.256880
C19   C     C_R   0.903402 0.124129 0.607782 0.066568
C20   C     C_R   0.859157 0.019355 0.605631 0.031567
C21   C     C_R   0.900961 0.921910 0.508134 -0.202227
C22   C     C_R   0.991643 0.924918 0.414761 0.062573
C23   C     C_R   0.651890 0.473849 0.947601 0.165541
C24   C     C_R   0.025621 0.031581 0.414998 0.032592
C25   C     C_R   0.825506 0.956402 0.747372 0.207534
C26   C     C_R   0.747866 0.939791 0.838386 -0.321367
C27   C     C_R   0.628967 0.957789 0.878316 -0.201966
C28   C     C_R   0.998844 0.711394 0.308949 0.455140
C29   C     C_R   0.584879 0.997691 0.830763 0.587316
C30   C     C_R   0.661825 0.020921 0.742987 -0.361219
C31   C     C_R   0.781277 0.001834 0.702173 -0.006211
C32   C     C_R   0.748650 0.392190 0.488479 -0.229259
C33   C     C_R   0.675301 0.447667 0.476697 -0.111740
C34   C     C_R   0.033482 0.818116 0.315703 0.009288
C35   C     C_R   0.652639 0.567794 0.531990 0.101918
C36   C     C_R   0.703071 0.631005 0.600678 -0.325003
C37   C     C_R   0.776133 0.574558 0.613355 0.591339
C38   C     C_R   0.798263 0.455482 0.557207 -0.181168
C39   C     C_R   0.463002 0.666081 0.618769 -0.186944
C40   C     C_R   0.673272 0.427274 0.000253 -0.007933
C41   C     C_R   0.364707 0.615687 0.610932 0.059369
C42   C     C_R   0.360274 0.582117 0.511259 0.020400
C43   C     C_R   0.458857 0.584900 0.423199 -0.234935
C44   C     C_R   0.564748 0.590946 0.425664 0.047539
C45   C     C_R   0.318376 0.582767 0.016744 0.506342
C46   C     C_R   0.566484 0.623637 0.525420 0.028483
C47   C     C_R   0.275722 0.400131 0.450119 -0.153703
C48   C     C_R   0.191614 0.337877 0.423569 -0.121660
C49   C     C_R   0.103917 0.392184 0.427017 -0.145517
C50   C     C_R   0.100025 0.509985 0.458490 -0.059267
C51   C     C_R   0.183925 0.573223 0.486117 -0.154620
C52   C     C_R   0.074406 0.809948 0.212838 -0.199773
C53   C     C_R   0.270138 0.518673 0.484667 0.100612
C54   C     C_2   0.447514 0.519855 0.063150 0.516058
C55   C     C_2   0.538460 0.494645 0.965102 -0.335429
C56   C     C_R   0.896536 0.207657 0.796357 -0.169639
C57   C     C_2   0.881870 0.974355 0.059797 -0.177649
C58   C     C_2   0.871711 0.061651 0.152772 -0.167262
C59   C     C_R   0.780287 0.562186 0.314144 -0.159029
C60   C     C_R   0.911355 0.755160 0.953610 0.163560
C61   C     C_R   0.933617 0.859345 0.020912 0.106333
C62   C     C_3   0.462058 0.472412 0.737941 -0.899268
C63   C     C_3   0.996871 0.834900 0.681403 -0.905361
C64   C     C_3   0.718216 0.775493 0.976453 -0.955321
C65   C     C_R   0.189616 0.521807 0.702055 -0.183336
C66   C     C_R   0.089566 0.249847 0.050189 -0.122282
C67   C     C_R   0.990210 0.166692 0.955267 -0.122303
H1    H     H_    0.056237 0.895944 0.088441 0.124378
H2    H     H_    0.249577 0.963918 0.339098 0.123944
H3    H     H_    0.609081 0.439330 0.200688 0.125029
H4    H     H_    0.028912 0.127152 0.289310 0.118791
H5    H     H_    0.199674 0.144688 0.136980 0.117727
H6    H     H_    0.996176 0.210771 0.506356 0.122425
H7    H     H_    0.865128 0.842678 0.507924 0.176415
H8    H     H_    0.780165 0.914602 0.879310 0.183663
H9    H     H_    0.570982 0.941595 0.947238 0.145716
H10   H     H_    0.629009 0.052401 0.705521 0.140039
H11   H     H_    0.852731 0.411832 0.568355 0.128678
H12   H     H_    0.830614 0.165453 0.837749 0.119241
H13   H     H_    0.767138 0.539678 0.833574 0.150841
H14   H     H_    0.765331 0.299883 0.445879 0.143738
H15   H     H_    0.634330 0.396637 0.425882 0.120973
H16   H     H_    0.684716 0.723240 0.644683 0.132683
H17   H     H_    0.465792 0.708456 0.695632 0.140977
H18   H     H_    0.455690 0.560335 0.347515 0.161527
H19   H     H_    0.343576 0.356753 0.446532 0.119849
H20   H     H_    0.195019 0.247931 0.401515 0.145877
H21   H     H_    0.039304 0.343131 0.405211 0.111054
H22   H     H_    0.031926 0.552128 0.461860 0.162687
H23   H     H_    0.140543 0.512859 0.659493 0.143716
H24   H     H_    0.182579 0.663718 0.507697 0.131014
H25   H     H_    0.529607 0.492850 0.897894 0.122156
H26   H     H_    0.847404 0.988509 0.013856 0.138347
H27   H     H_    0.901800 0.052687 0.204099 0.128414
H28   H     H_    0.622533 0.369895 0.033307 0.110327
H29   H     H_    0.122422 0.867329 0.180244 0.166003
H30   H     H_    0.803238 0.617781 0.377562 0.139078
H31   H     H_    0.428293 0.651957 0.837457 0.221769
H32   H     H_    0.551639 0.477454 0.728122 0.249683
H33   H     H_    0.465126 0.416750 0.657217 0.259300
H34   H     H_    0.147259 0.264070 0.085856 0.095403
H35   H     H_    0.411577 0.433672 0.794295 0.238751
H36   H     H_    0.998460 0.981481 0.662280 0.184599
H37   H     H_    0.986204 0.769048 0.610206 0.288399
H38   H     H_    0.957397 0.811185 0.749569 0.265098
H39   H     H_    0.090201 0.839368 0.659295 0.238861
H40   H     H_    0.449887 0.041993 0.829654 0.310352
H41   H     H_    0.793914 0.713993 0.721426 0.327008
H42   H     H_    0.989705 0.584401 0.341146 0.301715
H43   H     H_    0.381231 0.550469 0.214670 0.316069
H44   H     H_    0.865837 0.675556 0.830150 0.209027
H45   H     H_    0.955742 0.104287 0.903240 0.120058
H46   H     H_    0.669095 0.748205 0.928292 0.259482
H47   H     H_    0.699438 0.869196 0.026915 0.246801
H48   H     H_    0.687112 0.734733 0.032523 0.276513
H49   H     H_    0.414301 0.706714 0.043797 0.311471
H50   H     H_    0.226754 0.432339 0.154540 0.134911
H51   H     H_    0.005647 0.343453 0.645455 0.100400
H52   H     H_    0.394484 0.075556 0.087386 0.143776
H53   H     H_    0.419313 0.983842 0.187404 0.115883
N1    N     N_R   0.037320 0.720000 0.995830 -0.054511
N2    N     N_R   0.824900 0.517970 0.936430 -0.044136
N3    N     N_R   0.003190 0.648180 0.211390 -0.099726
N4    N     N_R   0.774330 0.457010 0.995830 -0.058110
N5    N     N_R   0.053760 0.709130 0.151980 -0.056805
N6    N     N_R   0.853840 0.498830 0.211390 -0.048563
N7    N     N_R   0.974250 0.667320 0.936430 -0.078035
N8    N     N_R   0.225670 0.542990 0.004170 -0.064526
N9    N     N_2   0.410839 0.585841 0.779340 -0.122103
N10   N     N_2   0.946865 0.945130 0.713012 -0.121524
N11   N     N_2   0.840804 0.745082 0.904027 -0.128723
N12   N     N_R   0.946240 0.290870 0.848020 -0.042141
N13   N     N_R   0.146160 0.501170 0.788610 -0.056381
N14   N     N_R   0.025750 0.332680 0.063570 -0.042928
N15   N     N_R   0.962680 0.280000 0.004170 -0.044694
N16   N     N_R   0.209230 0.553860 0.848010 -0.058790
N17   N     N_R   0.175100 0.482030 0.063570 -0.065539
N18   N     N_R   0.996810 0.351820 0.788610 -0.037953
N19   N     N_R   0.790770 0.446140 0.151990 -0.044272
Ni1   Ni    Ni4+2 0.130310 0.630310 0.000000 0.251859
Ni2   Ni    Ni4+2 0.869690 0.369690 0.000000 0.205993
Ni3   Ni    Ni4+2 0.985660 0.509480 0.863750 0.204449
Ni4   Ni    Ni4+2 0.014340 0.490520 0.136250 0.202512
O1    O     O_3   0.466929 0.013545 0.871875 -0.787786
O2    O     O_3   0.826061 0.633076 0.680808 -0.821534
O3    O     O_3   0.992606 0.668258 0.377594 -0.805898
O4    O     O_3   0.458763 0.529542 0.151469 -0.780861
O5    O     O_3   0.356900 0.684859 0.014865 -0.794824

loop_
_geom_bond_atom_site_label_1
_geom_bond_atom_site_label_2
_ccdc_geom_bond_type
C25   C31   A    
C36   H16   S    
C6    C45   A    
C27   C29   A    
C45   O5    S    
N19   Ni2   S    
C41   C42   A    
C35   C36   A    
C62   N9    S    
N16   Ni1   S    
C3    C6    A    
C2    N9    S    
C4    H3    S    
C28   N3    A    
C5    N18   A    
C39   C41   A    
C59   N6    A    
C32   H14   S    
C26   C27   A    
C37   C38   A    
C56   H12   S    
C18   C24   A    
N1    Ni1   S    
C36   C37   A    
C39   H17   S    
N1    N7    A    
C42   C53   S    
C30   C31   A    
N3    N5    A    
C10   C17   A    
N12   N18   A    
C23   C40   A    
N6    Ni4   S    
C1    H1    S    
C18   C19   A    
C14   H4    S    
C63   N10   S    
C16   N2    A    
C9    C66   A    
C3    H50   S    
C51   H24   S    
N14   Ni4   S    
C66   N14   A    
C30   H10   S    
C19   C20   A    
N13   N16   A    
C3    N17   A    
C32   C38   A    
C63   H38   S    
C33   H15   S    
C47   C53   A    
N17   Ni4   S    
C28   C34   A    
C8    C65   A    
C64   H48   S    
C57   H26   S    
C13   C14   A    
C12   C59   A    
C49   H21   S    
C7    C56   A    
C6    C54   S    
C40   N4    A    
C25   N10   S    
C60   N11   S    
C44   C46   A    
C26   H8    S    
N5    Ni1   S    
C65   H23   S    
C22   C34   S    
N6    N19   A    
C64   H47   S    
C43   H18   S    
C47   H19   S    
C8    C41   S    
N18   Ni3   S    
C5    C7    A    
C38   H11   S    
C25   C26   A    
C29   O1    S    
C21   H7    S    
C2    N16   A    
C13   C24   S    
C60   C61   A    
C16   H13   S    
N7    Ni3   S    
C67   N15   A    
N8    N17   A    
C9    C67   A    
C29   C30   A    
C15   H5    S    
C50   H22   S    
C47   C48   A    
C64   N11   S    
C50   C51   A    
N13   Ni3   S    
C48   H20   S    
C63   H39   S    
C57   C61   S    
C56   N12   A    
C39   C46   A    
C62   H33   S    
H44   N11   S    
C48   C49   A    
C55   H25   S    
C18   H6    S    
C7    C19   S    
C43   C44   A    
C59   H30   S    
C22   C24   A    
N4    Ni2   S    
C4    C12   A    
C42   C43   A    
N2    Ni3   S    
C40   H28   S    
N2    N4    A    
H43   O4    S    
H49   O5    S    
H41   O2    S    
N12   Ni2   S    
C15   C17   A    
C54   C55   D    
C64   H46   S    
C34   C52   A    
C60   N7    A    
C2    C8    A    
C63   H37   S    
C1    C61   A    
C52   N5    A    
C11   H2    S    
C23   C55   S    
N14   N15   A    
C16   C23   A    
C28   O3    S    
C5    H51   S    
C37   O2    S    
C32   C33   A    
C58   H27   S    
C12   C44   S    
C4    N19   A    
C11   C13   A    
C57   C58   D    
H31   N9    S    
C33   C35   A    
C66   H34   S    
C52   H29   S    
N8    Ni1   S    
H36   N10   S    
C1    N1    A    
H42   O3    S    
C10   H53   S    
C10   C11   A    
C17   H52   S    
C62   H32   S    
C67   H45   S    
N15   Ni2   S    
C20   C21   A    
C49   C50   A    
N3    Ni4   S    
C14   C15   A    
C45   N8    A    
C51   C53   A    
H40   O1    S    
C21   C22   A    
C35   C46   S    
C65   N13   A    
C27   H9    S    
C54   O4    S    
C62   H35   S    
C20   C31   S    
