data_mof_unit_10233.cif
_audit_creation_date              2012-12-10T18:58:13-0500
_audit_creation_method            fapswitch 2.2
_symmetry_space_group_name_H-M    P1
_symmetry_Int_Tables_number       1
_space_group_crystal_system       triclinic
_cell_length_a                    11.062601
_cell_length_b                    10.818241
_cell_length_c                    9.578157
_cell_angle_alpha                 90.347592
_cell_angle_beta                  103.449718
_cell_angle_gamma                 90.846642
_cell_volume                      1114.68084464

loop_
_atom_site_label
_atom_site_type_symbol
_atom_type_description
_atom_site_fract_x
_atom_site_fract_y
_atom_site_fract_z
_atom_type_partial_charge
C1    C     C_R   0.504513 0.262524 0.500636 0.803244
C2    C     C_R   0.518429 0.129326 0.504475 -0.146791
C3    C     C_R   0.571487 0.063046 0.405382 0.161581
C4    C     C_R   0.568922 0.933483 0.408264 -0.217943
C5    C     C_R   0.515510 0.870563 0.507111 -0.116782
C6    C     C_R   0.482732 0.937423 0.616765 0.030851
C7    C     C_3   0.366972 0.930158 0.671777 -0.503749
C8    C     C_3   0.368731 0.070975 0.670975 0.245754
C9    C     C_R   0.593635 0.558180 0.099075 0.238932
C10   C     C_R   0.414081 0.431629 0.048183 0.215352
C11   C     C_R   0.415801 0.432155 0.900372 -0.034443
C12   C     C_R   0.262319 0.500987 0.440884 0.735148
C13   C     C_R   0.593189 0.558232 0.951704 0.209131
C14   C     C_3   0.628340 0.691615 0.953643 -0.479190
C15   C     C_3   0.627476 0.692964 0.112223 -0.113922
C16   C     C_R   0.502468 0.737487 0.501219 0.815357
C17   C     C_R   0.737365 0.498682 0.558930 0.852896
C18   C     C_2   0.125485 0.502674 0.406317 0.229300
C19   C     C_2   0.066593 0.486466 0.512871 -0.166457
C20   C     C_2   0.872882 0.494406 0.592520 -0.397139
C21   C     C_2   0.931400 0.488907 0.485242 -0.108796
C22   C     C_R   0.484734 0.064596 0.615708 0.029599
Cu1   Cu    Cu3+1 0.499990 0.499980 0.640670 0.954672
Cu2   Cu    Cu3+1 0.500010 0.500020 0.359330 0.933775
H1    H     H_    0.878686 0.487287 0.374349 0.228780
H2    H     H_    0.346026 0.380920 0.822730 0.176405
H3    H     H_    0.721441 0.705883 0.930345 0.206304
H4    H     H_    0.553841 0.748674 0.888241 0.194401
H5    H     H_    0.552138 0.750524 0.135676 0.182702
H6    H     H_    0.118286 0.472917 0.622883 0.136248
H7    H     H_    0.924635 0.495965 0.703894 0.162136
H8    H     H_    0.605055 0.882049 0.330610 0.160943
H9    H     H_    0.287115 0.888536 0.592034 0.171112
H10   H     H_    0.383588 0.889502 0.780732 0.201349
H11   H     H_    0.288987 0.112168 0.593682 0.124591
N1    N     N_R   0.500780 0.500930 0.148120 -0.204659
N2    N     N_R   0.500790 0.500890 0.852210 -0.211488
O1    O     O_R   0.500000 0.319640 0.618810 -0.553540
O2    O     O_R   0.500010 0.319680 0.381230 -0.586955
O3    O     O_R   0.320680 0.500000 0.575130 -0.600112
O4    O     O_R   0.320690 0.500040 0.337550 -0.580499
O5    O     O_R   0.499990 0.680320 0.618770 -0.574644
O6    O     O_R   0.500000 0.680360 0.381190 -0.589274
O7    O     O_R   0.679310 0.499960 0.662450 -0.570559
O8    O     O_R   0.679320 0.500000 0.424870 -0.583446
O9    O     O_3   0.388976 0.124412 0.809110 -0.725301
H12   H     H_    0.466142 0.090138 0.870111 0.335256
C23   C     C_3   0.308265 0.360354 0.085646 -0.756540
H13   H     H_    0.337840 0.303705 0.181979 0.259412
H14   H     H_    0.234314 0.424681 0.096802 0.224824
H15   H     H_    0.264963 0.294112 0.998608 0.205836
C24   C     C_3   0.755519 0.719246 0.210853 -0.807146
H16   H     H_    0.751353 0.707090 0.324514 0.246229
H17   H     H_    0.826557 0.656482 0.186132 0.265942
H18   H     H_    0.784166 0.816292 0.196770 0.228255
O10   O     O_3   0.057020 0.522988 0.268050 -0.758370
H19   H     H_    0.114076 0.549614 0.207953 0.327678
C25   C     C_3   0.628457 0.125759 0.295124 -0.803926
H20   H     H_    0.697288 0.197366 0.347815 0.236575
H21   H     H_    0.677990 0.059124 0.240454 0.211139
H22   H     H_    0.554901 0.168359 0.211202 0.249961

loop_
_geom_bond_atom_site_label_1
_geom_bond_atom_site_label_2
_ccdc_geom_bond_type
C12   O3    A    
C9    N1    A    
C8    C22   S    
Cu1   Cu2   S    
C2    C22   A    
C12   O4    A    
C14   H3    S    
Cu1   O1    S    
C13   N2    A    
C14   C15   S    
C24   H18   S    
C18   O10   S    
Cu2   O2    S    
C25   H22   S    
C23   H14   S    
C2    C3    A    
C9    C15   S    
C17   O7    A    
C15   C24   S    
C7    C8    S    
Cu2   N1    S    
C13   C14   S    
C20   C21   D    
Cu2   O4    S    
C7    H9    S    
C16   O6    A    
C4    H8    S    
Cu1   O5    S    
C1    O1    A    
Cu2   O8    S    
C23   H13   S    
C19   C21   S    
C24   H17   S    
C15   H5    S    
C6    C7    S    
C10   C23   S    
C5    C6    A    
C7    H10   S    
C8    O9    S    
C10   C11   A    
C1    O2    A    
C17   O8    A    
C25   H21   S    
C3    C4    A    
C6    C22   A    
C3    C25   S    
C16   O5    A    
C17   C20   S    
O10   H19   S    
C1    C2    S    
C12   C18   S    
C11   N2    A    
Cu2   O6    S    
C9    C13   A    
O9    H12   S    
C18   C19   D    
C5    C16   S    
C21   H1    S    
C11   H2    S    
C14   H4    S    
C25   H20   S    
Cu1   N2    S    
C19   H6    S    
C20   H7    S    
C23   H15   S    
Cu1   O7    S    
Cu1   O3    S    
C24   H16   S    
C4    C5    A    
C10   N1    A    
C8    H11   S    
