data_mof_unit_49683.cif
_audit_creation_date              2012-12-10T17:40:29-0500
_audit_creation_method            fapswitch 2.2
_symmetry_space_group_name_H-M    P1
_symmetry_Int_Tables_number       1
_space_group_crystal_system       triclinic
_cell_length_a                    13.79102
_cell_length_b                    15.02746
_cell_length_c                    15.830116
_cell_angle_alpha                 88.181939
_cell_angle_beta                  70.927905
_cell_angle_gamma                 88.83616
_cell_volume                      3098.88056983

loop_
_atom_site_label
_atom_site_type_symbol
_atom_type_description
_atom_site_fract_x
_atom_site_fract_y
_atom_site_fract_z
_atom_type_partial_charge
C1    C     C_R   0.499520 0.671262 0.499132 0.795293
C2    C     C_R   0.501092 0.328786 0.498258 0.794858
C3    C     C_R   0.388298 0.448353 0.089704 -0.180799
C4    C     C_R   0.581213 0.590407 0.922990 -0.225762
C5    C     C_R   0.324025 0.426587 0.042208 -0.261425
C6    C     C_R   0.645597 0.613032 0.970127 -0.262762
C7    C     C_R   0.409873 0.186350 0.537096 -0.237440
C8    C     C_R   0.590433 0.813588 0.453850 -0.241359
C9    C     C_R   0.501352 0.232119 0.495146 -0.074513
C10   C     C_R   0.498951 0.768015 0.496216 -0.076108
C11   C     C_R   0.590915 0.185732 0.448501 -0.262832
C12   C     C_R   0.407252 0.814826 0.535609 -0.269899
C13   C     C_R   0.591197 0.092946 0.448108 0.115379
C14   C     C_R   0.406770 0.907557 0.534648 0.116120
C15   C     C_R   0.499375 0.046817 0.491674 0.056126
C16   C     C_R   0.498967 0.953556 0.492139 0.058781
C17   C     C_R   0.408041 0.093880 0.535236 0.109264
C18   C     C_R   0.590932 0.906343 0.450793 0.108453
C19   C     C_R   0.681736 0.045498 0.405789 -0.213670
C20   C     C_R   0.316023 0.955005 0.576214 -0.215130
C21   C     C_R   0.681746 0.952632 0.407583 -0.217015
C22   C     C_R   0.316763 0.047721 0.576908 -0.211956
C23   C     C_R   0.437991 0.498362 0.671805 0.801342
C24   C     C_R   0.561792 0.502338 0.328296 0.794134
C25   C     C_R   0.230982 0.540498 0.429671 0.605680
C26   C     C_R   0.768482 0.459577 0.570375 0.618378
C27   C     C_R   0.180316 0.464723 0.571119 -0.074470
C28   C     C_R   0.819621 0.534993 0.428599 -0.072146
C29   C     C_R   0.076779 0.468744 0.574157 -0.026656
C30   C     C_R   0.923083 0.532407 0.425842 -0.025464
C31   C     C_R   0.051725 0.501061 0.499396 -0.022613
C32   C     C_R   0.948034 0.501231 0.500844 -0.010347
C33   C     C_R   0.130325 0.533317 0.423571 -0.150656
C34   C     C_R   0.869243 0.470137 0.577171 -0.180842
C35   C     C_R   0.997990 0.443417 0.651761 -0.306671
C36   C     C_R   0.001579 0.559588 0.348744 -0.325458
C37   C     C_R   0.893493 0.450551 0.656815 0.448944
C38   C     C_R   0.105900 0.560076 0.345415 0.466004
C39   C     C_R   0.401658 0.489974 0.769382 -0.049953
C40   C     C_R   0.595499 0.517146 0.231500 -0.049955
C41   C     C_R   0.281933 0.428976 0.905805 -0.197231
C42   C     C_R   0.699179 0.598754 0.100539 -0.213677
C43   C     C_R   0.308435 0.448370 0.814641 -0.200341
C44   C     C_R   0.681643 0.568757 0.188280 -0.201371
C45   C     C_R   0.464615 0.517611 0.816756 -0.222726
C46   C     C_R   0.530965 0.490963 0.185139 -0.206376
C47   C     C_R   0.437314 0.502200 0.909653 0.085922
C48   C     C_R   0.545625 0.521508 0.097067 0.091353
C49   C     C_R   0.347253 0.452895 0.952886 0.150278
C50   C     C_R   0.630716 0.577369 0.055474 0.160320
C51   C     C_R   0.499457 0.530528 0.959695 0.067557
C52   C     C_R   0.477674 0.499504 0.049844 0.060691
Cu1   Cu    Cu3+1 0.402580 0.500010 0.499990 0.954714
Cu2   Cu    Cu3+1 0.597420 0.499990 0.500010 0.966777
H1    H     H_    0.199765 0.436484 0.627319 0.144292
H2    H     H_    0.800005 0.562913 0.372358 0.142990
H3    H     H_    0.468257 0.448533 0.221127 0.148246
H4    H     H_    0.536825 0.547331 0.778811 0.161835
H5    H     H_    0.731974 0.589947 0.223753 0.140616
H6    H     H_    0.258737 0.426642 0.778790 0.139948
N1    N     N_R   0.256170 0.500070 0.500040 -0.235905
N2    N     N_R   0.743830 0.499930 0.499960 -0.221163
O1    O     O_R   0.417730 0.629750 0.499970 -0.602977
O2    O     O_R   0.582270 0.370250 0.500030 -0.576138
O3    O     O_R   0.582270 0.629730 0.499980 -0.580368
O4    O     O_R   0.417730 0.370270 0.500020 -0.580854
O5    O     O_R   0.371590 0.500020 0.629830 -0.602561
O6    O     O_R   0.628410 0.499980 0.370170 -0.602650
O7    O     O_R   0.536130 0.499990 0.629840 -0.525823
O8    O     O_R   0.463870 0.500010 0.370160 -0.535245
H7    H     H_    0.255620 0.388425 0.075728 0.148723
H8    H     H_    0.708368 0.658121 0.938929 0.142555
O9    O     O_3   0.301401 0.594109 0.367361 -0.561911
C53   C     C_3   0.295719 0.682041 0.399626 0.125647
H9    H     H_    0.375449 0.706912 0.380385 0.178044
H10   H     H_    0.260856 0.685955 0.473849 0.120906
C54   C     C_3   0.238047 0.746499 0.355953 -0.403451
H11   H     H_    0.275710 0.746878 0.282454 0.233428
H12   H     H_    0.157014 0.725922 0.373163 0.213299
C55   C     C_3   0.239248 0.841103 0.388145 -0.920428
H13   H     H_    0.201260 0.843406 0.461690 0.254583
H14   H     H_    0.197233 0.886562 0.355221 0.257771
H15   H     H_    0.319366 0.864750 0.371032 0.267377
O10   O     O_3   0.693383 0.410047 0.633950 -0.562317
C56   C     C_3   0.726972 0.321995 0.647689 0.092606
H16   H     H_    0.710202 0.310451 0.720722 0.204414
H17   H     H_    0.810300 0.308685 0.614003 0.107945
C57   C     C_3   0.667920 0.253358 0.616113 -0.352363
H18   H     H_    0.584409 0.268765 0.642220 0.238733
H19   H     H_    0.695648 0.256520 0.542243 0.226712
C58   C     C_3   0.686571 0.159088 0.646697 -0.930066
H20   H     H_    0.769548 0.141726 0.620570 0.254562
H21   H     H_    0.643591 0.111019 0.620953 0.273387
H22   H     H_    0.659529 0.153363 0.720866 0.256175
H23   H     H_    0.018592 0.420335 0.709067 0.136319
H24   H     H_    0.980210 0.578431 0.290761 0.148654
O11   O     O_3   0.813402 0.434931 0.736358 -0.620648
C59   C     C_3   0.832750 0.462417 0.813974 0.055793
H25   H     H_    0.763027 0.497524 0.855054 0.187416
H26   H     H_    0.895789 0.511498 0.801003 0.125332
C60   C     C_3   0.849167 0.381005 0.868634 -0.359171
H27   H     H_    0.779208 0.339316 0.888301 0.225344
H28   H     H_    0.914308 0.339775 0.827865 0.208756
C61   C     C_3   0.870544 0.408494 0.952766 -0.917670
H29   H     H_    0.940503 0.449979 0.934813 0.250107
H30   H     H_    0.882810 0.348168 0.990497 0.255147
H31   H     H_    0.804335 0.446654 0.996408 0.270719
O12   O     O_3   0.186321 0.576533 0.265642 -0.578719
C62   C     C_3   0.161240 0.638733 0.206354 0.064801
H32   H     H_    0.230018 0.679805 0.173578 0.152599
H33   H     H_    0.100200 0.687258 0.241369 0.119373
C63   C     C_3   0.136284 0.591101 0.131693 -0.345653
H34   H     H_    0.209044 0.573450 0.079159 0.230455
H35   H     H_    0.094057 0.528505 0.157556 0.222386
C64   C     C_3   0.073041 0.650380 0.088965 -0.939724
H36   H     H_    0.997681 0.666886 0.139072 0.248731
H37   H     H_    0.059334 0.614812 0.033541 0.258746
H38   H     H_    0.114726 0.712879 0.061536 0.259088
H39   H     H_    0.211680 0.393185 0.939053 0.132739
H40   H     H_    0.764634 0.640870 0.068736 0.137026
H41   H     H_    0.363781 0.425199 0.158326 0.163858
H42   H     H_    0.596529 0.622361 0.858090 0.147858
H43   H     H_    0.340326 0.222782 0.572062 0.146012
H44   H     H_    0.660896 0.776780 0.422527 0.145332
H45   H     H_    0.660303 0.221878 0.413138 0.139677
H46   H     H_    0.336902 0.779025 0.568651 0.143672
H47   H     H_    0.752684 0.080176 0.372287 0.143849
H48   H     H_    0.244811 0.920382 0.608878 0.140061
H49   H     H_    0.752709 0.917014 0.375349 0.141355
H50   H     H_    0.246114 0.083315 0.610211 0.141066

loop_
_geom_bond_atom_site_label_1
_geom_bond_atom_site_label_2
_ccdc_geom_bond_type
C60   H27   S    
C5    H7    S    
C27   C29   A    
C34   C37   A    
Cu1   O1    S    
O9    C53   S    
C23   O7    A    
C37   O11   S    
O11   C59   S    
C28   H2    S    
C24   O8    A    
C47   C49   A    
Cu2   O3    S    
C56   H16   S    
C6    H8    S    
C53   H10   S    
C35   C37   A    
C20   H48   S    
C62   H33   S    
C27   H1    S    
C56   C57   S    
C12   H46   S    
C44   H5    S    
C23   O5    A    
C15   C16   A    
C18   C21   A    
O12   C62   S    
C15   C17   A    
C45   C47   A    
C41   C49   A    
C63   H34   S    
C27   N1    A    
Cu1   N1    S    
C26   C34   A    
C7    C17   A    
C53   C54   S    
C1    O3    A    
C31   C33   A    
C39   C45   A    
C48   C50   A    
C60   H28   S    
C22   H50   S    
C38   O12   S    
C41   C43   A    
C5    C49   A    
C42   C44   A    
C55   H15   S    
Cu1   O8    S    
C1    O1    A    
C61   H30   S    
C61   H29   S    
C2    O2    A    
C54   H12   S    
C46   C48   A    
C45   H4    S    
C53   H9    S    
C13   C19   A    
C4    C51   A    
C51   C52   A    
C14   C20   A    
O10   C56   S    
C4    C6    A    
C62   C63   S    
C58   H20   S    
C8    H44   S    
C39   C43   A    
Cu2   N2    S    
C64   H37   S    
C54   H11   S    
C8    C18   A    
C32   C34   A    
C40   C46   A    
C58   H21   S    
C36   H24   S    
C31   C32   A    
C57   C58   S    
C40   C44   A    
C64   H38   S    
C4    H42   S    
C16   C18   A    
C25   N1    A    
C41   H39   S    
Cu1   O4    S    
C9    C11   A    
C21   H49   S    
C10   C12   A    
C43   H6    S    
C42   C50   A    
C63   H35   S    
C55   H14   S    
C57   H19   S    
C60   C61   S    
C59   H26   S    
C13   C15   A    
C46   H3    S    
C14   C16   A    
C20   C22   A    
C3    C5    A    
C54   C55   S    
C7    C9    A    
C26   O10   S    
C6    C50   A    
C11   H45   S    
C1    C10   S    
C33   C38   A    
C7    H43   S    
C55   H13   S    
C2    O4    A    
C47   C51   A    
C3    C52   A    
Cu1   Cu2   S    
C35   H23   S    
C59   C60   S    
C29   C35   A    
C17   C22   A    
C30   C36   A    
C36   C38   A    
C12   C14   A    
C29   C31   A    
C62   H32   S    
C58   H22   S    
C30   C32   A    
C11   C13   A    
C42   H40   S    
Cu2   O7    S    
Cu2   O2    S    
C23   C39   S    
C28   C30   A    
C24   C40   S    
C25   O9    S    
C61   H31   S    
C26   N2    A    
Cu1   O5    S    
C24   O6    A    
C3    H41   S    
C56   H17   S    
C48   C52   A    
Cu2   O6    S    
C57   H18   S    
C8    C10   A    
C59   H25   S    
C19   H47   S    
C2    C9    S    
C63   C64   S    
C64   H36   S    
C25   C33   A    
C19   C21   A    
C28   N2    A    
