data_mof_unit_61448.cif
_audit_creation_date              2012-12-10T18:06:02-0500
_audit_creation_method            fapswitch 2.2
_symmetry_space_group_name_H-M    P1
_symmetry_Int_Tables_number       1
_space_group_crystal_system       triclinic
_cell_length_a                    25.921012
_cell_length_b                    25.991035
_cell_length_c                    22.189263
_cell_angle_alpha                 90.000962
_cell_angle_beta                  54.2548
_cell_angle_gamma                 90.00017
_cell_volume                      12133.1260768

loop_
_atom_site_label
_atom_site_type_symbol
_atom_type_description
_atom_site_fract_x
_atom_site_fract_y
_atom_site_fract_z
_atom_type_partial_charge
C1    C     C_R   0.400295 0.250022 0.699443 0.508681
C2    C     C_3   0.225482 0.718109 0.976244 0.044102
C3    C     C_3   0.251923 0.202320 0.974754 -0.134114
C4    C     C_3   0.749589 0.297100 0.974760 -0.134161
C5    C     C_3   0.247137 0.702117 0.025238 -0.134074
C6    C     C_3   0.248077 0.297680 0.025246 -0.134114
C7    C     C_3   0.752666 0.702161 0.974753 -0.134074
C8    C     C_3   0.690030 0.262585 0.025278 -0.132825
C9    C     C_3   0.308992 0.734202 0.974722 -0.132886
C10   C     C_3   0.309293 0.264885 0.974724 -0.132889
C11   C     C_3   0.690945 0.734397 0.025267 -0.132859
C12   C     C_3   0.191008 0.765798 0.025278 -0.132886
C13   C     C_3   0.226118 0.282600 0.976251 0.044137
C14   C     C_3   0.809970 0.237414 0.974722 -0.132825
C15   C     C_3   0.809055 0.765603 0.974732 -0.132859
C16   C     C_3   0.190707 0.235114 0.025276 -0.132889
C17   C     C_1   0.639405 0.250023 0.221208 0.037847
C18   C     C_1   0.360595 0.749980 0.778792 0.037889
C19   C     C_1   0.360593 0.250024 0.778792 0.037822
C20   C     C_1   0.639403 0.749976 0.221208 0.037974
C21   C     C_1   0.139405 0.750020 0.221208 0.037888
C22   C     C_1   0.860595 0.249977 0.778792 0.037847
C23   C     C_1   0.860597 0.750024 0.778792 0.037974
C24   C     C_3   0.774377 0.717956 0.023755 0.044077
C25   C     C_1   0.139407 0.249976 0.221208 0.037822
C26   C     C_2   0.196202 0.681766 0.951850 0.233192
C27   C     C_2   0.798917 0.323403 0.048142 0.233254
C28   C     C_2   0.803496 0.681442 0.048154 0.233293
C29   C     C_2   0.197559 0.319745 0.951865 0.233137
C30   C     C_2   0.701083 0.176596 0.951858 0.233254
C31   C     C_2   0.303797 0.818234 0.048150 0.233192
C32   C     C_2   0.302441 0.180255 0.048135 0.233137
C33   C     C_2   0.696504 0.818558 0.951846 0.233293
C34   C     C_2   0.198593 0.149807 0.504687 0.244513
C35   C     C_3   0.274518 0.781891 0.023756 0.044102
C36   C     C_2   0.801159 0.850207 0.495798 0.244604
C37   C     C_2   0.801741 0.149799 0.494633 0.244130
C38   C     C_2   0.197644 0.850161 0.506566 0.244050
C39   C     C_2   0.698841 0.649793 0.504202 0.244604
C40   C     C_2   0.301407 0.350193 0.495313 0.244513
C41   C     C_2   0.302356 0.649838 0.493434 0.244050
C42   C     C_2   0.698259 0.350201 0.505367 0.244130
C43   C     C_3   0.727765 0.215691 0.976247 0.044100
C44   C     C_3   0.725623 0.782044 0.976244 0.044077
C45   C     C_3   0.273882 0.217400 0.023749 0.044137
C46   C     C_3   0.713584 0.250253 0.073367 0.045948
C47   C     C_3   0.286398 0.749768 0.926633 0.045954
C48   C     C_3   0.286404 0.250241 0.926633 0.045967
C49   C     C_R   0.599704 0.749978 0.300557 0.508796
C50   C     C_3   0.713593 0.749763 0.073367 0.045939
C51   C     C_3   0.213601 0.750232 0.073367 0.045954
C52   C     C_3   0.786416 0.249747 0.926633 0.045948
C53   C     C_3   0.786407 0.750237 0.926633 0.045939
C54   C     C_3   0.213596 0.249759 0.073367 0.045967
C55   C     C_1   0.672860 0.250089 0.154471 0.006560
C56   C     C_1   0.327135 0.749920 0.845529 0.006604
C57   C     C_1   0.327135 0.250087 0.845530 0.006554
C58   C     C_1   0.672859 0.749915 0.154471 0.006683
C59   C     C_1   0.172865 0.750080 0.154471 0.006604
C60   C     C_R   0.599705 0.250021 0.300556 0.508645
C61   C     C_1   0.827140 0.249911 0.845529 0.006560
C62   C     C_1   0.827141 0.750085 0.845529 0.006683
C63   C     C_1   0.172865 0.249913 0.154470 0.006554
C64   C     C_R   0.280418 0.204394 0.495550 -0.177317
C65   C     C_R   0.719462 0.795595 0.504694 -0.177251
C66   C     C_R   0.719741 0.204381 0.504127 -0.177561
C67   C     C_R   0.279958 0.795641 0.496481 -0.177357
C68   C     C_R   0.780538 0.704405 0.495306 -0.177251
C69   C     C_R   0.219582 0.295606 0.504450 -0.177317
C70   C     C_R   0.220042 0.704359 0.503519 -0.177357
C71   C     C_R   0.400296 0.749979 0.699444 0.508633
C72   C     C_R   0.780259 0.295619 0.495872 -0.177561
C73   C     C_R   0.224688 0.201754 0.499825 0.000843
C74   C     C_R   0.775191 0.798246 0.500413 0.000849
C75   C     C_R   0.775468 0.201745 0.499862 0.000746
C76   C     C_R   0.224230 0.798251 0.500733 0.000934
C77   C     C_R   0.724809 0.701754 0.499587 0.000849
C78   C     C_R   0.275312 0.298245 0.500175 0.000843
C79   C     C_R   0.275770 0.701749 0.499267 0.000934
C80   C     C_R   0.724532 0.298255 0.500138 0.000746
C81   C     C_R   0.194734 0.248181 0.502982 0.049160
C82   C     C_R   0.900296 0.750022 0.699443 0.508796
C83   C     C_R   0.805269 0.751827 0.497011 0.049113
C84   C     C_R   0.805261 0.248185 0.497029 0.049166
C85   C     C_R   0.194745 0.751795 0.502957 0.049465
C86   C     C_R   0.694731 0.748173 0.502989 0.049113
C87   C     C_R   0.305266 0.251819 0.497017 0.049160
C88   C     C_R   0.305255 0.748205 0.497042 0.049465
C89   C     C_R   0.694739 0.251815 0.502971 0.049165
C90   C     C_R   0.489874 0.026692 0.453049 -0.134590
C91   C     C_R   0.510125 0.973308 0.546951 -0.134554
C92   C     C_R   0.510126 0.026693 0.546951 -0.134574
C93   C     C_R   0.099705 0.249978 0.300556 0.508681
C94   C     C_R   0.489874 0.973307 0.453049 -0.134571
C95   C     C_R   0.989875 0.526692 0.453049 -0.134554
C96   C     C_R   0.010125 0.473308 0.546951 -0.134590
C97   C     C_R   0.010126 0.526693 0.546950 -0.134571
C98   C     C_R   0.989874 0.473307 0.453049 -0.134574
C99   C     C_R   0.500000 0.946322 0.500000 0.040018
C100  C     C_R   0.500000 0.053678 0.500000 0.040004
C101  C     C_R   0.000000 0.446322 0.500000 0.040004
C102  C     C_R   1.000000 0.553678 0.499999 0.040018
C103  C     C_R   0.639446 0.250966 0.501341 0.554857
C104  C     C_R   0.099704 0.750021 0.300556 0.508633
C105  C     C_R   0.360550 0.749045 0.498670 0.555339
C106  C     C_R   0.360557 0.250968 0.498654 0.554867
C107  C     C_R   0.639441 0.749027 0.501351 0.554695
C108  C     C_R   0.139450 0.750955 0.501330 0.555339
C109  C     C_R   0.860554 0.249034 0.498659 0.554857
C110  C     C_R   0.860559 0.750973 0.498649 0.554695
C111  C     C_R   0.139443 0.249032 0.501345 0.554867
C112  C     C_R   0.500000 0.109770 0.500000 0.503432
C113  C     C_R   0.500000 0.890230 0.500000 0.503488
C114  C     C_R   0.000000 0.609770 0.500000 0.503488
C115  C     C_R   0.900295 0.249979 0.699444 0.508645
C116  C     C_R   1.000000 0.390230 0.500000 0.503432
C117  C     C_R   0.500000 0.390266 0.500000 0.537218
C118  C     C_R   0.500000 0.609734 0.500000 0.537111
C119  C     C_R   1.000000 0.890266 0.500000 0.537111
C120  C     C_R   0.000000 0.109734 0.500000 0.537218
C121  C     C_R   0.557355 0.473310 0.454815 -0.116643
C122  C     C_R   0.442645 0.526689 0.545184 -0.116954
C123  C     C_R   0.442645 0.473311 0.545184 -0.116840
C124  C     C_R   0.557355 0.526689 0.454815 -0.116708
C125  C     C_R   0.057355 0.973310 0.454816 -0.116954
C126  C     C_3   0.772235 0.284309 0.023753 0.044100
C127  C     C_R   0.942645 0.026690 0.545185 -0.116643
C128  C     C_R   0.942645 0.973311 0.545185 -0.116708
C129  C     C_R   0.057355 0.026689 0.454816 -0.116840
C130  C     C_R   0.500000 0.553663 0.500000 0.043905
C131  C     C_R   0.500000 0.446337 0.500000 0.043932
C132  C     C_R   0.000000 0.053663 0.500000 0.043932
C133  C     C_R   1.000000 0.946337 0.500000 0.043905
C134  C     C_3   0.252863 0.797883 0.974762 -0.134074
C135  C     C_3   0.750411 0.202900 0.025240 -0.134161
C136  C     C_3   0.747334 0.797839 0.025247 -0.134074
H1    H     H_    0.602213 0.453242 0.419569 0.155556
H2    H     H_    0.357762 0.721535 0.953484 0.119177
H3    H     H_    0.358302 0.276808 0.953499 0.119077
H4    H     H_    0.642127 0.721883 0.046483 0.119258
H5    H     H_    0.142238 0.778465 0.046516 0.119177
H6    H     H_    0.859521 0.227388 0.953490 0.119231
H7    H     H_    0.857873 0.778117 0.953517 0.119258
H8    H     H_    0.141698 0.223192 0.046501 0.119077
H9    H     H_    0.255754 0.837257 0.953589 0.116278
H10   H     H_    0.750218 0.164148 0.046420 0.116162
H11   H     H_    0.744610 0.837177 0.046439 0.116322
H12   H     H_    0.397788 0.546758 0.580430 0.155251
H13   H     H_    0.254034 0.163109 0.953566 0.116212
H14   H     H_    0.749782 0.335852 0.953580 0.116162
H15   H     H_    0.244246 0.662743 0.046411 0.116278
H16   H     H_    0.245966 0.336891 0.046434 0.116212
H17   H     H_    0.755390 0.662823 0.953561 0.116322
H18   H     H_    0.152693 0.661717 0.993179 0.102357
H19   H     H_    0.840990 0.344967 0.006809 0.102131
H20   H     H_    0.846915 0.661295 0.006824 0.102381
H21   H     H_    0.154461 0.340246 0.993200 0.102193
H22   H     H_    0.659009 0.155033 0.993191 0.102131
H23   H     H_    0.397787 0.453244 0.580430 0.155381
H24   H     H_    0.347307 0.838283 0.006821 0.102357
H25   H     H_    0.345539 0.159754 0.006799 0.102193
H26   H     H_    0.653085 0.838705 0.993176 0.102381
H27   H     H_    0.303312 0.169033 0.494256 0.113377
H28   H     H_    0.696479 0.830956 0.506173 0.113551
H29   H     H_    0.696963 0.169017 0.505181 0.113098
H30   H     H_    0.302515 0.831004 0.495889 0.112745
H31   H     H_    0.803520 0.669044 0.493827 0.113551
H32   H     H_    0.196688 0.330967 0.505744 0.113377
H33   H     H_    0.197485 0.668996 0.504111 0.112745
H34   H     H_    0.602213 0.546756 0.419570 0.155452
H35   H     H_    0.803037 0.330983 0.494819 0.113098
H36   H     H_    0.229988 0.116659 0.483976 0.100891
H37   H     H_    0.769661 0.883295 0.516822 0.100918
H38   H     H_    0.770526 0.116547 0.514795 0.100974
H39   H     H_    0.228601 0.883552 0.487132 0.101075
H40   H     H_    0.730339 0.616705 0.483178 0.100918
H41   H     H_    0.270012 0.383341 0.516024 0.100891
H42   H     H_    0.271399 0.616448 0.512868 0.101075
H43   H     H_    0.729474 0.383453 0.485205 0.100974
H44   H     H_    0.481939 0.046754 0.416347 0.140443
H45   H     H_    0.102212 0.953242 0.419570 0.155251
H46   H     H_    0.518061 0.953246 0.583653 0.140446
H47   H     H_    0.518061 0.046757 0.583653 0.140441
H48   H     H_    0.481939 0.953243 0.416347 0.140490
H49   H     H_    0.981939 0.546754 0.416347 0.140447
H50   H     H_    0.018061 0.453246 0.583653 0.140443
H51   H     H_    0.018061 0.546757 0.583652 0.140490
H52   H     H_    0.981939 0.453243 0.416347 0.140441
H53   H     H_    0.897787 0.046758 0.580430 0.155556
H54   H     H_    0.897787 0.953244 0.580430 0.155452
H55   H     H_    0.102213 0.046756 0.419570 0.155381
H56   H     H_    0.640478 0.272612 0.046510 0.119231
O1    O     O_3   0.500000 0.250030 0.500000 -0.456244
O2    O     O_R   0.112550 0.219620 0.335580 -0.521417
O3    O     O_R   0.112550 0.780380 0.335580 -0.521460
O4    O     O_R   0.887450 0.219620 0.664420 -0.521410
O5    O     O_R   0.594260 0.219670 0.543090 -0.549188
O6    O     O_R   0.405740 0.780330 0.456910 -0.548949
O7    O     O_R   0.405740 0.219670 0.456910 -0.549205
O8    O     O_R   0.594260 0.780330 0.543090 -0.549369
O9    O     O_R   0.094260 0.719670 0.543090 -0.548949
O10   O     O_R   0.905740 0.280330 0.456910 -0.549188
O11   O     O_R   0.905740 0.719670 0.456910 -0.549369
O12   O     O_3   0.500000 0.749970 0.500000 -0.456286
O13   O     O_R   0.094260 0.280330 0.543090 -0.549204
O14   O     O_R   0.508800 0.134220 0.543090 -0.551965
O15   O     O_R   0.491200 0.865780 0.456910 -0.551953
O16   O     O_R   0.491200 0.134220 0.456910 -0.551991
O17   O     O_R   0.508800 0.865780 0.543090 -0.551927
O18   O     O_R   0.008800 0.634220 0.543090 -0.551953
O19   O     O_R   0.991200 0.365780 0.456910 -0.551965
O20   O     O_R   0.991200 0.634220 0.456910 -0.551927
O21   O     O_R   0.008800 0.365780 0.543090 -0.551991
O22   O     O_R   0.448100 0.365830 0.543110 -0.525647
O23   O     O_3   0.000000 0.750030 0.500000 -0.456286
O24   O     O_R   0.551900 0.634170 0.456890 -0.525597
O25   O     O_R   0.551900 0.365830 0.456890 -0.525416
O26   O     O_R   0.448100 0.634170 0.543110 -0.525781
O27   O     O_R   0.948100 0.865830 0.543110 -0.525597
O28   O     O_R   0.051900 0.134170 0.456890 -0.525647
O29   O     O_R   0.051900 0.865830 0.456890 -0.525781
O30   O     O_R   0.948100 0.134170 0.543110 -0.525416
O31   O     O_R   0.637370 0.280400 0.456880 -0.500761
O32   O     O_R   0.362630 0.719600 0.543120 -0.500483
O33   O     O_R   0.362630 0.280400 0.543120 -0.500587
O34   O     O_3   0.000000 0.249970 0.500000 -0.456244
O35   O     O_R   0.637370 0.719600 0.456880 -0.500531
O36   O     O_R   0.137370 0.780400 0.456880 -0.500483
O37   O     O_R   0.862630 0.219600 0.543120 -0.500761
O38   O     O_R   0.862630 0.780400 0.543120 -0.500531
O39   O     O_R   0.137370 0.219600 0.456880 -0.500587
O40   O     O_R   0.448170 0.219660 0.664410 -0.543475
O41   O     O_R   0.551830 0.780340 0.335590 -0.543383
O42   O     O_R   0.551830 0.219660 0.335590 -0.543488
O43   O     O_R   0.448170 0.780340 0.664410 -0.543504
O44   O     O_R   0.948170 0.719660 0.664410 -0.543383
O45   O     O_R   0.387450 0.280380 0.664420 -0.521417
O46   O     O_R   0.051830 0.280340 0.335590 -0.543474
O47   O     O_R   0.051830 0.719660 0.335590 -0.543504
O48   O     O_R   0.948170 0.280340 0.664410 -0.543488
O49   O     O_2   0.220778 0.674492 0.886017 -0.481218
O50   O     O_2   0.773826 0.331230 0.113976 -0.480997
O51   O     O_2   0.778890 0.674142 0.113990 -0.481136
O52   O     O_2   0.222261 0.327166 0.886031 -0.481212
O53   O     O_2   0.726174 0.168770 0.886024 -0.480997
O54   O     O_2   0.279222 0.825508 0.113983 -0.481218
O55   O     O_2   0.277738 0.172834 0.113969 -0.481212
O56   O     O_R   0.612550 0.719620 0.335580 -0.521369
O57   O     O_2   0.721110 0.825858 0.886010 -0.481136
O58   O     O_2   0.141914 0.142851 0.534847 -0.488161
O59   O     O_2   0.857845 0.857254 0.465487 -0.488296
O60   O     O_2   0.858396 0.142962 0.464757 -0.488397
O61   O     O_2   0.141007 0.856788 0.536110 -0.488532
O62   O     O_2   0.642155 0.642746 0.534512 -0.488296
O63   O     O_2   0.358086 0.357149 0.465153 -0.488161
O64   O     O_2   0.358993 0.643212 0.463890 -0.488532
O65   O     O_2   0.641604 0.357038 0.535242 -0.488397
O66   O     O_R   0.612550 0.280380 0.335580 -0.521410
O67   O     O_R   0.387450 0.719620 0.664420 -0.521460
O68   O     O_R   0.887450 0.780380 0.664420 -0.521369
Zn1   Zn    Zn3+2 0.574170 0.293410 0.438410 1.004967
Zn2   Zn    Zn3+2 0.487410 0.793350 0.438420 0.945074
Zn3   Zn    Zn3+2 0.487410 0.206650 0.438420 0.944678
Zn4   Zn    Zn3+2 0.512590 0.793350 0.561580 0.944600
Zn5   Zn    Zn3+2 0.012590 0.706650 0.561580 0.945074
Zn6   Zn    Zn3+2 0.987410 0.293350 0.438420 0.944626
Zn7   Zn    Zn3+2 0.987410 0.706650 0.438420 0.944600
Zn8   Zn    Zn3+2 0.012590 0.293350 0.561580 0.944678
Zn9   Zn    Zn3+2 0.425830 0.706590 0.561590 1.004974
Zn10  Zn    Zn3+2 0.425830 0.293410 0.561590 1.005036
Zn11  Zn    Zn3+2 0.574170 0.706590 0.438410 1.005086
Zn12  Zn    Zn3+2 0.074170 0.793410 0.438410 1.004974
Zn13  Zn    Zn3+2 0.925830 0.206590 0.561590 1.004967
Zn14  Zn    Zn3+2 0.925830 0.793410 0.561590 1.005086
Zn15  Zn    Zn3+2 0.074170 0.206590 0.438410 1.005036
Zn16  Zn    Zn3+2 0.512590 0.206650 0.561580 0.944627

loop_
_geom_bond_atom_site_label_1
_geom_bond_atom_site_label_2
_ccdc_geom_bond_type
C78   C87   A    
C44   C136  S    
C104  O47   A    
C115  O4    A    
C14   H6    S    
C42   C80   S    
O43   Zn4   S    
C37   H38   S    
C23   C82   S    
C82   O44   A    
C111  O39   A    
C32   C45   S    
O40   Zn16  S    
C93   O2    A    
C8    C43   S    
C74   C83   A    
C4    C8    S    
C2    C12   S    
C94   C99   A    
O12   Zn4   S    
C26   O49   D    
C48   C57   S    
C39   O62   D    
C38   C76   S    
C19   C57   T    
O1    Zn16  S    
C7    C11   S    
C87   C106  S    
C41   O64   D    
O37   Zn13  S    
O2    Zn15  S    
O1    Zn3   S    
O16   Zn3   S    
O9    Zn5   S    
C4    C52   S    
C102  C114  S    
C39   C77   S    
C13   C29   S    
C109  O10   A    
C30   O53   D    
C70   H33   S    
C6    C54   S    
C77   C86   A    
C21   C59   T    
C116  O19   A    
C52   C61   S    
C25   C63   T    
C107  O8    A    
C27   C126  S    
C43   C52   S    
O8    Zn4   S    
C14   C135  S    
C71   O67   A    
C7    C24   S    
C95   H49   S    
C3    C48   S    
C119  O29   A    
C36   O59   D    
C12   H5    S    
O22   Zn10  S    
C97   H51   S    
C103  O5    A    
C60   O66   A    
C80   C89   A    
C134  H9    S    
O48   Zn8   S    
C127  C132  A    
C117  C131  S    
C121  C124  A    
C49   O41   A    
C110  O38   A    
C103  O31   A    
O32   Zn9   S    
C40   O63   D    
C109  O37   A    
C44   C53   S    
C29   O52   D    
C23   C62   T    
C14   C52   S    
C81   C111  S    
O20   Zn7   S    
C68   C83   A    
C107  O35   A    
C46   C55   S    
C118  O26   A    
O23   Zn14  S    
C98   H52   S    
C64   C73   A    
C31   O54   D    
C117  O25   A    
O45   Zn10  S    
O47   Zn7   S    
O34   Zn13  S    
C122  H12   S    
O23   Zn12  S    
C86   C107  S    
C24   C28   S    
C17   C55   T    
O24   Zn11  S    
C97   C102  A    
O67   Zn9   S    
C95   C102  A    
C18   C56   T    
C129  C132  A    
O68   Zn14  S    
O12   Zn9   S    
C112  O14   A    
C37   C75   S    
C36   H37   S    
C12   C134  S    
C96   C101  A    
C96   C97   A    
O28   Zn15  S    
C119  O27   A    
O1    Zn10  S    
C21   C104  S    
C69   C78   A    
C94   H48   S    
C121  C131  A    
C64   H27   S    
C105  O6    A    
O3    Zn12  S    
C35   C134  S    
C90   C100  A    
C79   C88   A    
C90   C94   A    
C66   C89   A    
C16   C54   S    
C123  C131  A    
C24   C50   S    
C68   C77   A    
C90   H44   S    
C3    H13   S    
O26   Zn9   S    
C1    C19   S    
C32   O55   D    
C125  H45   S    
C50   C58   S    
C72   H35   S    
C96   H50   S    
C41   H42   S    
C65   C86   A    
C60   O42   A    
C112  O16   A    
C2    C26   S    
O36   Zn12  S    
C91   C92   A    
O6    Zn2   S    
O5    Zn16  S    
O12   Zn2   S    
C39   H40   S    
C29   H21   S    
C15   C136  S    
C108  O36   A    
C1    O45   A    
C34   C73   S    
O23   Zn5   S    
C121  H1    S    
C3    C45   S    
O19   Zn6   S    
O1    Zn1   S    
C65   C74   A    
C110  O11   A    
O41   Zn2   S    
C42   H43   S    
C33   O57   D    
C11   H4    S    
C68   H31   S    
C41   C79   S    
C108  O9    A    
C118  C130  S    
C20   C49   S    
C53   C62   S    
C91   H46   S    
C114  O20   A    
O21   Zn8   S    
O13   Zn8   S    
O46   Zn6   S    
C93   O46   A    
C120  O28   A    
C135  H10   S    
C32   H25   S    
O25   Zn1   S    
C67   C88   A    
C106  O33   A    
O39   Zn15  S    
C11   C44   S    
C34   O58   D    
C119  C133  S    
C43   C135  S    
O10   Zn6   S    
C72   C84   A    
O29   Zn12  S    
C36   C74   S    
C89   C103  S    
C73   C81   A    
C15   H7    S    
C67   H30   S    
O35   Zn11  S    
C22   C115  S    
C28   O51   D    
O34   Zn6   S    
C45   C54   S    
C9    C47   S    
O18   Zn5   S    
C71   O43   A    
C47   C134  S    
C10   C48   S    
O44   Zn5   S    
C31   C35   S    
C30   C43   S    
C26   H18   S    
O66   Zn1   S    
C51   C59   S    
O34   Zn15  S    
C7    C53   S    
C20   C58   T    
C127  C128  A    
C37   O60   D    
C27   O50   D    
C15   C53   S    
O31   Zn1   S    
C12   C51   S    
C34   H36   S    
C92   C100  A    
O17   Zn4   S    
C9    C35   S    
C125  C133  A    
C18   C71   S    
C30   H22   S    
O15   Zn2   S    
C111  O13   A    
C83   C110  S    
C15   C24   S    
C120  O30   A    
C64   C87   A    
C66   H29   S    
C16   H8    S    
C70   C79   A    
C120  C132  S    
C33   C44   S    
C46   C126  S    
C49   O56   A    
C31   H24   S    
O23   Zn7   S    
C116  O21   A    
C92   H47   S    
C14   C126  S    
C99   C113  S    
C13   C48   S    
C118  O24   A    
O42   Zn3   S    
C5    H15   S    
C46   C135  S    
C4    C126  S    
C2    C47   S    
C42   O65   D    
C105  O32   A    
C4    H14   S    
C127  H53   S    
C84   C109  S    
C113  O15   A    
C98   C101  A    
O14   Zn16  S    
C9    H2    S    
C25   C93   S    
C114  O18   A    
O30   Zn13  S    
C82   O68   A    
C33   H26   S    
C13   C16   S    
C69   H32   S    
C6    H16   S    
C72   C80   A    
C11   C50   S    
O11   Zn7   S    
C128  C133  A    
C124  C130  A    
C22   C61   T    
O7    Zn3   S    
C88   C105  S    
C1    O40   A    
C38   H39   S    
C115  O48   A    
O56   Zn11  S    
C123  H23   S    
C7    H17   S    
C8    H56   S    
C66   C75   A    
C129  H55   S    
C65   H28   S    
C85   C108  S    
C104  O3    A    
C128  H54   S    
C10   H3    S    
O27   Zn14  S    
C40   C78   S    
C117  O22   A    
C75   C84   A    
C8    C46   S    
O33   Zn10  S    
C106  O7    A    
C136  H11   S    
C69   C81   A    
C6    C10   S    
O4    Zn13  S    
C17   C60   S    
C113  O17   A    
C40   H41   S    
C2    C5    S    
O12   Zn11  S    
C125  C129  A    
C38   O61   D    
C124  H34   S    
C35   C51   S    
C54   C63   S    
C10   C45   S    
C28   H20   S    
C101  C116  S    
C5    C51   S    
C50   C136  S    
C5    C9    S    
C100  C112  S    
C91   C99   A    
C122  C123  A    
C70   C85   A    
C95   C98   A    
C76   C85   A    
C122  C130  A    
O38   Zn14  S    
C3    C16   S    
C67   C76   A    
O34   Zn8   S    
C47   C56   S    
C6    C13   S    
C27   H19   S    
