data_mof_unit_49306.cif
_audit_creation_date              2012-12-10T18:44:24-0500
_audit_creation_method            fapswitch 2.2
_symmetry_space_group_name_H-M    P1
_symmetry_Int_Tables_number       1
_space_group_crystal_system       triclinic
_cell_length_a                    12.84407
_cell_length_b                    10.721437
_cell_length_c                    9.853509
_cell_angle_alpha                 90.21976
_cell_angle_beta                  98.339066
_cell_angle_gamma                 90.446034
_cell_volume                      1342.49219009

loop_
_atom_site_label
_atom_site_type_symbol
_atom_type_description
_atom_site_fract_x
_atom_site_fract_y
_atom_site_fract_z
_atom_type_partial_charge
C1    C     C_R   0.499847 0.259904 0.499774 0.890236
C2    C     C_R   0.500153 0.740096 0.500226 0.890235
C3    C     C_R   0.500206 0.872573 0.500262 -0.030441
C4    C     C_R   0.499794 0.127427 0.499737 -0.030441
C5    C     C_R   0.567842 0.574921 0.085630 -0.172396
C6    C     C_R   0.432158 0.425078 0.914370 -0.172396
C7    C     C_R   0.568076 0.575055 0.942094 0.463434
C8    C     C_R   0.431924 0.424945 0.057906 0.463434
C9    C     C_R   0.297965 0.502705 0.471630 0.952475
C10   C     C_R   0.702035 0.497294 0.528370 0.952475
C11   C     C_R   0.814826 0.491519 0.547773 -0.220471
C12   C     C_R   0.185174 0.508481 0.452227 -0.220471
C13   C     C_R   0.019931 0.591601 0.343431 0.378818
C14   C     C_R   0.980069 0.408398 0.656569 0.378818
C15   C     C_R   0.128231 0.578833 0.346633 0.350929
C16   C     C_R   0.871769 0.421167 0.653367 0.350928
C17   C     C_R   0.135579 0.449501 0.550956 -0.206798
C18   C     C_R   0.864420 0.550499 0.449044 -0.206798
C19   C     C_R   0.029139 0.463951 0.552320 -0.038029
C20   C     C_R   0.970861 0.536049 0.447679 -0.038029
C21   C     C_R   0.509809 0.063505 0.378550 -0.125465
C22   C     C_R   0.490191 0.936495 0.621450 -0.125465
C23   C     C_R   0.510060 0.935781 0.378816 -0.143487
C24   C     C_R   0.489940 0.064219 0.621184 -0.143487
H1    H     H_    0.817908 0.605950 0.371242 0.220758
H2    H     H_    0.182092 0.394050 0.628758 0.220759
H3    H     H_    0.517823 0.111696 0.284051 0.189611
H4    H     H_    0.482177 0.888304 0.715949 0.189611
H5    H     H_    0.518254 0.887035 0.284408 0.178127
H6    H     H_    0.481745 0.112964 0.715592 0.178127
H7    H     H_    0.621934 0.634718 0.151208 0.190495
H8    H     H_    0.378066 0.365281 0.848792 0.190495
N1    N     N_R   0.499970 0.499970 0.857200 -0.141717
N2    N     N_R   0.500030 0.500030 0.142800 -0.141717
O1    O     O_R   0.499990 0.316750 0.614620 -0.626203
O2    O     O_R   0.500010 0.683250 0.385380 -0.626203
O3    O     O_R   0.499990 0.316780 0.385290 -0.594630
O4    O     O_R   0.500010 0.683220 0.614710 -0.594630
O5    O     O_R   0.346360 0.499970 0.595710 -0.637763
O6    O     O_R   0.653640 0.500030 0.404290 -0.637763
O7    O     O_R   0.346360 0.499990 0.366380 -0.526621
O8    O     O_R   0.653640 0.500010 0.633620 -0.526621
Zn1   Zn    Zn3+2 0.500000 0.499980 0.653120 1.048368
Zn2   Zn    Zn3+2 0.500000 0.500020 0.346880 1.048368
Cl1   Cl    Cl    0.808455 0.341863 0.776379 -0.449093
Cl2   Cl    Cl    0.191545 0.658137 0.223621 -0.449093
Cl3   Cl    Cl    0.947821 0.678844 0.209327 -0.449354
Cl4   Cl    Cl    0.052179 0.321156 0.790673 -0.449354
Cl5   Cl    Cl    0.657570 0.673444 0.875293 -0.500785
Cl6   Cl    Cl    0.342430 0.326556 0.124707 -0.500785

loop_
_geom_bond_atom_site_label_1
_geom_bond_atom_site_label_2
_ccdc_geom_bond_type
C16   Cl1   S    
C12   C17   A    
C6    H8    S    
C6    N1    A    
C11   C18   A    
C10   O8    A    
O1    Zn1   S    
C11   C16   A    
C2    O4    A    
C9    O7    A    
C19   C20   A    
C13   C20   A    
C12   C15   A    
C1    O3    A    
C1    C4    S    
C5    N2    A    
O3    Zn2   S    
C13   C15   A    
C2    C3    S    
C21   H3    S    
O4    Zn1   S    
C8    N2    A    
C4    C21   A    
C7    N1    A    
C7    Cl5   S    
C18   H1    S    
C17   H2    S    
C23   H5    S    
C22   H4    S    
C22   C24   A    
C21   C23   A    
O5    Zn1   S    
C4    C24   A    
O7    Zn2   S    
C14   C16   A    
O2    Zn2   S    
C24   H6    S    
C9    C12   S    
N1    Zn1   S    
C8    Cl6   S    
O6    Zn2   S    
N2    Zn2   S    
C1    O1    A    
C18   C20   A    
C10   O6    A    
C10   C11   S    
C2    O2    A    
C5    C7    A    
C14   Cl4   S    
C3    C22   A    
C6    C8    A    
C15   Cl2   S    
C17   C19   A    
C3    C23   A    
C13   Cl3   S    
C14   C19   A    
C9    O5    A    
O8    Zn1   S    
C5    H7    S    
