data_mof_unit_48765.cif
_audit_creation_date              2012-12-11T15:35:17-0500
_audit_creation_method            fapswitch 2.2
_symmetry_space_group_name_H-M    P1
_symmetry_Int_Tables_number       1
_space_group_crystal_system       triclinic
_cell_length_a                    17.376773
_cell_length_b                    24.187516
_cell_length_c                    14.877518
_cell_angle_alpha                 89.995349
_cell_angle_beta                  124.583722
_cell_angle_gamma                 90.003941
_cell_volume                      5148.10934325

loop_
_atom_site_label
_atom_site_type_symbol
_atom_type_description
_atom_site_fract_x
_atom_site_fract_y
_atom_site_fract_z
_atom_type_partial_charge
C1    C     C_R   0.350981 0.151923 0.908513 -0.114407
C2    C     C_R   0.351944 0.847780 0.908774 -0.152140
C3    C     C_R   0.809669 0.624090 0.910509 -0.109404
C4    C     C_R   0.809553 0.376076 0.910411 -0.108770
C5    C     C_R   0.650435 0.150639 0.092920 -0.125268
C6    C     C_R   0.650330 0.849332 0.092903 -0.123080
C7    C     C_R   0.187624 0.625666 0.092107 -0.125446
C8    C     C_R   0.187696 0.374463 0.092094 -0.126669
C9    C     C_R   0.559212 0.847032 0.911548 -0.140960
C10   C     C_R   0.559249 0.152962 0.911546 -0.143130
C11   C     C_R   0.096070 0.369601 0.910445 -0.124920
C12   C     C_R   0.096025 0.630505 0.910465 -0.126983
C13   C     C_R   0.552163 0.000001 0.727413 0.037931
C14   C     C_R   0.021309 0.500008 0.693936 0.042559
C15   C     C_R   0.808861 0.998783 0.354676 0.067339
C16   C     C_R   0.306842 0.501036 0.356668 0.074391
C17   C     C_R   0.621350 0.183834 0.003409 0.045481
C18   C     C_R   0.621247 0.816149 0.003419 0.045734
C19   C     C_R   0.185143 0.641609 0.001260 0.041385
C20   C     C_R   0.185225 0.358586 0.001210 0.042113
C21   C     C_3   0.040602 0.937423 0.584540 0.324302
C22   C     C_3   0.012243 0.026639 0.651456 0.324386
C23   C     C_3   0.561120 0.475352 0.466134 0.313628
C24   C     C_3   0.539296 0.467458 0.620788 0.345801
C25   C     C_3   0.937107 0.937873 0.491869 -0.519583
C26   C     C_3   0.911001 0.030248 0.547619 -0.529074
C27   C     C_3   0.454473 0.475620 0.384746 -0.501231
C28   C     C_3   0.432389 0.468428 0.539232 -0.528832
C29   C     C_3   0.066807 0.029571 0.524927 -0.329527
C30   C     C_3   0.548008 0.561992 0.552818 -0.349400
C31   C     C_3   0.075794 0.998225 0.621927 0.224930
C32   C     C_3   0.585930 0.501702 0.574260 0.216697
C33   C     C_3   0.903841 0.998011 0.453071 0.297835
C34   C     C_3   0.407011 0.501771 0.437554 0.301106
C35   C     C_R   0.443109 0.847310 0.091215 -0.121499
C36   C     C_R   0.442742 0.152614 0.091091 -0.123010
C37   C     C_R   0.902622 0.375652 0.093932 -0.127860
C38   C     C_R   0.902736 0.624433 0.094000 -0.128161
C39   C     C_3   0.967388 0.025175 0.423509 -0.391354
C40   C     C_3   0.442919 0.561955 0.472351 -0.419717
C41   C     C_R   0.294660 0.730965 0.902191 -0.170584
C42   C     C_R   0.293977 0.268843 0.901931 -0.164854
C43   C     C_R   0.658950 0.316815 0.908776 -0.173453
C44   C     C_R   0.659057 0.683272 0.908906 -0.154750
C45   C     C_R   0.611973 0.270462 0.908325 -0.171464
C46   C     C_R   0.611936 0.729540 0.908435 -0.174998
C47   C     C_R   0.244174 0.686917 0.902630 -0.166459
C48   C     C_R   0.243948 0.313131 0.902434 -0.165182
C49   C     C_R   0.646258 0.241788 0.006031 0.143533
C50   C     C_R   0.646180 0.758209 0.006113 0.141339
C51   C     C_R   0.259148 0.670038 0.001494 0.143471
C52   C     C_R   0.259140 0.330135 0.001345 0.145882
C53   C     C_R   0.714960 0.266404 0.105583 -0.173431
C54   C     C_R   0.714981 0.733643 0.105687 -0.168628
C55   C     C_R   0.339070 0.688049 0.100300 -0.163046
C56   C     C_R   0.338984 0.312042 0.100106 -0.171857
C57   C     C_R   0.389786 0.731900 0.099926 -0.165611
C58   C     C_R   0.389252 0.267955 0.099677 -0.168555
C59   C     C_R   0.761971 0.312627 0.105914 -0.165975
C60   C     C_R   0.762138 0.687501 0.106040 -0.163891
C61   C     C_R   0.360295 0.757513 0.000752 0.139959
C62   C     C_R   0.359440 0.242240 0.000480 0.139816
C63   C     C_R   0.740993 0.333833 0.006698 0.147099
C64   C     C_R   0.741175 0.666319 0.006827 0.144090
C65   C     C_R   0.605873 0.949961 0.627757 -0.169504
C66   C     C_R   0.605927 0.050028 0.627779 -0.170053
C67   C     C_R   0.089417 0.449893 0.610462 -0.168190
C68   C     C_R   0.089402 0.550122 0.610431 -0.166027
C69   C     C_R   0.604029 0.949926 0.533567 -0.177402
C70   C     C_R   0.604100 0.050061 0.533596 -0.177500
C71   C     C_R   0.109289 0.449923 0.532985 -0.173808
C72   C     C_R   0.109276 0.550087 0.532956 -0.171107
C73   C     C_R   0.593265 0.999994 0.480076 0.141177
C74   C     C_R   0.106053 0.500004 0.483785 0.135946
C75   C     C_R   0.544142 0.045819 0.301454 -0.120595
C76   C     C_R   0.544137 0.954177 0.301454 -0.122500
C77   C     C_R   0.051960 0.545620 0.304619 -0.132565
C78   C     C_R   0.051977 0.454380 0.304631 -0.133005
C79   C     C_R   0.595409 0.999997 0.667206 0.145054
C80   C     C_R   0.068337 0.500008 0.639035 0.150142
C81   C     C_R   0.232459 0.953115 0.750655 -0.084386
C82   C     C_R   0.230806 0.046289 0.745897 -0.094715
C83   C     C_R   0.738396 0.454200 0.703918 -0.157042
C84   C     C_R   0.740255 0.546895 0.704908 -0.087572
C85   C     C_R   0.382468 0.184367 0.999962 0.044876
C86   C     C_R   0.383386 0.815383 0.000210 0.050133
C87   C     C_R   0.813288 0.636888 0.004062 0.046205
C88   C     C_R   0.813121 0.363279 0.003950 0.041857
C89   C     C_R   0.558886 0.999997 0.364897 0.039133
C90   C     C_R   0.071972 0.500000 0.369507 0.052770
C91   C     C_R   0.175042 0.999230 0.714330 0.024938
C92   C     C_R   0.686551 0.501059 0.653036 0.118295
C93   C     C_R   0.520137 0.046037 0.752570 -0.126491
C94   C     C_R   0.520133 0.953965 0.752575 -0.117591
C95   C     C_R   0.996936 0.545780 0.727505 -0.121023
C96   C     C_R   0.996895 0.454233 0.727463 -0.125209
C97   C     C_R   0.757704 0.952851 0.297069 -0.145352
C98   C     C_R   0.759711 0.045841 0.298416 -0.154530
C99   C     C_R   0.257389 0.454341 0.300970 -0.155084
C100  C     C_R   0.255358 0.546701 0.300059 -0.163521
H1    H     H_    0.313145 0.165568 0.824683 0.080521
H2    H     H_    0.314956 0.833888 0.825162 0.089476
H3    H     H_    0.751882 0.630416 0.827197 0.087362
H4    H     H_    0.751767 0.369919 0.827013 0.089340
H5    H     H_    0.049860 0.913739 0.654529 0.009161
H6    H     H_    0.012810 0.000726 0.713926 0.035673
H7    H     H_    0.586398 0.431668 0.481833 0.018408
H8    H     H_    0.562884 0.423538 0.631845 0.006304
H9    H     H_    0.895953 0.918909 0.520169 0.129191
H10   H     H_    0.861544 0.012736 0.565089 0.146426
H11   H     H_    0.430604 0.432230 0.359127 0.126185
H12   H     H_    0.406217 0.425235 0.516507 0.128335
H13   H     H_    0.926492 0.912030 0.423731 0.195021
H14   H     H_    0.891010 0.074215 0.523559 0.195991
H15   H     H_    0.434026 0.499081 0.309801 0.203852
H16   H     H_    0.398517 0.487338 0.576760 0.202898
H17   H     H_    0.116288 0.012532 0.507023 0.191394
H18   H     H_    0.084102 0.074105 0.544854 0.168306
H19   H     H_    0.579244 0.587484 0.518907 0.182398
H20   H     H_    0.565927 0.581878 0.630000 0.180590
H21   H     H_    0.966848 0.000030 0.360426 0.183153
H22   H     H_    0.942244 0.067334 0.389009 0.151951
H23   H     H_    0.425615 0.587133 0.400412 0.163408
H24   H     H_    0.409988 0.581842 0.510169 0.164203
H25   H     H_    0.274859 0.747196 0.824145 0.105678
H26   H     H_    0.274014 0.252532 0.823879 0.107015
H27   H     H_    0.636285 0.335146 0.831180 0.102539
H28   H     H_    0.636403 0.664961 0.831307 0.110491
H29   H     H_    0.554929 0.254716 0.830389 0.104054
H30   H     H_    0.554826 0.745246 0.830498 0.106783
H31   H     H_    0.187862 0.670324 0.825029 0.104346
H32   H     H_    0.187735 0.329800 0.824852 0.104890
H33   H     H_    0.739440 0.247430 0.183179 0.105502
H34   H     H_    0.739449 0.752612 0.183277 0.105509
H35   H     H_    0.357214 0.672830 0.178337 0.106320
H36   H     H_    0.357314 0.327371 0.178152 0.102533
H37   H     H_    0.444712 0.748905 0.177774 0.105734
H38   H     H_    0.444100 0.250915 0.177525 0.104002
H39   H     H_    0.820775 0.327329 0.183686 0.107794
H40   H     H_    0.821016 0.672850 0.183811 0.108561
H41   H     H_    0.604794 0.910554 0.661278 0.107861
H42   H     H_    0.604886 0.089435 0.661317 0.107551
H43   H     H_    0.082565 0.410502 0.639611 0.102851
H44   H     H_    0.082535 0.589515 0.639549 0.102003
H45   H     H_    0.488904 0.833584 0.174788 0.081448
H46   H     H_    0.488587 0.166435 0.174585 0.081645
H47   H     H_    0.930138 0.370669 0.179148 0.094246
H48   H     H_    0.930293 0.629414 0.179227 0.094621
H49   H     H_    0.602038 0.910457 0.498319 0.106069
H50   H     H_    0.602173 0.089528 0.498373 0.105855
H51   H     H_    0.114584 0.410511 0.502661 0.105025
H52   H     H_    0.114563 0.589499 0.502613 0.105057
H53   H     H_    0.560461 0.088382 0.327623 0.082295
H54   H     H_    0.560460 0.911614 0.327629 0.082677
H55   H     H_    0.070328 0.588052 0.330907 0.082431
H56   H     H_    0.070344 0.411947 0.330929 0.082109
H57   H     H_    0.213667 0.910012 0.741261 0.121726
H58   H     H_    0.208950 0.088970 0.727661 0.142372
H59   H     H_    0.720308 0.411892 0.676346 0.070111
H60   H     H_    0.726247 0.589565 0.679032 0.071982
H61   H     H_    0.530254 0.089025 0.742747 0.093843
H62   H     H_    0.530244 0.910977 0.742762 0.092885
H63   H     H_    0.991929 0.587724 0.700949 0.082888
H64   H     H_    0.991826 0.412297 0.700844 0.082941
H65   H     H_    0.769661 0.909924 0.321491 0.089180
H66   H     H_    0.776429 0.088368 0.325166 0.089787
H67   H     H_    0.274442 0.411916 0.328123 0.086167
H68   H     H_    0.267439 0.589376 0.326146 0.087842
H69   H     H_    0.689009 0.163091 0.177501 0.081656
H70   H     H_    0.688745 0.836816 0.177427 0.080553
H71   H     H_    0.244485 0.630313 0.176475 0.089674
H72   H     H_    0.244536 0.369836 0.176468 0.088790
H73   H     H_    0.513704 0.832216 0.828710 0.086502
H74   H     H_    0.513736 0.167784 0.828711 0.083742
H75   H     H_    0.067098 0.356373 0.828345 0.085348
H76   H     H_    0.067067 0.643721 0.828358 0.083699
N1    N     N_R   0.392140 0.102630 0.941800 -0.040079
N2    N     N_R   0.392140 0.897370 0.941800 -0.039844
N3    N     N_R   0.892140 0.602630 0.941800 -0.045375
N4    N     N_R   0.892140 0.397370 0.941800 -0.043141
N5    N     N_R   0.450890 0.896450 0.057150 -0.038380
N6    N     N_R   0.450890 0.103550 0.057150 -0.038607
N7    N     N_R   0.950890 0.396450 0.057150 -0.043251
N8    N     N_R   0.950890 0.603550 0.057150 -0.043173
N9    N     N_R   0.525160 0.027960 0.206160 -0.038603
N10   N     N_R   0.525160 0.972040 0.206160 -0.039120
N11   N     N_R   0.025160 0.527960 0.206160 -0.036023
N12   N     N_R   0.025160 0.472040 0.206160 -0.036168
N13   N     N_R   0.317870 0.971120 0.792790 -0.046043
N14   N     N_R   0.317870 0.028880 0.792790 -0.056365
N15   N     N_R   0.817870 0.471120 0.792790 -0.034056
N16   N     N_R   0.817870 0.528880 0.792790 -0.041982
N17   N     N_R   0.473480 0.027920 0.793480 -0.042588
N18   N     N_R   0.473480 0.972080 0.793480 -0.040191
N19   N     N_R   0.973480 0.527920 0.793480 -0.039180
N20   N     N_R   0.973480 0.472080 0.793480 -0.038316
N21   N     N_R   0.681610 0.971120 0.207570 -0.036629
N22   N     N_R   0.681610 0.028880 0.207570 -0.035496
N23   N     N_R   0.181610 0.471120 0.207570 -0.034370
N24   N     N_R   0.181610 0.528880 0.207570 -0.033772
N25   N     N_R   0.605410 0.102620 0.056870 -0.037119
N26   N     N_R   0.605410 0.897380 0.056870 -0.037732
N27   N     N_R   0.105410 0.602620 0.056870 -0.041126
N28   N     N_R   0.105410 0.397380 0.056870 -0.041322
N29   N     N_R   0.549680 0.896430 0.944180 -0.037871
N30   N     N_R   0.549680 0.103570 0.944180 -0.038097
N31   N     N_R   0.049680 0.396430 0.944180 -0.041847
N32   N     N_R   0.049680 0.603570 0.944180 -0.041970
Ni1   Ni    Ni4+2 0.433410 0.064680 0.868830 0.204634
Ni2   Ni    Ni4+2 0.433410 0.935320 0.868830 0.216906
Ni3   Ni    Ni4+2 0.933410 0.564680 0.868830 0.219908
Ni4   Ni    Ni4+2 0.933410 0.435320 0.868830 0.220564
Ni5   Ni    Ni4+2 0.565650 0.934380 0.131170 0.204298
Ni6   Ni    Ni4+2 0.565650 0.065620 0.131170 0.204883
Ni7   Ni    Ni4+2 0.065650 0.434380 0.131170 0.210262
Ni8   Ni    Ni4+2 0.065650 0.565620 0.131170 0.210490
O1    O     O_3   0.090287 0.911516 0.547263 -0.757356
H77   H     H_    0.082514 0.871027 0.550357 0.307483
O2    O     O_3   0.045165 0.079853 0.694272 -0.766512
H78   H     H_    0.013073 0.091296 0.729166 0.320761
O3    O     O_3   0.603537 0.504872 0.423709 -0.746450
H79   H     H_    0.600084 0.480926 0.367317 0.320811
O4    O     O_3   0.564856 0.489037 0.722076 -0.742473
H80   H     H_    0.550904 0.459965 0.758007 0.319496

loop_
_geom_bond_atom_site_label_1
_geom_bond_atom_site_label_2
_ccdc_geom_bond_type
C10   H74   S    
C38   C87   A    
C22   O2    S    
C13   C79   S    
C58   C62   A    
C65   C79   A    
C7    H71   S    
C63   C88   S    
C97   N21   A    
C37   C88   A    
O4    H80   S    
C70   H50   S    
C41   C61   A    
C67   H43   S    
C26   H14   S    
C84   H60   S    
C43   C63   A    
C55   H35   S    
C54   C60   A    
C44   C64   A    
C45   H29   S    
C83   C92   A    
C21   C31   S    
N28   Ni7   S    
C50   C54   A    
C39   H22   S    
C34   C40   S    
C12   N32   A    
C83   N15   A    
N14   Ni1   S    
C4    N4    A    
C28   H12   S    
C6    N26   A    
C29   H18   S    
C95   H63   S    
N13   Ni2   S    
C5    N25   A    
C82   H58   S    
C35   C86   A    
C49   C53   A    
N8    Ni8   S    
C5    C17   A    
C30   H19   S    
C2    H2    S    
C10   C17   A    
N1    N6    A    
C54   H34   S    
N10   Ni5   S    
N3    Ni3   S    
C13   C93   A    
C38   N8    A    
N9    Ni6   S    
N2    Ni2   S    
C35   H45   S    
C2    C86   A    
N1    Ni1   S    
N4    Ni4   S    
C3    N3    A    
C7    N27   A    
C28   H16   S    
C16   C34   S    
C52   C56   A    
C1    N1    A    
C33   C39   S    
C71   H51   S    
C23   O3    S    
C72   H52   S    
N26   N29   A    
N25   N30   A    
C9    H73   S    
C24   H8    S    
C23   C27   S    
C26   H10   S    
C64   C87   S    
C51   C55   A    
C53   C59   A    
N4    N7    A    
C25   H9    S    
C76   C89   A    
C12   H76   S    
C58   H38   S    
C27   H11   S    
N23   N24   A    
C21   O1    S    
C82   N14   A    
C1    C85   A    
C75   N9    A    
C11   N31   A    
C15   C97   A    
C40   H24   S    
C57   H37   S    
C14   C96   A    
C56   H36   S    
N12   Ni7   S    
C44   C46   A    
C99   H67   S    
C27   C34   S    
N7    Ni7   S    
C6    C18   A    
C62   C85   S    
C11   C20   A    
C81   H57   S    
C22   C31   S    
C98   N22   A    
C81   N13   A    
C3    C87   A    
N15   N16   A    
C41   H25   S    
N27   Ni8   S    
C8    N28   A    
C53   H33   S    
C72   C74   A    
C84   N16   A    
C17   C49   S    
O2    H78   S    
C75   C89   A    
C16   C100  A    
C47   C51   A    
O1    H77   S    
C22   H6    S    
C29   H17   S    
C78   C90   A    
C82   C91   A    
C96   H64   S    
C47   H31   S    
C81   C91   A    
C42   C48   A    
C24   C32   S    
N16   Ni3   S    
N19   Ni3   S    
O3    H79   S    
C66   C79   A    
C25   H13   S    
N18   Ni2   S    
C65   H41   S    
C75   H53   S    
C26   C33   S    
N17   Ni1   S    
N28   N31   A    
C59   H39   S    
C68   C72   A    
C23   H7    S    
C29   C39   S    
C70   C73   A    
C45   C49   A    
C41   C47   A    
C30   C40   S    
C8    C20   A    
C37   H47   S    
C69   C73   A    
C43   C45   A    
C38   H48   S    
C98   H66   S    
C36   N6    A    
C60   H40   S    
C66   H42   S    
C100  N24   A    
C36   H46   S    
C93   H61   S    
C7    C19   A    
C14   C80   S    
C55   C57   A    
N31   Ni4   S    
C77   N11   A    
N23   Ni7   S    
C78   N12   A    
C27   H15   S    
C15   C98   A    
C43   H27   S    
C68   C80   A    
N22   Ni6   S    
C1    H1    S    
C14   C95   A    
C76   N10   A    
C18   C50   S    
N3    N8    A    
C6    H70   S    
C24   O4    S    
C3    H3    S    
N13   N14   A    
C65   C69   A    
C40   H23   S    
C21   C25   S    
N11   Ni8   S    
C44   H28   S    
C95   N19   A    
C94   N18   A    
C59   C63   A    
C93   N17   A    
C67   C80   A    
C24   C28   S    
C31   C91   S    
C46   H30   S    
C71   C74   A    
C16   C99   A    
C57   C61   A    
C4    C88   A    
C42   C62   A    
C36   C85   A    
C35   N5    A    
C84   C92   A    
N27   N32   A    
C46   C50   A    
C11   H75   S    
C39   H21   S    
C60   C64   A    
C13   C94   A    
C100  H68   S    
C69   H49   S    
C23   C32   S    
C74   C90   S    
C10   N30   A    
C73   C89   S    
N11   N12   A    
C20   C52   S    
C9    N29   A    
C77   H55   S    
C30   C32   S    
N30   Ni1   S    
C78   H56   S    
N9    N10   A    
C32   C92   S    
C30   H20   S    
N29   Ni2   S    
N32   Ni3   S    
C97   H65   S    
C4    H4    S    
C12   C19   A    
C76   H54   S    
N24   Ni8   S    
C56   C58   A    
C68   H44   S    
C67   C71   A    
N26   Ni5   S    
N21   N22   A    
N15   Ni4   S    
N25   Ni6   S    
N2    N5    A    
C61   C86   S    
C42   H26   S    
C28   C34   S    
N19   N20   A    
N20   Ni4   S    
C19   C51   S    
C9    C18   A    
C96   N20   A    
N21   Ni5   S    
C83   H59   S    
C66   C70   A    
C29   C31   S    
N17   N18   A    
C22   C26   S    
C99   N23   A    
N6    Ni6   S    
C77   C90   A    
C5    H69   S    
C48   H32   S    
N5    Ni5   S    
C2    N2    A    
C48   C52   A    
C15   C33   S    
C21   H5    S    
C94   H62   S    
C8    H72   S    
C25   C33   S    
C37   N7    A    
