data_mof_unit_36537.cif
_audit_creation_date              2012-12-11T14:56:45-0500
_audit_creation_method            fapswitch 2.2
_symmetry_space_group_name_H-M    P1
_symmetry_Int_Tables_number       1
_space_group_crystal_system       triclinic
_cell_length_a                    10.56768
_cell_length_b                    10.675294
_cell_length_c                    17.081081
_cell_angle_alpha                 80.536401
_cell_angle_beta                  89.772794
_cell_angle_gamma                 119.364723
_cell_volume                      1648.4889713

loop_
_atom_site_label
_atom_site_type_symbol
_atom_type_description
_atom_site_fract_x
_atom_site_fract_y
_atom_site_fract_z
_atom_type_partial_charge
C1    C     C_R   0.226603 0.856865 0.129441 0.553601
C2    C     C_1   0.636934 0.313254 0.705221 -0.045540
C3    C     C_R   0.498906 0.782510 0.774520 -0.128530
C4    C     C_R   0.637681 0.281997 0.085535 0.557061
C5    C     C_R   0.511878 0.766351 0.697211 -0.123814
C6    C     C_R   0.644582 0.856700 0.650051 0.025111
C7    C     C_R   0.755994 0.977871 0.676901 -0.122701
C8    C     C_R   0.740273 0.997507 0.754197 -0.131313
C9    C     C_R   0.614658 0.893941 0.804631 0.010267
C10   C     C_R   0.284840 0.991271 0.748159 -0.143341
C11   C     C_R   0.253707 0.969053 0.671648 -0.124412
C12   C     C_R   0.800058 0.423737 0.264283 -0.116281
C13   C     C_R   0.173690 0.826085 0.657316 0.028705
C14   C     C_R   0.134385 0.705647 0.718899 -0.140186
C15   C     C_R   0.167205 0.728288 0.795474 -0.132016
C16   C     C_R   0.640801 0.858344 0.125256 0.570280
C17   C     C_R   0.241868 0.871516 0.810104 0.030428
C18   C     C_R   0.686425 0.810133 0.357306 0.548925
C19   C     C_R   0.688882 0.395614 0.394798 0.542241
C20   C     C_R   0.104870 0.810721 0.359589 0.547880
C21   C     C_R   0.674408 0.805511 0.582237 0.549058
C22   C     C_R   0.676083 0.377007 0.623449 0.552993
C23   C     C_R   0.794991 0.414774 0.184661 -0.023493
C24   C     C_R   0.102549 0.803783 0.584856 0.548880
C25   C     C_R   0.282049 0.899603 0.888552 0.520341
C26   C     C_R   0.614708 0.223371 0.858709 0.522110
C27   C     C_R   0.600554 0.894866 0.889126 0.535972
C28   C     C_R   0.530321 0.311333 0.203392 -0.139085
C29   C     C_R   0.538070 0.322906 0.282952 -0.141786
C30   C     C_R   0.672131 0.371866 0.314163 0.022347
C31   C     C_3   0.938755 0.472926 0.135204 -0.227680
C32   C     C_3   0.002914 0.370843 0.155879 -0.281639
C33   C     C_3   0.127225 0.407854 0.094399 -0.412598
C34   C     C_R   0.656826 0.348306 0.155190 0.032656
C35   C     C_1   0.669168 0.848905 0.205370 -0.036827
C36   C     C_1   0.680339 0.839392 0.274880 -0.034594
C37   C     C_1   0.184655 0.828296 0.211931 -0.059561
C38   C     C_1   0.154214 0.821181 0.280496 -0.046303
C39   C     C_1   0.623594 0.270293 0.775474 -0.055211
Cr1   Cr    Cr6+3 0.402240 0.783890 0.019450 0.981541
Cr2   Cr    Cr6+3 0.382360 0.097900 0.991800 1.019405
Cr3   Cr    Cr6+3 0.715380 0.118170 0.988700 1.005174
Cr4   Cr    Cr6+3 0.936650 0.882420 0.465510 1.022922
Cr5   Cr    Cr6+3 0.605770 0.565620 0.493360 1.025121
Cr6   Cr    Cr6+3 0.921340 0.550490 0.496380 1.018897
H1    H     H_    0.423563 0.262651 0.181569 0.142323
H2    H     H_    0.829335 0.087103 0.775795 0.140273
H3    H     H_    0.339265 0.101687 0.759409 0.121435
H4    H     H_    0.088101 0.397837 0.034246 0.149846
H5    H     H_    0.218090 0.520706 0.092723 0.194689
H6    H     H_    0.169018 0.330707 0.110752 0.133068
H7    H     H_    0.044778 0.380773 0.215463 0.148518
H8    H     H_    0.917396 0.254792 0.158961 0.201142
H9    H     H_    0.928345 0.493883 0.070362 0.176812
H10   H     H_    0.015934 0.581166 0.148376 0.140921
H11   H     H_    0.283716 0.063265 0.624723 0.132496
H12   H     H_    0.070214 0.594449 0.709094 0.140741
H13   H     H_    0.132531 0.634231 0.843149 0.136751
H14   H     H_    0.439787 0.290033 0.320374 0.131766
H15   H     H_    0.906107 0.473673 0.287034 0.142080
H16   H     H_    0.401061 0.701717 0.812399 0.137025
H17   H     H_    0.422758 0.674021 0.677451 0.139085
H18   H     H_    0.858544 0.050685 0.640606 0.135506
O1    O     O_R   0.521780 0.757110 0.108900 -0.508635
O2    O     O_R   0.805020 0.410040 0.421340 -0.527594
O3    O     O_R   0.049240 0.685450 0.403290 -0.505376
O4    O     O_R   0.275160 0.783810 0.101120 -0.509748
O5    O     O_R   0.077520 0.903010 0.551800 -0.519990
O6    O     O_R   0.802980 0.872780 0.546830 -0.501463
O7    O     O_R   0.578090 0.681300 0.569920 -0.520461
O8    O     O_R   0.608530 0.436370 0.586530 -0.495529
O9    O     O_R   0.798770 0.401880 0.597100 -0.513187
O10   O     O_R   0.043450 0.677890 0.566230 -0.504911
O11   O     O_3   0.821250 0.666180 0.485090 -0.249530
O12   O     O_R   0.513330 0.228330 0.898660 -0.498730
O13   O     O_R   0.237900 0.972600 0.090980 -0.502011
O14   O     O_R   0.511190 0.220540 0.061620 -0.500551
O15   O     O_R   0.736920 0.257720 0.063840 -0.521901
O16   O     O_R   0.710450 0.984050 0.081720 -0.493396
O17   O     O_R   0.524090 0.765520 0.933110 -0.508865
O18   O     O_R   0.277300 0.791600 0.938160 -0.529642
O19   O     O_R   0.240210 0.981010 0.915190 -0.496437
O20   O     O_R   0.739230 0.266130 0.888050 -0.508515
O21   O     O_R   0.712580 0.991850 0.918770 -0.503296
O22   O     O_3   0.499990 0.999980 0.999980 -0.305558
O23   O     O_R   0.083770 0.911170 0.376030 -0.511509
O24   O     O_R   0.808770 0.880340 0.383890 -0.500153
O25   O     O_R   0.584340 0.689460 0.394160 -0.509948
O26   O     O_R   0.614320 0.443940 0.423590 -0.502541

loop_
_geom_bond_atom_site_label_1
_geom_bond_atom_site_label_2
_ccdc_geom_bond_type
C26   O20   A    
C32   H8    S    
C35   C36   T    
C7    C8    A    
C12   C23   A    
C28   H1    S    
C37   C38   T    
C3    C9    A    
C20   O3    A    
C27   O21   A    
C16   C35   S    
Cr2   O14   S    
C5    C6    A    
C26   C39   S    
C10   C17   A    
C33   H4    S    
Cr5   O8    S    
Cr6   O10   S    
C32   H7    S    
C2    C39   T    
C29   H14   S    
Cr4   O5    S    
Cr1   O4    S    
C20   O23   A    
C2    C22   S    
Cr1   O17   S    
Cr5   O7    S    
C1    C37   S    
Cr4   O11   S    
C28   C34   A    
Cr3   O16   S    
Cr4   O6    S    
C13   C14   A    
Cr6   O9    S    
C25   O18   A    
Cr4   O23   S    
Cr5   O26   S    
C22   O9    A    
C3    H16   S    
C4    C34   S    
Cr3   O21   S    
C27   O17   A    
C8    C9    A    
C33   H5    S    
C6    C21   S    
C18   O25   A    
C13   C24   S    
C21   O6    A    
Cr6   O11   S    
C23   C31   S    
Cr1   O22   S    
C4    O15   A    
C29   C30   A    
C19   O26   A    
Cr2   O12   S    
C20   C38   S    
C31   C32   S    
C23   C34   A    
C26   O12   A    
Cr3   O22   S    
Cr5   O11   S    
C7    H18   S    
Cr3   O15   S    
C10   H3    S    
C25   O19   A    
C15   H13   S    
C22   O8    A    
C9    C27   S    
C15   C17   A    
C14   H12   S    
C28   C29   A    
C12   C30   A    
C1    O13   A    
Cr1   O18   S    
Cr3   O20   S    
C3    C5    A    
C6    C7    A    
C33   H6    S    
Cr2   O22   S    
C18   O24   A    
Cr1   O1    S    
C21   O7    A    
C16   O16   A    
C17   C25   S    
C32   C33   S    
C8    H2    S    
Cr4   O24   S    
C4    O14   A    
Cr2   O13   S    
Cr6   O2    S    
C11   C13   A    
Cr2   O19   S    
C1    O4    A    
C5    H17   S    
C19   O2    A    
C31   H9    S    
C24   O10   A    
C10   C11   A    
C24   O5    A    
C12   H15   S    
Cr6   O3    S    
C14   C15   A    
C16   O1    A    
C31   H10   S    
Cr5   O25   S    
C19   C30   S    
C18   C36   S    
C11   H11   S    
