data_mof_unit_29949.cif
_audit_creation_date              2013-03-05T16:35:50-0500
_audit_creation_method            fapswitch 2.2
_symmetry_space_group_name_H-M    P1
_symmetry_Int_Tables_number       1
_space_group_crystal_system       triclinic
_cell_length_a                    23.582411
_cell_length_b                    9.082383
_cell_length_c                    7.834099
_cell_angle_alpha                 89.770441
_cell_angle_beta                  89.500354
_cell_angle_gamma                 89.979101
_cell_volume                      1677.86513044

loop_
_atom_site_label
_atom_site_type_symbol
_atom_site_description
_atom_site_fract_x
_atom_site_fract_y
_atom_site_fract_z
_atom_type_partial_charge
O1    O     O_R   0.500000 0.288390 0.642760 -0.583389
O2    O     O_R   0.500000 0.711610 0.357240 -0.581385
O3    O     O_R   0.500000 0.711610 0.642760 -0.575188
O4    O     O_R   0.500000 0.288390 0.357240 -0.573954
C1    C     C_R   0.500006 0.220228 0.500207 0.827175
C2    C     C_R   0.500012 0.779772 0.499791 0.826797
O5    O     O_R   0.417880 0.500000 0.642820 -0.529209
O6    O     O_R   0.582120 0.500000 0.357180 -0.537413
O7    O     O_R   0.582120 0.500000 0.642820 -0.537509
O8    O     O_R   0.417880 0.500000 0.357180 -0.525899
C3    C     C_R   0.208499 0.493534 0.468288 0.235781
C4    C     C_R   0.790500 0.488348 0.484296 0.243667
C5    C     C_R   0.390590 0.501775 0.499939 0.888324
C6    C     C_R   0.609175 0.498747 0.499140 0.914364
Cu1   Cu    Cu3+1 0.500000 0.500000 0.669080 1.111539
Cu2   Cu    Cu3+1 0.500000 0.500000 0.330920 1.113894
C7    C     C_R   0.300893 0.525506 0.336162 0.496100
C8    C     C_R   0.700114 0.424764 0.359635 0.492640
C9    C     C_R   0.293857 0.481587 0.641122 0.498292
C10   C     C_R   0.703001 0.559615 0.626996 0.491399
C11   C     C_R   0.327786 0.504156 0.494356 -0.349174
C12   C     C_R   0.671547 0.494202 0.495772 -0.329611
C13   C     C_R   0.878744 0.603877 0.404338 0.599873
C14   C     C_R   0.119747 0.361571 0.499665 0.608260
C15   C     C_R   0.879577 0.368038 0.539288 0.601490
C16   C     C_R   0.118701 0.610987 0.405021 0.599402
N1    N     N_R   0.851329 0.487036 0.476609 -0.395755
N2    N     N_R   0.147487 0.488092 0.455333 -0.397268
C17   C     C_R   0.939498 0.362221 0.532336 -0.115084
C18   C     C_R   0.059022 0.608531 0.390663 -0.116654
C19   C     C_R   0.938618 0.606136 0.393217 -0.114534
C20   C     C_R   0.059932 0.359279 0.513342 -0.116871
C21   C     C_R   0.969127 0.483912 0.459708 -0.058127
C22   C     C_R   0.029322 0.483752 0.454292 -0.061750
C23   C     C_R   0.970754 0.240272 0.596434 0.171296
C24   C     C_R   0.028199 0.726174 0.315899 0.175345
C25   C     C_R   0.968969 0.724933 0.316720 0.172665
C26   C     C_R   0.029936 0.238660 0.586503 0.171782
C27   C     C_1   0.500015 0.065437 0.500284 -0.122301
C28   C     C_1   0.500016 0.934564 0.499710 -0.122200
C29   C     C_R   0.241990 0.518494 0.323900 0.051746
C30   C     C_R   0.759430 0.421134 0.354265 0.044686
C31   C     C_R   0.234372 0.476142 0.626761 0.036624
C32   C     C_R   0.762434 0.557692 0.620768 0.043541
N3    N     N_1   0.500000 0.500000 0.076820 0.004067
N4    N     N_1   0.500000 0.500000 0.923180 0.001001
O9    O     O_2   0.847422 0.716762 0.344709 -0.553999
O10   O     O_2   0.150596 0.239496 0.530387 -0.543458
O11   O     O_2   0.849022 0.256829 0.607747 -0.553280
O12   O     O_2   0.148148 0.735408 0.373210 -0.547806
N5    N     N_3   0.944125 0.114658 0.675088 -0.527166
H1    H     H_    0.917857 0.062624 0.587202 0.259384
H2    H     H_    0.921419 0.147848 0.783466 0.267373
N6    N     N_3   0.055510 0.846559 0.228611 -0.526153
H3    H     H_    0.076651 0.912447 0.316352 0.264999
H4    H     H_    0.083602 0.805556 0.136379 0.256918
N7    N     N_3   0.941328 0.847424 0.235993 -0.527845
H5    H     H_    0.917698 0.905944 0.326450 0.260154
H6    H     H_    0.915759 0.809489 0.137120 0.265032
N8    N     N_3   0.058113 0.114458 0.661951 -0.525642
H7    H     H_    0.085836 0.150821 0.756276 0.261292
H8    H     H_    0.079734 0.055425 0.567700 0.265470
N9    N     N_3   0.215941 0.529959 0.161830 -0.542381
H9    H     H_    0.233721 0.445633 0.089206 0.263958
H10   H     H_    0.227848 0.631247 0.108644 0.277193
N10   N     N_3   0.788639 0.349134 0.216958 -0.534670
H11   H     H_    0.775756 0.397454 0.102386 0.259290
H12   H     H_    0.776001 0.238817 0.215906 0.272859
N11   N     N_3   0.198925 0.455365 0.772649 -0.546050
H13   H     H_    0.202518 0.549786 0.846482 0.244127
H14   H     H_    0.212488 0.361187 0.837459 0.269234
N12   N     N_3   0.794759 0.627068 0.751798 -0.534232
H15   H     H_    0.783277 0.579639 0.868818 0.257348
H16   H     H_    0.783480 0.738355 0.755443 0.272496
F1    F     F_    0.331266 0.552020 0.190932 -0.590305
F2    F     F_    0.670625 0.357810 0.233488 -0.621444
F3    F     F_    0.317902 0.462582 0.796552 -0.600131
F4    F     F_    0.676272 0.628785 0.758464 -0.621038

loop_
_geom_bond_atom_site_label_1
_geom_bond_atom_site_label_2
_geom_bond_distance
_ccdc_geom_bond_type
N10   H12   1.045517 S    
N9    H10   1.045856 S    
O3    C2    1.277561 A    
N3    N4    1.203632 T    
O1    C1    1.279051 A    
C24   C25   1.396801 A    
C9    C11   1.409408 A    
C16   O12   1.347819 S    
N7    H6    1.045327 S    
Cu1   Cu2   2.649180 S    
C17   C21   1.422000 A    
N8    H8    1.043563 S    
N11   H14   1.044456 S    
C4    C30   1.401975 A    
C32   N12   1.432140 S    
C8    F2    1.359101 S    
C19   C21   1.422172 A    
C3    C31   1.396451 A    
O1    Cu1   1.933774 S    
C20   C26   1.420385 A    
O2    Cu2   1.933773 S    
O5    Cu1   1.949269 S    
N10   H11   1.045006 S    
O6    Cu2   1.949267 S    
O2    C2    1.279045 A    
C10   C32   1.402114 A    
C9    C31   1.409177 A    
C7    C29   1.394739 A    
C15   C17   1.414632 A    
N6    H4    1.045590 S    
C13   O9    1.347818 S    
C18   C22   1.418934 A    
C4    N1    1.435299 S    
N5    H1    1.044703 S    
C14   O10   1.347878 S    
C23   C26   1.397211 A    
N12   H16   1.045510 S    
C27   C28   1.188665 T    
O4    C1    1.277548 A    
C7    C11   1.409751 A    
C19   C25   1.422500 A    
N8    H7    1.045505 S    
N5    H2    1.045214 S    
C13   C19   1.414060 A    
O4    Cu2   1.932132 S    
O7    C6    1.289088 A    
C14   C20   1.413863 A    
C9    F3    1.358053 S    
C21   C22   1.419808 A    
C5    C11   1.482237 S    
C26   N8    1.436796 S    
C10   C12   1.406601 A    
C16   C18   1.413026 A    
C13   N1    1.361597 A    
C1    C27   1.405872 S    
C23   N5    1.436577 S    
C2    C28   1.405875 S    
C29   N9    1.418717 S    
O3    Cu1   1.932131 S    
C30   N10   1.432327 S    
N6    H3    1.043374 S    
O6    C6    1.286971 A    
C8    C12   1.407694 A    
C14   N2    1.364711 A    
N12   H15   1.044937 S    
O8    C5    1.285617 A    
Cu2   N3    1.990644 S    
C10   F4    1.358800 S    
C15   N1    1.361577 A    
C17   C23   1.422537 A    
C16   N2    1.364785 A    
C18   C24   1.419474 A    
C6    C12   1.471451 S    
C8    C30   1.399453 A    
O7    Cu1   1.945699 S    
C4    C32   1.403747 A    
O8    Cu2   1.945702 S    
N7    H5    1.044562 S    
C3    N2    1.444144 S    
C3    C29   1.391818 A    
N11   H13   1.040213 S    
C15   O11   1.347770 S    
C24   N6    1.436924 S    
N9    H9    1.041724 S    
O5    C5    1.296058 A    
C31   N11   1.422098 S    
C7    F1    1.359849 S    
Cu1   N4    1.990644 S    
C25   N7    1.436509 S    
C20   C22   1.419221 A    
