data_mof_unit_32720.cif
_audit_creation_date              2012-12-10T17:31:15-0500
_audit_creation_method            fapswitch 2.2
_symmetry_space_group_name_H-M    P1
_symmetry_Int_Tables_number       1
_space_group_crystal_system       triclinic
_cell_length_a                    11.994407
_cell_length_b                    12.895297
_cell_length_c                    15.636739
_cell_angle_alpha                 87.09891
_cell_angle_beta                  116.921645
_cell_angle_gamma                 93.448655
_cell_volume                      2151.80189897

loop_
_atom_site_label
_atom_site_type_symbol
_atom_type_description
_atom_site_fract_x
_atom_site_fract_y
_atom_site_fract_z
_atom_type_partial_charge
C1    C     C_R   0.477627 0.299367 0.499264 0.891511
C2    C     C_R   0.661953 0.969859 0.524649 -0.217989
C3    C     C_R   0.349226 0.137409 0.479706 -0.203869
C4    C     C_R   0.650777 0.862591 0.520300 -0.203866
C5    C     C_R   0.568513 0.132113 0.514769 -0.278139
C6    C     C_R   0.431490 0.867887 0.485239 -0.278129
C7    C     C_R   0.558091 0.025647 0.510037 0.186756
C8    C     C_R   0.441913 0.974353 0.489972 0.186753
C9    C     C_R   0.999266 0.597901 0.407639 0.115188
C10   C     C_R   0.000708 0.402054 0.592322 0.115189
C11   C     C_R   0.121547 0.588283 0.418134 -0.007568
C12   C     C_R   0.522374 0.700633 0.500737 0.891558
C13   C     C_R   0.878435 0.411687 0.581838 -0.007602
C14   C     C_R   0.163426 0.458543 0.539937 -0.074844
C15   C     C_R   0.836572 0.541452 0.460058 -0.074852
C16   C     C_R   0.578478 0.495453 0.681006 0.889410
C17   C     C_R   0.421520 0.504509 0.318991 0.889388
C18   C     C_R   0.041704 0.464578 0.533655 0.019877
C19   C     C_R   0.958286 0.535402 0.466329 0.019870
C20   C     C_R   0.629581 0.492626 0.786135 -0.087011
C21   C     C_R   0.370420 0.507139 0.213860 -0.087041
C22   C     C_R   0.786918 0.460240 0.949469 -0.207878
C23   C     C_R   0.646297 0.479908 0.113790 -0.227950
C24   C     C_R   0.212994 0.539009 0.050457 -0.207807
C25   C     C_R   0.753133 0.465741 0.851070 0.199622
C26   C     C_R   0.246775 0.533711 0.148860 0.199545
C27   C     C_R   0.545815 0.514562 0.821357 -0.312855
C28   C     C_R   0.454256 0.485216 0.178696 -0.312769
C29   C     C_R   0.574014 0.498218 0.917488 0.093660
C30   C     C_R   0.426000 0.501234 0.082523 0.093622
C31   C     C_R   0.698385 0.475032 0.982618 0.128634
C32   C     C_R   0.301577 0.524240 0.017348 0.128637
C33   C     C_R   0.481740 0.504923 0.950129 0.082038
C34   C     C_R   0.353698 0.519276 0.886200 -0.227966
C35   C     C_R   0.518270 0.494417 0.049884 0.082013
C36   C     C_3   0.915363 0.674518 0.333929 -0.959330
C37   C     C_3   0.084567 0.325368 0.665971 -0.959401
C38   C     C_3   0.150313 0.557111 0.181176 -0.898810
C39   C     C_3   0.849479 0.442179 0.818684 -0.898950
C40   C     C_R   0.733639 0.468053 0.080322 -0.225929
C41   C     C_R   0.266312 0.531055 0.919636 -0.225931
C42   C     C_R   0.535757 0.811944 0.501409 -0.057017
C43   C     C_R   0.464246 0.188056 0.498596 -0.056989
C44   C     C_R   0.338051 0.030141 0.475360 -0.217991
H1    H     H_    0.829805 0.454360 0.131509 0.151131
H2    H     H_    0.316430 0.520880 0.809308 0.145645
H3    H     H_    0.341920 0.828823 0.469647 0.159919
H4    H     H_    0.658084 0.171178 0.530361 0.159908
H5    H     H_    0.731801 0.819502 0.532780 0.162247
H6    H     H_    0.268201 0.180498 0.467225 0.162238
H7    H     H_    0.248744 0.991025 0.460186 0.140674
H8    H     H_    0.751260 0.008975 0.539822 0.140675
H9    H     H_    0.770787 0.595113 0.409797 0.156786
H10   H     H_    0.229213 0.404887 0.590203 0.156782
H11   H     H_    0.962553 0.715990 0.294448 0.244181
H12   H     H_    0.170112 0.544592 0.868422 0.151161
H13   H     H_    0.830030 0.633194 0.280708 0.248344
H14   H     H_    0.888323 0.733448 0.369711 0.246115
H15   H     H_    0.037359 0.283869 0.705427 0.244197
H16   H     H_    0.111567 0.266465 0.630139 0.246139
H17   H     H_    0.169924 0.366632 0.719221 0.248284
H18   H     H_    0.183653 0.624796 0.228844 0.242295
H19   H     H_    0.059595 0.576833 0.119688 0.226514
H20   H     H_    0.132372 0.488244 0.219421 0.250972
H21   H     H_    0.815840 0.374660 0.770821 0.242292
H22   H     H_    0.867726 0.511085 0.780637 0.250968
H23   H     H_    0.845969 0.364105 0.625724 0.130009
H24   H     H_    0.940092 0.422111 0.880119 0.226512
H25   H     H_    0.154000 0.635842 0.374227 0.129990
H26   H     H_    0.542506 0.454821 0.228469 0.171698
H27   H     H_    0.457674 0.545235 0.771677 0.171676
H28   H     H_    0.881718 0.441822 0.000387 0.140556
H29   H     H_    0.118140 0.557229 0.999496 0.140590
H30   H     H_    0.683611 0.478163 0.190683 0.145635
N1    N     N_R   0.799120 0.480200 0.517090 -0.116454
N2    N     N_R   0.200880 0.519800 0.482910 -0.116457
O1    O     O_R   0.580150 0.341050 0.504560 -0.625280
O2    O     O_R   0.419850 0.658950 0.495440 -0.625251
O3    O     O_R   0.388090 0.353760 0.493600 -0.623060
O4    O     O_R   0.611910 0.646240 0.506400 -0.623039
O5    O     O_R   0.650890 0.490020 0.640860 -0.611077
O6    O     O_R   0.349110 0.509980 0.359140 -0.611088
O7    O     O_R   0.458830 0.502730 0.629890 -0.621682
O8    O     O_R   0.541170 0.497270 0.370110 -0.621721
Zn1   Zn    Zn3+2 0.628240 0.491510 0.507320 0.933090
Zn2   Zn    Zn3+2 0.371760 0.508490 0.492680 0.933100

loop_
_geom_bond_atom_site_label_1
_geom_bond_atom_site_label_2
_ccdc_geom_bond_type
C15   N1    A    
C21   C26   A    
C27   C29   A    
C1    O1    A    
C39   H24   S    
C14   C18   A    
C2    C7    A    
C7    C8    A    
C15   C19   A    
C3    C43   A    
C30   C35   A    
C10   C37   S    
C15   H9    S    
C24   C26   A    
C18   C19   A    
C36   H14   S    
C11   N2    A    
C24   H29   S    
C20   C25   A    
C23   C40   A    
C29   C33   A    
C31   C40   A    
C17   O6    A    
C12   C42   S    
C1    C43   S    
C13   N1    A    
C9    C19   A    
C22   C25   A    
C12   O2    A    
C9    C36   S    
C32   C41   A    
C34   H2    S    
O2    Zn2   S    
C5    C43   A    
O1    Zn1   S    
C39   H21   S    
C34   C41   A    
C22   H28   S    
C3    H6    S    
N1    Zn1   S    
C38   H20   S    
C40   H1    S    
C5    H4    S    
C3    C44   A    
C22   C31   A    
O8    Zn1   S    
C36   H13   S    
C6    H3    S    
C5    C7    A    
C26   C38   S    
C6    C8    A    
O6    Zn2   S    
C16   O7    A    
C17   C21   S    
C14   N2    A    
C2    C4    A    
C24   C32   A    
C41   H12   S    
O4    Zn1   S    
C16   C20   S    
C33   C34   A    
C9    C11   A    
C37   H15   S    
C2    H8    S    
C44   H7    S    
C14   H10   S    
C21   C28   A    
C23   C35   A    
C1    O3    A    
C39   H22   S    
C23   H30   S    
N2    Zn2   S    
C27   H27   S    
C38   H19   S    
C13   H23   S    
C28   H26   S    
C8    C44   A    
C10   C13   A    
C37   H17   S    
C11   H25   S    
C20   C27   A    
C4    H5    S    
C17   O8    A    
C28   C30   A    
C29   C31   A    
C36   H11   S    
C25   C39   S    
C30   C32   A    
C4    C42   A    
C10   C18   A    
C12   O4    A    
C16   O5    A    
C33   C35   A    
C37   H16   S    
O7    Zn2   S    
C6    C42   A    
O3    Zn2   S    
O5    Zn1   S    
C38   H18   S    
