data_mof_unit_62051.cif
_audit_creation_date              2012-12-10T18:07:12-0500
_audit_creation_method            fapswitch 2.2
_symmetry_space_group_name_H-M    P1
_symmetry_Int_Tables_number       1
_space_group_crystal_system       triclinic
_cell_length_a                    18.326923
_cell_length_b                    18.326925
_cell_length_c                    43.070781
_cell_angle_alpha                 90.0
_cell_angle_beta                  89.999986
_cell_angle_gamma                 89.978212
_cell_volume                      14466.4467653

loop_
_atom_site_label
_atom_site_type_symbol
_atom_type_description
_atom_site_fract_x
_atom_site_fract_y
_atom_site_fract_z
_atom_type_partial_charge
C1    C     C_R   0.438628 0.025975 0.114751 0.461966
C2    C     C_R   0.561372 0.974025 0.885249 0.461965
C3    C     C_R   0.025975 0.438628 0.114751 0.461965
C4    C     C_R   0.974025 0.561372 0.885249 0.461966
C5    C     C_R   0.561372 0.974025 0.114751 0.461965
C6    C     C_R   0.438628 0.025975 0.885249 0.461966
C7    C     C_R   0.974025 0.561372 0.114751 0.461965
C8    C     C_R   0.025975 0.438628 0.885249 0.461965
C9    C     C_R   0.938628 0.525975 0.614751 0.461966
C10   C     C_R   0.061372 0.474025 0.385249 0.461965
C11   C     C_R   0.525975 0.938628 0.614751 0.461966
C12   C     C_R   0.474025 0.061372 0.385249 0.461965
C13   C     C_R   0.061372 0.474025 0.614751 0.461965
C14   C     C_R   0.938628 0.525975 0.385249 0.461965
C15   C     C_R   0.474025 0.061372 0.614751 0.461966
C16   C     C_R   0.525975 0.938628 0.385249 0.461966
C17   C     C_R   0.440065 0.027487 0.082234 -0.262816
C18   C     C_R   0.559935 0.972512 0.917766 -0.262817
C19   C     C_R   0.027487 0.440064 0.082234 -0.262816
C20   C     C_R   0.972513 0.559936 0.917766 -0.262816
C21   C     C_R   0.559935 0.972513 0.082234 -0.262817
C22   C     C_R   0.440065 0.027488 0.917766 -0.262816
C23   C     C_R   0.972513 0.559935 0.082234 -0.262816
C24   C     C_R   0.027487 0.440064 0.917766 -0.262816
C25   C     C_R   0.940064 0.527487 0.582234 -0.262817
C26   C     C_R   0.059935 0.472513 0.417766 -0.262816
C27   C     C_R   0.527488 0.940064 0.582234 -0.262817
C28   C     C_R   0.472512 0.059935 0.417766 -0.262817
C29   C     C_R   0.059936 0.472513 0.582234 -0.262816
C30   C     C_R   0.940064 0.527488 0.417766 -0.262816
C31   C     C_R   0.472512 0.059935 0.582234 -0.262816
C32   C     C_R   0.527487 0.940064 0.417766 -0.262816
C33   C     C_R   0.500000 1.000000 0.131305 -0.233741
C34   C     C_R   0.500000 1.000000 0.868695 -0.233741
C35   C     C_R   0.000000 0.500000 0.131305 -0.233741
C36   C     C_R   1.000000 0.500000 0.868695 -0.233741
C37   C     C_R   1.000000 0.500000 0.631305 -0.233740
C38   C     C_R   1.000000 0.500000 0.368695 -0.233741
C39   C     C_R   0.500000 0.000000 0.631305 -0.233741
C40   C     C_R   0.500000 1.000000 0.368695 -0.233741
C41   C     C_R   1.000000 0.500000 0.468489 0.352954
C42   C     C_R   1.000000 0.500000 0.531511 0.352954
C43   C     C_R   0.500000 0.000000 0.468489 0.352954
C44   C     C_R   0.500000 0.000000 0.531511 0.352954
C45   C     C_R   0.500000 1.000000 0.968489 0.352954
C46   C     C_R   0.500000 0.000000 0.031511 0.352954
C47   C     C_R   1.000000 0.500000 0.968489 0.352954
C48   C     C_R   0.000000 0.500000 0.031511 0.352954
C49   C     C_R   0.500000 0.000000 0.334336 0.888908
C50   C     C_R   0.500000 0.000000 0.665664 0.888907
C51   C     C_R   1.000000 0.500000 0.334336 0.888908
C52   C     C_R   1.000000 0.500000 0.665664 0.888908
C53   C     C_R   0.000000 0.500000 0.834336 0.888907
C54   C     C_R   0.000000 0.500000 0.165664 0.888907
C55   C     C_R   0.500000 1.000000 0.834336 0.888908
C56   C     C_R   0.500000 0.000000 0.165664 0.888908
C57   C     C_R   0.360038 0.139962 0.250000 0.806706
C58   C     C_R   0.639962 0.860038 0.750000 0.806705
C59   C     C_R   0.860029 0.360028 0.250000 0.809213
C60   C     C_R   0.139971 0.639971 0.750000 0.809213
C61   C     C_R   0.639962 0.860038 0.250000 0.806706
C62   C     C_R   0.360038 0.139962 0.750000 0.806706
C63   C     C_R   0.139971 0.639971 0.250000 0.809213
C64   C     C_R   0.860029 0.360028 0.750000 0.809212
C65   C     C_R   0.360028 0.860028 0.750000 0.809212
C66   C     C_R   0.639971 0.139971 0.250000 0.809213
C67   C     C_R   0.860038 0.639962 0.750000 0.806705
C68   C     C_R   0.139962 0.360038 0.250000 0.806706
C69   C     C_R   0.639971 0.139971 0.750000 0.809213
C70   C     C_R   0.360028 0.860028 0.250000 0.809212
C71   C     C_R   0.139962 0.360038 0.750000 0.806705
C72   C     C_R   0.860038 0.639962 0.250000 0.806705
C73   C     C_R   0.281489 0.772499 0.221650 -0.058818
C74   C     C_R   0.718511 0.227501 0.778350 -0.058818
C75   C     C_R   0.229901 0.283919 0.221838 -0.068117
C76   C     C_R   0.770099 0.716081 0.778162 -0.068117
C77   C     C_R   0.718511 0.227501 0.221650 -0.058819
C78   C     C_R   0.281489 0.772499 0.778350 -0.058819
C79   C     C_R   0.770099 0.716081 0.221838 -0.068116
C80   C     C_R   0.229901 0.283919 0.778162 -0.068116
C81   C     C_R   0.283919 0.229901 0.778162 -0.068117
C82   C     C_R   0.716081 0.770099 0.221838 -0.068117
C83   C     C_R   0.227501 0.718511 0.778350 -0.058818
C84   C     C_R   0.772499 0.281489 0.221650 -0.058818
C85   C     C_R   0.716081 0.770099 0.778162 -0.068117
C86   C     C_R   0.283919 0.229901 0.221838 -0.068116
C87   C     C_R   0.772499 0.281489 0.778350 -0.058819
C88   C     C_R   0.227501 0.718511 0.221650 -0.058819
C89   C     C_R   0.781489 0.272499 0.721650 -0.058819
C90   C     C_R   0.218511 0.727501 0.278350 -0.058818
C91   C     C_R   0.729901 0.783919 0.721838 -0.068117
C92   C     C_R   0.270099 0.216081 0.278162 -0.068117
C93   C     C_R   0.218511 0.727501 0.721650 -0.058819
C94   C     C_R   0.781489 0.272499 0.278350 -0.058819
C95   C     C_R   0.270099 0.216081 0.721838 -0.068117
C96   C     C_R   0.729901 0.783919 0.278162 -0.068117
C97   C     C_R   0.783919 0.729901 0.278162 -0.068117
C98   C     C_R   0.216081 0.270099 0.721838 -0.068117
C99   C     C_R   0.727501 0.218511 0.278350 -0.058818
C100  C     C_R   0.272499 0.781489 0.721650 -0.058818
C101  C     C_R   0.216081 0.270099 0.278162 -0.068117
C102  C     C_R   0.783919 0.729901 0.721838 -0.068117
C103  C     C_R   0.272499 0.781489 0.278350 -0.058819
C104  C     C_R   0.727501 0.218511 0.721650 -0.058819
C105  C     C_R   0.196157 0.696157 0.250000 -0.106213
C106  C     C_R   0.803843 0.303843 0.750000 -0.106213
C107  C     C_R   0.303853 0.196147 0.250000 -0.098298
C108  C     C_R   0.696147 0.803853 0.750000 -0.098299
C109  C     C_R   0.803843 0.303843 0.250000 -0.106213
C110  C     C_R   0.196157 0.696157 0.750000 -0.106213
C111  C     C_R   0.696147 0.803853 0.250000 -0.098299
C112  C     C_R   0.303853 0.196147 0.750000 -0.098299
C113  C     C_R   0.196147 0.303853 0.750000 -0.098299
C114  C     C_R   0.803853 0.696147 0.250000 -0.098299
C115  C     C_R   0.303843 0.803843 0.750000 -0.106213
C116  C     C_R   0.696157 0.196157 0.250000 -0.106213
C117  C     C_R   0.803853 0.696147 0.750000 -0.098299
C118  C     C_R   0.196147 0.303853 0.250000 -0.098298
C119  C     C_R   0.696157 0.196157 0.750000 -0.106213
C120  C     C_R   0.303843 0.803843 0.250000 -0.106213
C121  C     C_R   0.500000 0.000000 0.065776 -0.053612
C122  C     C_R   0.500000 1.000000 0.934224 -0.053612
C123  C     C_R   0.000000 0.500000 0.065776 -0.053612
C124  C     C_R   0.000000 0.500000 0.934224 -0.053613
C125  C     C_R   1.000000 0.500000 0.565776 -0.053613
C126  C     C_R   1.000000 0.500000 0.434224 -0.053612
C127  C     C_R   0.500000 0.000000 0.565776 -0.053612
C128  C     C_R   0.500000 1.000000 0.434224 -0.053612
H1    H     H_    0.393979 0.050540 0.069933 0.179242
H2    H     H_    0.606021 0.949460 0.930067 0.179243
H3    H     H_    0.050539 0.393979 0.069933 0.179242
H4    H     H_    0.949461 0.606021 0.930067 0.179243
H5    H     H_    0.606021 0.949460 0.069933 0.179242
H6    H     H_    0.393979 0.050540 0.930067 0.179242
H7    H     H_    0.949461 0.606021 0.069933 0.179242
H8    H     H_    0.050539 0.393979 0.930067 0.179242
H9    H     H_    0.893979 0.550539 0.569933 0.179242
H10   H     H_    0.106021 0.449460 0.430067 0.179242
H11   H     H_    0.550540 0.893979 0.569933 0.179243
H12   H     H_    0.449460 0.106021 0.430067 0.179243
H13   H     H_    0.106021 0.449461 0.569933 0.179243
H14   H     H_    0.893979 0.550540 0.430067 0.179242
H15   H     H_    0.449460 0.106021 0.569933 0.179242
H16   H     H_    0.550539 0.893979 0.430067 0.179242
N1    N     N_R   0.558496 0.974746 0.015440 -0.177182
N2    N     N_R   0.441504 0.025254 0.984560 -0.177182
N3    N     N_R   0.974747 0.558496 0.015440 -0.177182
N4    N     N_R   0.025253 0.441504 0.984560 -0.177182
N5    N     N_R   0.441504 0.025254 0.015440 -0.177182
N6    N     N_R   0.558495 0.974746 0.984560 -0.177182
N7    N     N_R   0.025253 0.441504 0.015440 -0.177182
N8    N     N_R   0.974747 0.558496 0.984560 -0.177182
N9    N     N_R   0.058496 0.474746 0.515440 -0.177182
N10   N     N_R   0.941504 0.525254 0.484560 -0.177182
N11   N     N_R   0.474746 0.058495 0.515440 -0.177182
N12   N     N_R   0.525254 0.941504 0.484560 -0.177182
N13   N     N_R   0.941504 0.525254 0.515440 -0.177183
N14   N     N_R   0.058496 0.474746 0.484560 -0.177182
N15   N     N_R   0.525254 0.941504 0.515440 -0.177182
N16   N     N_R   0.474746 0.058495 0.484560 -0.177182
O1    O     O_3   0.500000 0.000000 0.250000 -0.509101
O2    O     O_3   0.500000 0.000000 0.750000 -0.509101
O3    O     O_3   1.000000 0.500000 0.250000 -0.509101
O4    O     O_3   1.000000 0.500000 0.750000 -0.509101
O5    O     O_R   0.500000 0.939250 0.319430 -0.606996
O6    O     O_R   0.500000 0.060750 0.680570 -0.606997
O7    O     O_R   0.060750 0.500000 0.319430 -0.606997
O8    O     O_R   0.939250 0.500000 0.680570 -0.606995
O9    O     O_R   0.500000 0.060750 0.319430 -0.606997
O10   O     O_R   0.500000 0.939250 0.680570 -0.606997
O11   O     O_R   0.939250 0.500000 0.319430 -0.606996
O12   O     O_R   0.060750 0.500000 0.680570 -0.606997
O13   O     O_R   0.000000 0.439250 0.819430 -0.606996
O14   O     O_R   0.000000 0.560750 0.180570 -0.606997
O15   O     O_R   0.560750 0.000000 0.819430 -0.606997
O16   O     O_R   0.439250 0.000000 0.180570 -0.606997
O17   O     O_R   1.000000 0.560750 0.819430 -0.606997
O18   O     O_R   0.000000 0.439250 0.180570 -0.606996
O19   O     O_R   0.439250 0.000000 0.819430 -0.606996
O20   O     O_R   0.560750 0.000000 0.180570 -0.606997
O21   O     O_R   0.414500 0.146140 0.268270 -0.633041
O22   O     O_R   0.585500 0.853860 0.731730 -0.633041
O23   O     O_R   0.853860 0.414500 0.268270 -0.639981
O24   O     O_R   0.146140 0.585500 0.731730 -0.639981
O25   O     O_R   0.585500 0.853860 0.268270 -0.633041
O26   O     O_R   0.414500 0.146140 0.731730 -0.633040
O27   O     O_R   0.146140 0.585500 0.268270 -0.639981
O28   O     O_R   0.853860 0.414500 0.731730 -0.639980
O29   O     O_R   0.414500 0.853860 0.731730 -0.639981
O30   O     O_R   0.585500 0.146140 0.268270 -0.639981
O31   O     O_R   0.853860 0.585500 0.731730 -0.633041
O32   O     O_R   0.146140 0.414500 0.268270 -0.633041
O33   O     O_R   0.585500 0.146140 0.731730 -0.639981
O34   O     O_R   0.414500 0.853860 0.268270 -0.639981
O35   O     O_R   0.146140 0.414500 0.731730 -0.633041
O36   O     O_R   0.853860 0.585500 0.268270 -0.633041
O37   O     O_R   0.914500 0.646140 0.768270 -0.633041
O38   O     O_R   0.085500 0.353860 0.231730 -0.633041
O39   O     O_R   0.353860 0.914500 0.768270 -0.639981
O40   O     O_R   0.646140 0.085500 0.231730 -0.639981
O41   O     O_R   0.085500 0.353860 0.768270 -0.633041
O42   O     O_R   0.914500 0.646140 0.231730 -0.633040
O43   O     O_R   0.646140 0.085500 0.768270 -0.639981
O44   O     O_R   0.353860 0.914500 0.231730 -0.639981
O45   O     O_R   0.914500 0.353860 0.231730 -0.639981
O46   O     O_R   0.085500 0.646140 0.768270 -0.639981
O47   O     O_R   0.353860 0.085500 0.231730 -0.633041
O48   O     O_R   0.646140 0.914500 0.768270 -0.633041
O49   O     O_R   0.085500 0.646140 0.231730 -0.639981
O50   O     O_R   0.914500 0.353860 0.768270 -0.639981
O51   O     O_R   0.646140 0.914500 0.231730 -0.633041
O52   O     O_R   0.353860 0.085500 0.768270 -0.633041
Zn1   Zn    Zn3+2 0.413200 0.000000 0.224130 1.001896
Zn2   Zn    Zn3+2 0.586800 0.000000 0.775870 1.001896
Zn3   Zn    Zn3+2 0.000000 0.413200 0.224130 1.001896
Zn4   Zn    Zn3+2 1.000000 0.586800 0.775870 1.001896
Zn5   Zn    Zn3+2 0.586800 0.000000 0.224130 1.001896
Zn6   Zn    Zn3+2 0.413200 0.000000 0.775870 1.001896
Zn7   Zn    Zn3+2 0.000000 0.586800 0.224130 1.001896
Zn8   Zn    Zn3+2 1.000000 0.413200 0.775870 1.001896
Zn9   Zn    Zn3+2 0.913200 0.500000 0.724130 1.001897
Zn10  Zn    Zn3+2 0.086800 0.500000 0.275870 1.001896
Zn11  Zn    Zn3+2 0.500000 0.913200 0.724130 1.001896
Zn12  Zn    Zn3+2 0.500000 0.086800 0.275870 1.001896
Zn13  Zn    Zn3+2 0.086800 0.500000 0.724130 1.001896
Zn14  Zn    Zn3+2 0.913200 0.500000 0.275870 1.001896
Zn15  Zn    Zn3+2 0.500000 0.086800 0.724130 1.001896
Zn16  Zn    Zn3+2 0.500000 0.913200 0.275870 1.001896
O53   O     O_3   0.380135 0.056455 0.130413 -0.576410
C129  C     C_3   0.319006 0.010238 0.127359 -0.215452
H17   H     H_    0.275146 0.030705 0.142830 0.191319
H18   H     H_    0.331756 0.953326 0.134662 0.167570
H19   H     H_    0.297454 0.010895 0.103238 0.141306
O54   O     O_3   0.619865 0.943545 0.869587 -0.576410
C130  C     C_3   0.680993 0.989762 0.872641 -0.215453
H20   H     H_    0.668243 0.046674 0.865338 0.167570
H21   H     H_    0.724853 0.969295 0.857170 0.191319
H22   H     H_    0.702546 0.989105 0.896762 0.141306
O55   O     O_3   0.056454 0.380135 0.130413 -0.576410
C131  C     C_3   0.010237 0.319006 0.127359 -0.215452
H23   H     H_    0.953326 0.331757 0.134662 0.167571
H24   H     H_    0.030704 0.275146 0.142830 0.191319
H25   H     H_    0.010894 0.297454 0.103238 0.141306
O56   O     O_3   0.943546 0.619865 0.869587 -0.576411
C132  C     C_3   0.989763 0.680993 0.872641 -0.215450
H26   H     H_    0.969296 0.724854 0.857170 0.191318
H27   H     H_    0.046675 0.668243 0.865338 0.167570
H28   H     H_    0.989107 0.702546 0.896762 0.141306
O57   O     O_3   0.619865 0.943545 0.130413 -0.576410
C133  C     C_3   0.680993 0.989762 0.127359 -0.215452
H29   H     H_    0.724854 0.969295 0.142830 0.191319
H30   H     H_    0.668244 0.046674 0.134662 0.167570
H31   H     H_    0.702546 0.989105 0.103238 0.141306
O58   O     O_3   0.380135 0.056454 0.869587 -0.576411
C134  C     C_3   0.319007 0.010238 0.872641 -0.215450
H32   H     H_    0.331756 0.953326 0.865338 0.167570
H33   H     H_    0.275146 0.030705 0.857170 0.191318
H34   H     H_    0.297454 0.010895 0.896762 0.141305
O59   O     O_3   0.943546 0.619865 0.130413 -0.576411
C135  C     C_3   0.989763 0.680993 0.127359 -0.215451
H35   H     H_    0.046674 0.668243 0.134662 0.167570
H36   H     H_    0.969296 0.724854 0.142830 0.191319
H37   H     H_    0.989106 0.702546 0.103238 0.141306
O60   O     O_3   0.056454 0.380135 0.869587 -0.576410
C136  C     C_3   0.010237 0.319006 0.872641 -0.215450
H38   H     H_    0.030704 0.275146 0.857170 0.191318
H39   H     H_    0.953325 0.331757 0.865338 0.167570
H40   H     H_    0.010894 0.297454 0.896762 0.141305
O61   O     O_3   0.880135 0.556454 0.630413 -0.576410
C137  C     C_3   0.819006 0.510238 0.627358 -0.215453
H41   H     H_    0.775147 0.530704 0.642830 0.191319
H42   H     H_    0.831756 0.453326 0.634660 0.167568
H43   H     H_    0.797453 0.510899 0.603238 0.141307
O62   O     O_3   0.119865 0.443545 0.369587 -0.576410
C138  C     C_3   0.180993 0.489762 0.372641 -0.215451
H44   H     H_    0.168243 0.546674 0.365338 0.167570
H45   H     H_    0.224854 0.469295 0.357170 0.191318
H46   H     H_    0.202546 0.489105 0.396762 0.141306
O63   O     O_3   0.556454 0.880135 0.630413 -0.576411
C139  C     C_3   0.510238 0.819007 0.627359 -0.215451
H47   H     H_    0.453326 0.831757 0.634662 0.167570
H48   H     H_    0.530705 0.775146 0.642830 0.191319
H49   H     H_    0.510894 0.797454 0.603238 0.141306
O64   O     O_3   0.443545 0.119865 0.369587 -0.576410
C140  C     C_3   0.489762 0.180993 0.372641 -0.215451
H50   H     H_    0.469295 0.224854 0.357170 0.191319
H51   H     H_    0.546674 0.168243 0.365338 0.167570
H52   H     H_    0.489106 0.202545 0.396762 0.141306
O65   O     O_3   0.119865 0.443546 0.630413 -0.576411
C141  C     C_3   0.180994 0.489763 0.627359 -0.215451
H53   H     H_    0.224854 0.469296 0.642830 0.191319
H54   H     H_    0.168243 0.546674 0.634662 0.167570
H55   H     H_    0.202546 0.489106 0.603238 0.141306
O66   O     O_3   0.880135 0.556454 0.369587 -0.576410
C142  C     C_3   0.819006 0.510238 0.372641 -0.215451
H56   H     H_    0.831756 0.453326 0.365338 0.167570
H57   H     H_    0.775146 0.530705 0.357170 0.191319
H58   H     H_    0.797454 0.510895 0.396762 0.141305
O67   O     O_3   0.443545 0.119865 0.630413 -0.576411
C143  C     C_3   0.489762 0.180993 0.627359 -0.215451
H59   H     H_    0.546674 0.168243 0.634662 0.167570
H60   H     H_    0.469295 0.224854 0.642830 0.191318
H61   H     H_    0.489105 0.202546 0.603238 0.141306
O68   O     O_3   0.556454 0.880135 0.369587 -0.576411
C144  C     C_3   0.510238 0.819006 0.372641 -0.215451
H62   H     H_    0.530705 0.775146 0.357170 0.191318
H63   H     H_    0.453326 0.831756 0.365338 0.167570
H64   H     H_    0.510895 0.797454 0.396762 0.141306
C145  C     C_1   0.315764 0.793823 0.192609 0.192437
N17   N     N_1   0.343095 0.810794 0.169486 -0.211053
C146  C     C_1   0.684236 0.206177 0.807391 0.192437
N18   N     N_1   0.656905 0.189206 0.830514 -0.211053
C147  C     C_1   0.211073 0.320782 0.193073 0.190443
N19   N     N_1   0.196180 0.350195 0.170156 -0.131994
C148  C     C_1   0.788927 0.679218 0.806927 0.190443
N20   N     N_1   0.803820 0.649805 0.829844 -0.131994
C149  C     C_1   0.684236 0.206177 0.192609 0.192437
N21   N     N_1   0.656905 0.189206 0.169486 -0.211053
C150  C     C_1   0.315764 0.793823 0.807391 0.192437
N22   N     N_1   0.343095 0.810793 0.830514 -0.211053
C151  C     C_1   0.788927 0.679218 0.193073 0.190443
N23   N     N_1   0.803820 0.649805 0.170156 -0.131994
C152  C     C_1   0.211073 0.320782 0.806927 0.190443
N24   N     N_1   0.196180 0.350195 0.829844 -0.131994
C153  C     C_1   0.320782 0.211073 0.806927 0.190443
N25   N     N_1   0.350195 0.196180 0.829844 -0.131994
C154  C     C_1   0.679218 0.788927 0.193073 0.190442
N26   N     N_1   0.649805 0.803820 0.170156 -0.131993
C155  C     C_1   0.206177 0.684236 0.807391 0.192437
N27   N     N_1   0.189206 0.656905 0.830514 -0.211054
C156  C     C_1   0.793823 0.315764 0.192609 0.192437
N28   N     N_1   0.810794 0.343095 0.169486 -0.211054
C157  C     C_1   0.679218 0.788927 0.806927 0.190442
N29   N     N_1   0.649805 0.803820 0.829844 -0.131993
C158  C     C_1   0.320782 0.211073 0.193073 0.190443
N30   N     N_1   0.350195 0.196180 0.170156 -0.131993
C159  C     C_1   0.793823 0.315764 0.807391 0.192437
N31   N     N_1   0.810794 0.343095 0.830514 -0.211054
C160  C     C_1   0.206177 0.684236 0.192609 0.192437
N32   N     N_1   0.189206 0.656905 0.169486 -0.211053
C161  C     C_1   0.815764 0.293823 0.692609 0.192438
N33   N     N_1   0.843095 0.310794 0.669485 -0.211052
C162  C     C_1   0.184236 0.706177 0.307391 0.192437
N34   N     N_1   0.156905 0.689206 0.330514 -0.211053
C163  C     C_1   0.711073 0.820782 0.693073 0.190443
N35   N     N_1   0.696180 0.850195 0.670156 -0.131994
C164  C     C_1   0.288927 0.179218 0.306927 0.190443
N36   N     N_1   0.303820 0.149805 0.329844 -0.131993
C165  C     C_1   0.184236 0.706177 0.692609 0.192437
N37   N     N_1   0.156905 0.689206 0.669485 -0.211053
C166  C     C_1   0.815764 0.293823 0.307391 0.192437
N38   N     N_1   0.843095 0.310794 0.330514 -0.211053
C167  C     C_1   0.288927 0.179218 0.693073 0.190443
N39   N     N_1   0.303820 0.149805 0.670156 -0.131994
C168  C     C_1   0.711073 0.820782 0.306927 0.190443
N40   N     N_1   0.696180 0.850195 0.329844 -0.131993
C169  C     C_1   0.820782 0.711073 0.306927 0.190443
N41   N     N_1   0.850195 0.696180 0.329844 -0.131993
C170  C     C_1   0.179218 0.288927 0.693073 0.190442
N42   N     N_1   0.149805 0.303820 0.670156 -0.131994
C171  C     C_1   0.706177 0.184236 0.307391 0.192437
N43   N     N_1   0.689206 0.156905 0.330514 -0.211053
C172  C     C_1   0.293823 0.815764 0.692609 0.192437
N44   N     N_1   0.310794 0.843095 0.669485 -0.211053
C173  C     C_1   0.179218 0.288927 0.306927 0.190443
N45   N     N_1   0.149805 0.303820 0.329844 -0.131993
C174  C     C_1   0.820782 0.711073 0.693073 0.190443
N46   N     N_1   0.850195 0.696180 0.670156 -0.131994
C175  C     C_1   0.293823 0.815764 0.307391 0.192437
N47   N     N_1   0.310794 0.843095 0.330514 -0.211053
C176  C     C_1   0.706177 0.184236 0.692609 0.192437
N48   N     N_1   0.689206 0.156905 0.669485 -0.211053

loop_
_geom_bond_atom_site_label_1
_geom_bond_atom_site_label_2
_ccdc_geom_bond_type
C60   O24   A    
C4    C36   A    
C169  N41   T    
O1    Zn5   S    
C141  H55   S    
C7    O59   S    
C78   C115  A    
N4    N7    A    
C134  H33   S    
C159  N31   T    
C157  N29   T    
O22   Zn11  S    
O18   Zn3   S    
C90   C162  S    
C133  H30   S    
O1    Zn12  S    
O56   C132  S    
C71   C113  S    
O62   C138  S    
C26   C126  A    
C36   C53   S    
C65   O39   A    
C138  H44   S    
C89   C106  A    
C3    C19   A    
C63   C105  S    
C93   C110  A    
C2    C34   A    
C133  H31   S    
C15   O67   S    
C132  H26   S    
C64   O50   A    
O39   Zn6   S    
C20   H4    S    
C91   C108  A    
C21   H5    S    
C22   C122  A    
C70   O44   A    
C94   C166  S    
C152  N24   T    
C99   C116  A    
C67   O37   A    
O25   Zn16  S    
C69   C119  S    
O5    Zn16  S    
C54   O18   A    
C12   C40   A    
C73   C88   A    
O53   C129  S    
O30   Zn12  S    
C14   C38   A    
O12   Zn13  S    
C75   C86   A    
C168  N40   T    
C11   C27   A    
C16   O68   S    
C69   O33   A    
C172  N44   T    
C129  H18   S    
C93   C100  A    
C15   C39   A    
C12   O64   S    
C103  C175  S    
C65   O29   A    
C137  H42   S    
C18   H2    S    
C42   N13   A    
C43   N12   A    
C143  H59   S    
O64   C140  S    
C90   C105  A    
C53   O17   A    
C72   O36   A    
C64   C106  S    
O27   Zn10  S    
C94   C109  A    
C83   C155  S    
C10   C38   A    
C82   C111  A    
C54   O14   A    
C140  H51   S    
C173  N45   T    
C76   C148  S    
C84   C156  S    
C59   C109  S    
C31   H15   S    
C32   H16   S    
C41   N14   A    
C4    C20   A    
C5    C21   A    
C47   N8    A    
C151  N23   T    
C48   N7    A    
C170  N42   T    
C44   N15   A    
C62   O52   A    
O16   Zn1   S    
C76   C85   A    
C66   O40   A    
O3    Zn7   S    
C165  N37   T    
C29   C125  A    
C104  C176  S    
C51   O7    A    
C166  N38   T    
C79   C151  S    
C31   C127  A    
O8    Zn9   S    
C52   O12   A    
C47   C124  S    
C53   O13   A    
C142  H57   S    
C19   C123  A    
O57   C133  S    
C56   O16   A    
C101  C118  A    
C45   N6    A    
C40   C49   S    
N9    N14   A    
C100  C172  S    
C74   C146  S    
C68   C118  S    
O26   Zn15  S    
C70   C120  S    
O6    Zn15  S    
C144  H63   S    
C5    C33   A    
O11   Zn14  S    
O4    Zn13  S    
C58   O48   A    
C74   C87   A    
O31   Zn9   S    
N1    N6    A    
C143  H61   S    
C62   O26   A    
C104  C119  A    
O28   Zn9   S    
C24   H8    S    
C158  N30   T    
C65   C115  S    
O20   Zn5   S    
C129  H17   S    
C27   C127  A    
O4    Zn9   S    
C131  H24   S    
C81   C153  S    
C96   C111  A    
O35   Zn13  S    
O49   Zn7   S    
O15   Zn2   S    
C138  H46   S    
C139  H47   S    
O33   Zn15  S    
C37   C52   S    
C23   C123  A    
C38   C51   S    
C77   C84   A    
C27   H11   S    
C78   C150  S    
C150  N22   T    
C86   C158  S    
C25   H9    S    
O7    Zn10  S    
C91   C163  S    
C87   C159  S    
C71   O35   A    
C81   C112  A    
C3    C35   A    
C130  H20   S    
C29   H13   S    
C61   O25   A    
O65   C141  S    
C83   C110  A    
C75   C147  S    
O2    Zn11  S    
C59   O23   A    
C136  H39   S    
C64   O28   A    
O37   Zn4   S    
C63   O27   A    
C130  H22   S    
C132  H28   S    
C8    O60   S    
C72   O42   A    
O2    Zn2   S    
C9    O61   S    
C55   O19   A    
C135  H35   S    
C79   C82   A    
C15   C31   A    
C16   C32   A    
C1    C17   A    
C84   C109  A    
C32   C128  A    
O32   Zn10  S    
C89   C104  A    
C88   C105  A    
C60   O46   A    
C102  C174  S    
C7    C23   A    
C66   O30   A    
C131  H23   S    
C8    C24   A    
C99   C171  S    
C20   C124  A    
C148  N20   T    
C46   N5    A    
C80   C113  A    
C89   C161  S    
C80   C152  S    
C97   C114  A    
C4    O56   S    
O59   C135  S    
C61   C111  S    
O2    Zn6   S    
C44   C127  S    
O55   C131  S    
C139  H49   S    
C146  N18   T    
C48   C123  S    
C167  N39   T    
C9    C25   A    
O4    Zn4   S    
C100  C115  A    
C66   C116  S    
C12   C28   A    
C13   C29   A    
C63   O49   A    
C175  N47   T    
C95   C112  A    
C56   O20   A    
O66   C142  S    
O9    Zn12  S    
C2    C18   A    
C176  N48   T    
C6    C22   A    
C48   N3    A    
C72   C114  S    
C141  H53   S    
C8    C36   A    
O34   Zn16  S    
O13   Zn8   S    
C25   C125  A    
C93   C165  S    
O3    Zn3   S    
C78   C83   A    
C2    O54   S    
C86   C107  A    
C50   O6    A    
O63   C139  S    
C95   C167  S    
C85   C108  A    
C73   C145  S    
O1    Zn16  S    
C59   O45   A    
C33   C56   S    
C134  H34   S    
C34   C55   S    
C73   C120  A    
O61   C137  S    
C35   C54   S    
O40   Zn5   S    
C137  H43   S    
C75   C118  A    
O24   Zn13  S    
C10   O62   S    
C135  H37   S    
O38   Zn3   S    
C11   O63   S    
C143  H60   S    
O51   Zn5   S    
C5    O57   S    
N10   N13   A    
C164  N36   T    
C98   C113  A    
C133  H29   S    
C145  N17   T    
C131  H25   S    
C97   C169  S    
C6    C34   A    
C88   C160  S    
O67   C143  S    
C49   O5    A    
C140  H50   S    
N2    N5    A    
C160  N32   T    
C70   O34   A    
C77   C149  S    
C50   O10   A    
C67   C117  S    
C92   C101  A    
C17   C121  A    
C132  H27   S    
O54   C130  S    
C96   C168  S    
C142  H56   S    
O3    Zn10  S    
O48   Zn2   S    
C41   C126  S    
O41   Zn8   S    
C26   H10   S    
C43   C128  S    
C45   C122  S    
C76   C117  A    
C30   H14   S    
C23   H7    S    
C58   O22   A    
C154  N26   T    
C49   O9    A    
C147  N19   T    
C103  C120  A    
C58   C108  S    
C153  N25   T    
C90   C103  A    
C60   C110  S    
C85   C157  S    
O10   Zn11  S    
C62   C112  S    
O45   Zn3   S    
C144  H62   S    
C137  H41   S    
O14   Zn7   S    
C28   C128  A    
C3    O55   S    
C162  N34   T    
C30   C126  A    
C13   O65   S    
C14   O66   S    
C155  N27   T    
O43   Zn2   S    
C174  N46   T    
C28   H12   S    
C24   C124  A    
C156  N28   T    
C57   O21   A    
O2    Zn15  S    
C95   C98   A    
C1    C33   A    
C161  N33   T    
C74   C119  A    
O58   C134  S    
C22   H6    S    
C138  H45   S    
C139  H48   S    
C140  H52   S    
C67   O31   A    
C46   N1    A    
C68   O32   A    
O47   Zn1   S    
O50   Zn8   S    
C6    O58   S    
C129  H19   S    
C68   O38   A    
C61   O51   A    
C42   C125  S    
C46   C121  S    
C77   C116  A    
C136  H38   S    
C13   C37   A    
C10   C26   A    
O21   Zn12  S    
C130  H21   S    
O17   Zn4   S    
C14   C30   A    
O23   Zn14  S    
C142  H58   S    
C19   H3    S    
O36   Zn14  S    
C17   H1    S    
C45   N2    A    
C42   N9    A    
C135  H36   S    
C43   N16   A    
O60   C136  S    
O44   Zn1   S    
O42   Zn7   S    
C92   C107  A    
C144  H64   S    
C96   C97   A    
C9    C37   A    
C82   C154  S    
C11   C39   A    
C55   O15   A    
C102  C117  A    
O68   C144  S    
C57   C107  S    
C18   C122  A    
C69   O43   A    
O19   Zn6   S    
C91   C102  A    
C101  C173  S    
C134  H32   S    
O3    Zn14  S    
C16   C40   A    
C41   N10   A    
O46   Zn4   S    
C71   O41   A    
O1    Zn1   S    
C47   N4    A    
N11   N16   A    
C44   N11   A    
C7    C35   A    
N12   N15   A    
C80   C81   A    
C92   C164  S    
O29   Zn11  S    
C171  N43   T    
C57   O47   A    
C51   O11   A    
N3    N8    A    
C52   O8    A    
O4    Zn8   S    
C87   C106  A    
O52   Zn6   S    
C94   C99   A    
C141  H54   S    
C21   C121  A    
C149  N21   T    
C136  H40   S    
C1    O53   S    
C39   C50   S    
C79   C114  A    
C163  N35   T    
C98   C170  S    
