data_mof_unit_68214.cif
_audit_creation_date              2012-12-11T17:07:27-0500
_audit_creation_method            fapswitch 2.2
_symmetry_space_group_name_H-M    P1
_symmetry_Int_Tables_number       1
_space_group_crystal_system       triclinic
_cell_length_a                    6.950058
_cell_length_b                    14.69576
_cell_length_c                    15.994793
_cell_angle_alpha                 90.110693
_cell_angle_beta                  89.831537
_cell_angle_gamma                 89.567317
_cell_volume                      1633.59356258

loop_
_atom_site_label
_atom_site_type_symbol
_atom_type_description
_atom_site_fract_x
_atom_site_fract_y
_atom_site_fract_z
_atom_type_partial_charge
O1    O     O_R   0.505720 0.583900 0.413310 -0.548101
O2    O     O_R   0.175940 0.594920 0.586080 -0.574261
O3    O     O_R   0.005640 0.416100 0.586690 -0.518414
C1    C     C_R   0.343605 0.614262 0.616931 0.700093
O4    O     O_R   0.176000 0.594930 0.413930 -0.550124
O5    O     O_R   0.005700 0.416110 0.413310 -0.486430
C2    C     C_R   0.345527 0.619738 0.387441 0.707160
O6    O     O_R   0.505660 0.583890 0.586690 -0.507668
O7    O     O_3   0.339200 0.441330 0.500000 -0.352660
V1    V     V_3+5 0.064350 0.510880 0.500000 1.470652
O8    O     O_R   0.675980 0.405080 0.413920 -0.533326
C3    C     C_R   0.845457 0.382658 0.385588 0.795293
O9    O     O_R   0.675920 0.405070 0.586070 -0.565226
C4    C     C_R   0.845566 0.384094 0.615553 0.753541
V2    V     V_3+5 0.564340 0.489120 0.500000 1.474609
O10   O     O_3   0.839360 0.558670 0.500000 -0.396645
C5    C     C_R   0.729720 0.427141 0.789286 -0.263015
C6    C     C_R   0.685503 0.451471 0.872380 0.466917
C7    C     C_R   0.743575 0.391960 0.937934 0.203184
C8    C     C_R   0.843623 0.311218 0.917664 0.283539
C9    C     C_R   0.845949 0.278801 0.834473 -0.070711
C10   C     C_R   0.810377 0.341377 0.768742 -0.076059
C11   C     C_R   0.876173 0.185357 0.815907 -0.080048
C12   C     C_R   0.885331 0.158553 0.730782 -0.084504
C13   C     C_R   0.915550 0.224920 0.668271 -0.120633
C14   C     C_R   0.859817 0.316623 0.685021 -0.074935
C15   C     C_R   0.857000 0.067985 0.705325 0.145311
C16   C     C_R   0.914944 0.039355 0.624977 0.354521
C17   C     C_R   0.986857 0.102537 0.567886 0.206395
C18   C     C_R   0.993384 0.195465 0.590376 0.244085
H1    H     H_    0.691801 0.474852 0.740486 0.185141
C19   C     C_R   0.753322 0.173565 0.251083 -0.043933
C20   C     C_R   0.882409 0.183001 0.184736 -0.129379
C21   C     C_R   0.014853 0.254997 0.190165 -0.229780
H2    H     H_    0.125189 0.262474 0.143250 0.145056
C22   C     C_R   0.998003 0.322547 0.253093 0.518214
C23   C     C_R   0.859761 0.313803 0.317874 -0.216895
C24   C     C_R   0.746744 0.234962 0.317598 -0.093906
C25   C     C_3   0.533294 0.219920 0.326969 0.823053
C26   C     C_3   0.543479 0.152864 0.252883 -0.481355
H3    H     H_    0.468635 0.177434 0.195748 0.154592
H4    H     H_    0.515861 0.080345 0.267146 0.158162
C27   C     C_R   0.482262 0.749232 0.688078 -0.054705
C28   C     C_R   0.350055 0.678071 0.689195 -0.235573
C29   C     C_R   0.243667 0.663800 0.764658 0.354001
C30   C     C_R   0.260838 0.724604 0.833527 0.456067
C31   C     C_R   0.381262 0.802752 0.826769 -0.264462
C32   C     C_R   0.501354 0.808445 0.756487 -0.112652
C33   C     C_3   0.716817 0.793777 0.755030 0.204215
C34   C     C_3   0.694521 0.739905 0.675391 0.179609
H5    H     H_    0.806855 0.854004 0.746254 0.145396
H6    H     H_    0.743625 0.775342 0.618034 0.058535
C35   C     C_R   0.519777 0.697395 0.269934 0.012982
C36   C     C_R   0.358075 0.691129 0.321639 -0.164933
C37   C     C_R   0.210614 0.755139 0.309028 -0.168612
H7    H     H_    0.093784 0.758862 0.353040 0.158443
C38   C     C_R   0.223200 0.821891 0.246109 0.364029
C39   C     C_R   0.376940 0.818844 0.186671 -0.169680
C40   C     C_R   0.522276 0.753161 0.198793 -0.044372
C41   C     C_3   0.729824 0.773903 0.209965 -0.326993
C42   C     C_3   0.717897 0.727780 0.294158 0.350896
H8    H     H_    0.757530 0.848183 0.213197 0.234081
H9    H     H_    0.821554 0.736559 0.164039 0.102740
H10   H     H_    0.825124 0.671748 0.302057 0.030292
O11   O     O_R   0.229140 0.916090 0.913340 -0.557903
O12   O     O_R   0.558860 0.905090 0.086080 -0.542154
O13   O     O_R   0.729100 0.083920 0.086690 -0.542377
C43   C     C_R   0.390008 0.884989 0.116454 0.661971
O14   O     O_R   0.558860 0.905090 0.913930 -0.511980
O15   O     O_R   0.729100 0.083920 0.913310 -0.521570
C44   C     C_R   0.389940 0.876697 0.890891 0.756617
O16   O     O_R   0.229140 0.916080 0.086720 -0.548514
O17   O     O_3   0.395570 0.058660 0.000020 -0.378418
V3    V     V_3+5 0.670450 0.989140 0.000000 1.465782
O18   O     O_R   0.058810 0.094980 0.913910 -0.541016
C45   C     C_R   0.889370 0.115925 0.884278 0.881585
O19   O     O_R   0.058810 0.094980 0.086060 -0.545554
C46   C     C_R   0.889749 0.116656 0.114979 0.799435
V4    V     V_3+5 0.170450 0.010950 0.999970 1.414289
O20   O     O_3   0.895460 0.941370 0.999990 -0.386799
O21   O     O_3   0.052398 0.071078 0.491362 -0.623345
H11   H     H_    0.083512 0.123381 0.454912 0.346243
O22   O     O_3   0.115828 0.397863 0.250193 -0.534637
C47   C     C_3   0.032863 0.462624 0.195993 -0.272137
H12   H     H_    0.122309 0.524841 0.197065 0.161409
H13   H     H_    0.885223 0.482559 0.216662 0.114288
H14   H     H_    0.030470 0.437110 0.130493 0.161214
O23   O     O_3   0.425065 0.298611 0.308791 -0.600409
H15   H     H_    0.473164 0.325161 0.255646 0.273894
O24   O     O_3   0.475989 0.184254 0.406043 -0.547548
C48   C     C_3   0.561776 0.099914 0.427972 -0.238019
H16   H     H_    0.713557 0.092486 0.407286 0.171652
H17   H     H_    0.474212 0.042896 0.403630 0.175545
H18   H     H_    0.561672 0.094183 0.497081 0.154717
O25   O     O_3   0.135795 0.586373 0.778029 -0.604379
H19   H     H_    0.161837 0.540982 0.733687 0.281533
O26   O     O_3   0.212692 0.688238 0.910982 -0.546868
C49   C     C_3   0.081200 0.742176 0.956431 -0.123181
H20   H     H_    0.007285 0.795191 0.919221 0.188328
H21   H     H_    0.156577 0.773146 0.009952 0.119901
H22   H     H_    0.968981 0.697573 0.982888 0.131207
O27   O     O_3   0.781965 0.741222 0.822687 -0.640850
H23   H     H_    0.701670 0.686111 0.827213 0.360734
O28   O     O_3   0.762886 0.650404 0.682519 -0.610145
H24   H     H_    0.900223 0.653153 0.666840 0.313048
O29   O     O_3   0.091789 0.892525 0.249644 -0.639442
H25   H     H_    0.155029 0.948711 0.229947 0.286537
O30   O     O_3   0.713577 0.797148 0.356130 -0.537384
C50   C     C_3   0.745054 0.762473 0.436800 -0.161903
H26   H     H_    0.795953 0.819140 0.476615 0.179970
H27   H     H_    0.858032 0.709094 0.438618 0.125469
H28   H     H_    0.608493 0.738134 0.464347 0.130588
O31   O     O_3   0.575595 0.530720 0.883242 -0.546288
C51   C     C_3   0.609139 0.576317 0.959602 -0.083701
H29   H     H_    0.762906 0.573645 0.978547 0.134974
H30   H     H_    0.570544 0.649127 0.952554 0.140355
H31   H     H_    0.512547 0.549728 0.009116 0.179143
O32   O     O_3   0.700549 0.412155 0.020407 -0.675005
H32   H     H_    0.731236 0.359353 0.056558 0.311314
O33   O     O_3   0.948604 0.267278 0.978938 -0.580861
C52   C     C_3   0.142823 0.294154 0.970628 -0.220886
H33   H     H_    0.160972 0.365662 0.991917 0.153419
H34   H     H_    0.198292 0.286156 0.905554 0.137795
H35   H     H_    0.234300 0.249735 0.010113 0.159005
O34   O     O_3   0.749267 0.012033 0.755173 -0.648413
H36   H     H_    0.655468 0.981635 0.717988 0.289398
O35   O     O_3   0.902856 0.948681 0.602670 -0.551962
C53   C     C_3   0.080931 0.906234 0.620766 -0.235328
H37   H     H_    0.115128 0.910384 0.688638 0.125589
H38   H     H_    0.200142 0.935844 0.583307 0.177188
H39   H     H_    0.072094 0.833137 0.603952 0.129105
O36   O     O_3   0.107363 0.252529 0.543423 -0.543257
C54   C     C_3   0.293286 0.251794 0.579434 -0.034652
H40   H     H_    0.396769 0.281115 0.534582 0.201352
H41   H     H_    0.346758 0.181755 0.593459 0.080445
H42   H     H_    0.295527 0.293921 0.637257 0.101034

loop_
_geom_bond_atom_site_label_1
_geom_bond_atom_site_label_2
_ccdc_geom_bond_type
O12   C43   A    
C37   H7    S    
C34   O28   S    
O11   V4    S    
C37   C38   A    
O17   V3    S    
O25   H19   S    
C12   C15   A    
C11   C45   S    
C1    O6    A    
C53   H37   S    
O26   C49   S    
C35   C40   A    
O19   C46   A    
O33   C52   S    
C17   C18   A    
C41   H9    S    
C33   O27   S    
C16   C17   A    
C47   H13   S    
C21   H2    S    
O16   V4    S    
C50   H27   S    
O5    C3    A    
C24   C25   S    
C20   C46   S    
O29   H25   S    
C22   O22   S    
V2    O10   S    
O12   V3    S    
O30   C50   S    
C41   H8    S    
C6    C7    A    
C3    C23   S    
O14   C44   A    
C42   O30   S    
O32   H32   S    
C52   H35   S    
C36   C37   A    
O8    V2    S    
C7    C8    A    
C7    O32   S    
O36   C54   S    
C33   H5    S    
C5    C6    A    
O15   V3    S    
C54   H42   S    
C34   H6    S    
C11   C12   A    
C47   H14   S    
O1    V2    S    
C19   C24   A    
C27   C32   A    
C25   O24   S    
C16   O35   S    
C26   H4    S    
C38   O29   S    
C40   C41   S    
V3    O20   S    
O9    C4    A    
O13   C46   A    
C35   C42   S    
C25   O23   S    
C6    O31   S    
O28   H24   S    
O21   H11   S    
O19   V4    S    
C31   C32   A    
C12   C13   A    
C50   H28   S    
C48   H16   S    
O4    C2    A    
C1    C28   S    
C39   C40   A    
O11   C44   A    
C4    C14   S    
C41   C42   S    
C42   H10   S    
O2    C1    A    
O18   C45   A    
C17   O21   S    
C23   C24   A    
C48   H17   S    
O22   C47   S    
C43   O16   A    
C8    C9    A    
C20   C21   A    
O17   V4    S    
O14   V3    S    
O13   V3    S    
C47   H12   S    
C31   C44   S    
C52   H33   S    
O3    C4    A    
C39   C43   S    
C26   H3    S    
C30   O26   S    
C49   H20   S    
O6    V2    S    
C49   H21   S    
C9    C11   A    
C27   C28   A    
O15   C45   A    
O34   H36   S    
C5    H1    S    
O24   C48   S    
O35   C53   S    
C29   O25   S    
C53   H39   S    
C8    O33   S    
C28   C29   A    
O31   C51   S    
O7    V1    S    
C13   C18   A    
C30   C31   A    
C32   C33   S    
O1    C2    A    
C53   H38   S    
O5    V1    S    
C51   H30   S    
O8    C3    A    
C27   C34   S    
C35   C36   A    
C49   H22   S    
C5    C10   A    
C19   C20   A    
O9    V2    S    
C13   C14   A    
O4    V1    S    
O3    V1    S    
V1    O10   S    
C50   H26   S    
C48   H18   S    
C15   O34   S    
C38   C39   A    
C54   H40   S    
C18   O36   S    
C21   C22   A    
C51   H29   S    
C19   C26   S    
O7    V2    S    
O27   H23   S    
C52   H34   S    
C51   H31   S    
V4    O20   S    
C25   C26   S    
C29   C30   A    
O23   H15   S    
C22   C23   A    
C33   C34   S    
C10   C14   A    
C15   C16   A    
C54   H41   S    
C2    C36   S    
C9    C10   A    
O18   V4    S    
O2    V1    S    
