data_mof_unit_39060.cif
_audit_creation_date              2012-12-11T16:25:27-0500
_audit_creation_method            fapswitch 2.2
_symmetry_space_group_name_H-M    P1
_symmetry_Int_Tables_number       1
_space_group_crystal_system       triclinic
_cell_length_a                    20.287158
_cell_length_b                    7.30313
_cell_length_c                    13.248516
_cell_angle_alpha                 89.999923
_cell_angle_beta                  103.404052
_cell_angle_gamma                 90.001017
_cell_volume                      1909.42652904

loop_
_atom_site_label
_atom_site_type_symbol
_atom_type_description
_atom_site_fract_x
_atom_site_fract_y
_atom_site_fract_z
_atom_type_partial_charge
O1    O     O_R   0.449520 0.506760 0.599710 -0.544887
O2    O     O_R   0.550480 0.006760 0.400290 -0.544875
O3    O     O_R   0.587930 0.180200 0.595790 -0.537029
O4    O     O_R   0.412070 0.680200 0.404210 -0.537035
C1    C     C_R   0.616397 0.343920 0.610208 0.682646
C2    C     C_R   0.383603 0.843917 0.389791 0.682626
O5    O     O_R   0.452350 0.177380 0.611700 -0.543647
O6    O     O_R   0.547650 0.677380 0.388300 -0.543658
O7    O     O_R   0.413930 0.001760 0.416320 -0.535413
O8    O     O_R   0.586070 0.501760 0.583680 -0.535410
C3    C     C_R   0.436049 0.345427 0.637599 0.680924
C4    C     C_R   0.563948 0.845428 0.362399 0.680895
O9    O     O_3   0.487550 0.337460 0.435880 -0.377144
O10   O     O_3   0.512450 0.837460 0.564120 -0.377177
V1    V     V_3+5 0.502310 0.064670 0.511900 1.373207
V2    V     V_3+5 0.497690 0.564670 0.488100 1.373198
C5    C     C_R   0.610401 0.885378 0.105131 -0.163434
C6    C     C_R   0.389593 0.385420 0.894860 -0.163500
H1    H     H_    0.517417 0.885402 0.155417 0.099734
H2    H     H_    0.482575 0.385486 0.844569 0.099746
H3    H     H_    0.693255 0.905352 0.977716 0.139054
H4    H     H_    0.306743 0.405336 0.022285 0.139049
H5    H     H_    0.584582 0.902242 0.024349 0.114033
H6    H     H_    0.415412 0.402303 0.975640 0.114050
C7    C     C_R   0.603939 0.853568 0.283903 -0.027972
C8    C     C_R   0.396057 0.353571 0.716092 -0.027908
C9    C     C_R   0.930494 0.847703 0.320639 -0.183085
C10   C     C_R   0.069499 0.347810 0.679346 -0.183085
C11   C     C_R   0.895059 0.836833 0.398377 -0.134792
C12   C     C_R   0.104932 0.337006 0.601600 -0.134808
C13   C     C_R   0.824525 0.838810 0.373644 -0.157877
C14   C     C_R   0.175466 0.338960 0.626333 -0.157818
C15   C     C_R   0.787327 0.851290 0.269166 0.048917
C16   C     C_R   0.212667 0.351338 0.730822 0.048935
C17   C     C_R   0.824177 0.864760 0.189906 0.046660
C18   C     C_R   0.175819 0.364767 0.810089 0.046640
C19   C     C_R   0.714963 0.854255 0.240902 0.037586
C20   C     C_R   0.285032 0.354268 0.759090 0.037565
C21   C     C_R   0.681355 0.875845 0.134723 0.138666
C22   C     C_R   0.318640 0.375861 0.865270 0.138677
C23   C     C_R   0.718629 0.889418 0.058773 -0.187532
C24   C     C_R   0.281368 0.389410 0.941226 -0.187509
C25   C     C_R   0.788852 0.882740 0.085649 -0.207758
C26   C     C_R   0.211146 0.382715 0.914353 -0.207770
C27   C     C_R   0.674512 0.840019 0.314419 -0.233828
C28   C     C_R   0.325484 0.339989 0.685578 -0.233889
C29   C     C_R   0.572010 0.875699 0.179426 -0.196946
C30   C     C_R   0.427984 0.375751 0.820563 -0.196957
C31   C     C_R   0.895949 0.861007 0.216762 -0.074333
C32   C     C_R   0.104047 0.361026 0.783232 -0.074291
H7    H     H_    0.696012 0.821012 0.396053 0.103529
H8    H     H_    0.303986 0.320902 0.603953 0.103547
H9    H     H_    0.985178 0.847555 0.341567 0.097105
H10   H     H_    0.014813 0.347707 0.658413 0.097117
H11   H     H_    0.800871 0.831405 0.438322 0.119562
H12   H     H_    0.199117 0.331667 0.561641 0.119555
H13   H     H_    0.922531 0.827653 0.478692 0.115259
H14   H     H_    0.077456 0.327915 0.521273 0.115255
H15   H     H_    0.815292 0.893627 0.023695 0.133579
H16   H     H_    0.184707 0.393577 0.976312 0.133582
H17   H     H_    0.084021 0.730852 0.450926 0.112144
H18   H     H_    0.915966 0.230453 0.549096 0.112151
C33   C     C_R   0.234739 0.905196 0.041092 -0.141718
C34   C     C_R   0.765263 0.405273 0.958906 -0.141700
C35   C     C_R   0.291939 0.923891 0.000911 -0.099254
C36   C     C_R   0.708063 0.424001 0.999086 -0.099259
C37   C     C_R   0.355925 0.919495 0.066861 -0.141768
C38   C     C_R   0.644076 0.419610 0.933137 -0.141776
C39   C     C_R   0.363039 0.896072 0.173319 -0.139315
C40   C     C_R   0.636962 0.396158 0.826680 -0.139306
C41   C     C_R   0.305684 0.876081 0.217050 0.076185
C42   C     C_R   0.694317 0.376129 0.782949 0.076175
C43   C     C_R   0.240545 0.880453 0.148979 0.055489
C44   C     C_R   0.759456 0.380494 0.851021 0.055491
C45   C     C_R   0.312970 0.853136 0.326326 -0.166631
C46   C     C_R   0.687029 0.353147 0.673673 -0.166634
C47   C     C_R   0.253512 0.835026 0.369809 -0.000258
C48   C     C_R   0.746487 0.334977 0.630193 -0.000248
C49   C     C_R   0.189345 0.823548 0.296230 0.067034
C50   C     C_R   0.810653 0.323459 0.703775 0.067030
C51   C     C_R   0.182609 0.855286 0.188522 -0.159695
C52   C     C_R   0.817390 0.355273 0.811479 -0.159700
C53   C     C_R   0.253623 0.830115 0.481410 0.007263
C54   C     C_R   0.746379 0.330041 0.518593 0.007277
C55   C     C_R   0.189256 0.807855 0.510391 0.161749
C56   C     C_R   0.810747 0.307688 0.489621 0.161756
C57   C     C_R   0.131693 0.765908 0.433327 -0.166647
C58   C     C_R   0.868299 0.265628 0.566689 -0.166651
C59   C     C_R   0.131275 0.777345 0.330215 -0.196239
C60   C     C_R   0.868716 0.277124 0.669799 -0.196285
H19   H     H_    0.186010 0.908735 0.986405 0.105466
H20   H     H_    0.813993 0.408807 0.013594 0.105467
H21   H     H_    0.286541 0.941950 0.918241 0.123631
H22   H     H_    0.713462 0.442082 0.081755 0.123630
H23   H     H_    0.400326 0.934548 0.035359 0.110808
H24   H     H_    0.599675 0.434689 0.964639 0.110795
H25   H     H_    0.414189 0.894205 0.220537 0.095796
H26   H     H_    0.585811 0.394296 0.779462 0.095801
H27   H     H_    0.083199 0.751540 0.276658 0.113605
H28   H     H_    0.916788 0.251250 0.723359 0.113668
O11   O     O_R   0.913760 0.203480 0.916370 -0.533932
O12   O     O_R   0.086240 0.703480 0.083630 -0.533921
O13   O     O_R   0.047590 0.535230 0.888250 -0.539960
O14   O     O_R   0.952410 0.035230 0.111750 -0.539957
C61   C     C_R   0.064029 0.368604 0.862223 0.678479
C62   C     C_R   0.935968 0.868601 0.137774 0.678489
O15   O     O_R   0.912020 0.532880 0.904260 -0.533698
O16   O     O_R   0.087980 0.032880 0.095740 -0.533699
O17   O     O_R   0.949590 0.708460 0.099750 -0.538873
O18   O     O_R   0.050410 0.208460 0.900250 -0.538878
C63   C     C_R   0.885878 0.364675 0.883159 0.687091
C64   C     C_R   0.114123 0.864679 0.116839 0.687097
O19   O     O_3   0.012370 0.375360 0.064120 -0.378600
O20   O     O_3   0.987630 0.875360 0.935880 -0.378612
V3    V     V_3+5 0.997700 0.648160 0.988110 1.387404
V4    V     V_3+5 0.002300 0.148160 0.011890 1.387396
C65   C     C_3   0.321639 0.852373 0.563331 -0.361548
C66   C     C_3   0.328203 0.838185 0.681834 -0.367505
C67   C     C_3   0.401458 0.848175 0.745099 -0.696458
H29   H     H_    0.435182 0.756590 0.713897 0.249389
H30   H     H_    0.421059 0.989251 0.747171 0.236971
H31   H     H_    0.403441 0.806957 0.826480 0.201025
H32   H     H_    0.302318 0.952319 0.711103 0.201981
H33   H     H_    0.309137 0.704171 0.700313 0.214659
H34   H     H_    0.354116 0.739364 0.548508 0.201921
H35   H     H_    0.343196 0.986711 0.549411 0.196922
C68   C     C_3   0.678372 0.352394 0.436661 -0.361556
C69   C     C_3   0.671822 0.338189 0.318163 -0.367568
C70   C     C_3   0.598576 0.348160 0.254870 -0.696456
H36   H     H_    0.564872 0.256293 0.285947 0.249314
H37   H     H_    0.578923 0.489168 0.252945 0.237059
H38   H     H_    0.596632 0.307260 0.173449 0.201007
H39   H     H_    0.697711 0.452327 0.288905 0.201995
H40   H     H_    0.690890 0.204180 0.299695 0.214685
H41   H     H_    0.645861 0.239464 0.451470 0.201968
H42   H     H_    0.656846 0.486771 0.450571 0.196872
C71   C     C_3   0.178917 0.835270 0.620371 -0.367362
C72   C     C_3   0.105804 0.840392 0.635638 -0.355160
C73   C     C_3   0.105685 0.870916 0.749653 -0.687307
H43   H     H_    0.129793 0.753286 0.797177 0.225461
H44   H     H_    0.134370 0.996077 0.779524 0.226400
H45   H     H_    0.052774 0.885182 0.758227 0.225746
H46   H     H_    0.076816 0.952198 0.588317 0.200679
H47   H     H_    0.079628 0.708704 0.612391 0.206605
H48   H     H_    0.204106 0.723594 0.670664 0.188487
H49   H     H_    0.199733 0.971016 0.646788 0.188753
C74   C     C_3   0.821102 0.335129 0.379650 -0.367346
C75   C     C_3   0.894225 0.340274 0.364419 -0.355076
C76   C     C_3   0.894368 0.370912 0.250417 -0.687231
H50   H     H_    0.870245 0.253339 0.202847 0.225449
H51   H     H_    0.865705 0.496117 0.220570 0.226410
H52   H     H_    0.947287 0.385162 0.241874 0.225708
H53   H     H_    0.923219 0.452038 0.411787 0.200624
H54   H     H_    0.920390 0.208556 0.387638 0.206581
H55   H     H_    0.795918 0.223456 0.329341 0.188459
H56   H     H_    0.800289 0.470875 0.353231 0.188757

loop_
_geom_bond_atom_site_label_1
_geom_bond_atom_site_label_2
_ccdc_geom_bond_type
C36   C38   A    
C61   O18   A    
C33   C35   A    
C7    C27   A    
C9    C11   A    
O12   C64   A    
C74   C75   S    
O1    C3    A    
O16   V4    S    
C42   C46   A    
O2    C4    A    
C69   C70   S    
C2    O7    A    
O14   C62   A    
O20   V3    S    
C18   C32   A    
C2    C45   S    
C21   C23   A    
O5    C3    A    
C38   H24   S    
C75   H54   S    
C59   H27   S    
C27   H7    S    
C6    H6    S    
C71   H48   S    
C20   C22   A    
C46   C48   A    
O17   V3    S    
C72   H46   S    
C76   H51   S    
C73   H45   S    
C56   C58   A    
C67   H31   S    
C47   C53   A    
C28   H8    S    
C5    C21   A    
C60   H28   S    
C39   C41   A    
C6    C22   A    
C66   C67   S    
O12   V3    S    
H17   C57   S    
O14   V4    S    
C10   C32   A    
C35   C37   A    
C17   C31   A    
C32   C61   S    
C13   C15   A    
C12   C14   A    
C74   H55   S    
C65   H35   S    
C7    C29   A    
C16   C18   A    
C8    C30   A    
C36   H22   S    
O19   V4    S    
C54   C68   S    
C47   C49   A    
O6    V2    S    
C56   C74   S    
C37   H23   S    
C23   C25   A    
C24   C26   A    
C44   C52   A    
C11   C13   A    
C43   C51   A    
C67   H30   S    
C73   H43   S    
C49   C59   A    
C11   H13   S    
C55   C57   A    
C9    C31   A    
C71   H49   S    
C75   C76   S    
C42   C44   A    
C76   H52   S    
C49   C51   A    
C10   H10   S    
C66   H33   S    
O5    V1    S    
C33   C43   A    
C3    C8    S    
H18   C58   S    
C15   C19   A    
O16   C64   A    
C37   C39   A    
C14   C16   A    
O4    V2    S    
O13   V3    S    
C69   H39   S    
O2    V1    S    
C69   H40   S    
C51   C64   S    
O6    C4    A    
H1    C29   S    
O13   C61   A    
O1    V2    S    
C5    H5    S    
C68   H42   S    
C74   H56   S    
C45   C47   A    
O15   V3    S    
H2    C30   S    
H3    C23   S    
O4    C2    A    
C53   C55   A    
C58   C60   A    
C57   C59   A    
C18   C26   A    
C75   H53   S    
C34   H20   S    
C19   C27   A    
C68   C69   S    
O18   V4    S    
C17   C25   A    
C41   C43   A    
C70   H36   S    
C55   C71   S    
C16   C20   A    
O15   C63   A    
C5    C29   A    
C68   H41   S    
O3    C1    A    
C6    C30   A    
C40   C42   A    
C67   H29   S    
C9    H9    S    
C31   C62   S    
C25   H15   S    
O11   C63   A    
C71   C72   S    
C4    C7    S    
C52   C63   S    
C70   H38   S    
C1    C46   S    
C10   C12   A    
O7    V1    S    
C1    O8    A    
C19   C21   A    
C72   H47   S    
C76   H50   S    
C41   C45   A    
C73   H44   S    
C53   C65   S    
H4    C24   S    
C26   H16   S    
C12   H14   S    
C22   C24   A    
C35   H21   S    
C15   C17   A    
C50   C52   A    
C48   C50   A    
C66   H32   S    
C50   C60   A    
C20   C28   A    
C72   C73   S    
C8    C28   A    
C48   C54   A    
C38   C40   A    
O9    V2    S    
C33   H19   S    
O11   V4    S    
C34   C44   A    
O10   V1    S    
C54   C56   A    
O3    V1    S    
O8    V2    S    
C13   H11   S    
C65   C66   S    
C65   H34   S    
C14   H12   S    
C40   H26   S    
C34   C36   A    
C70   H37   S    
C62   O17   A    
C39   H25   S    
