data_mof_unit_32973.cif
_audit_creation_date              2013-03-05T15:40:35-0500
_audit_creation_method            fapswitch 2.2
_symmetry_space_group_name_H-M    P1
_symmetry_Int_Tables_number       1
_space_group_crystal_system       triclinic
_cell_length_a                    7.882548
_cell_length_b                    8.540971
_cell_length_c                    10.584195
_cell_angle_alpha                 91.146631
_cell_angle_beta                  86.652227
_cell_angle_gamma                 93.755728
_cell_volume                      709.739367013

loop_
_atom_site_label
_atom_site_type_symbol
_atom_site_description
_atom_site_fract_x
_atom_site_fract_y
_atom_site_fract_z
_atom_type_partial_charge
O1    O     O_R   0.389250 0.738570 0.508280 -0.663624
O2    O     O_R   0.610750 0.261430 0.491720 -0.616214
O3    O     O_R   0.678390 0.711630 0.486650 -0.585654
O4    O     O_R   0.321610 0.288370 0.513350 -0.645027
C1    C     C_R   0.545452 0.794200 0.497943 0.899499
C2    C     C_R   0.454686 0.205899 0.503679 0.983365
O5    O     O_R   0.355430 0.513480 0.694040 -0.634575
O6    O     O_R   0.644570 0.486520 0.305960 -0.600600
O7    O     O_R   0.644570 0.486540 0.672410 -0.647847
O8    O     O_R   0.355430 0.513460 0.327590 -0.612348
C3    C     C_R   0.508197 0.532165 0.735816 0.864120
C4    C     C_R   0.500566 0.508361 0.257992 0.864466
Zn1   Zn    Zn3+2 0.306940 0.517990 0.514440 0.920754
Zn2   Zn    Zn3+2 0.693060 0.482010 0.485560 0.970814
H1    H     H_    0.027764 0.547527 0.834847 0.159762
H2    H     H_    0.000925 0.774778 0.129172 0.184858
C5    C     C_R   0.263505 0.730670 0.882025 -0.220708
C6    C     C_R   0.832142 0.513253 0.093650 -0.164237
C7    C     C_R   0.103426 0.745163 0.945025 -0.165214
C8    C     C_R   0.987835 0.560719 0.029509 -0.177478
C9    C     C_R   0.082184 0.697891 0.072831 -0.077450
C10   C     C_R   0.982842 0.627351 0.909470 -0.139335
C11   C     C_R   0.237381 0.686638 0.134985 0.187652
C12   C     C_R   0.825654 0.669647 0.867408 0.152242
C13   C     C_R   0.371660 0.614099 0.066501 0.022060
C14   C     C_R   0.675745 0.597175 0.923323 0.075882
C15   C     C_R   0.381881 0.638999 0.935526 0.081139
C16   C     C_R   0.672555 0.548971 0.048791 0.047846
C17   C     C_R   0.511745 0.548164 0.122320 -0.216689
C18   C     C_R   0.523263 0.593979 0.864586 -0.209573
H3    H     H_    0.288081 0.779769 0.788495 0.152110
H4    H     H_    0.841388 0.425440 0.164222 0.213175
H5    H     H_    0.067813 0.864132 0.932565 0.167123
H6    H     H_    0.064930 0.459035 0.029558 0.160416
C19   C     C_2   0.569068 0.958230 0.497867 -0.337322
C20   C     C_2   0.431340 0.041964 0.506079 -0.405846
H7    H     H_    0.699229 0.009382 0.490644 0.207939
H8    H     H_    0.301264 0.990887 0.513339 0.181867
N1    N     N_2   0.950330 0.457950 0.466250 -0.124232
N2    N     N_2   0.049670 0.542050 0.533750 -0.214146
C21   C     C_3   0.292977 0.825949 0.218733 -0.359940
C22   C     C_3   0.359237 0.969548 0.142266 -0.879273
H9    H     H_    0.473093 0.942115 0.081438 0.266503
H10   H     H_    0.259383 0.009298 0.082876 0.261408
H11   H     H_    0.396551 0.067267 0.207892 0.261153
H12   H     H_    0.186624 0.862289 0.282121 0.262109
H13   H     H_    0.396458 0.796383 0.277551 0.223108
C23   C     C_3   0.815268 0.812660 0.784885 -0.435057
C24   C     C_3   0.727203 0.945997 0.854977 -0.887508
H14   H     H_    0.588412 0.917048 0.867992 0.261301
H15   H     H_    0.780886 0.969613 0.948711 0.264746
H16   H     H_    0.746154 0.054445 0.798278 0.252172
H17   H     H_    0.943030 0.861496 0.752988 0.186865
H18   H     H_    0.746967 0.780102 0.699899 0.219537
C25   C     C_2   0.985969 0.298064 0.458562 0.686734
H19   H     H_    0.016991 0.237129 0.542393 -0.003403
O9    O     O_2   0.972108 0.225381 0.358931 -0.621235
C26   C     C_2   0.032293 0.705047 0.524505 0.639899
H20   H     H_    0.088480 0.782966 0.593927 -0.028617
O10   O     O_2   0.982082 0.760806 0.429506 -0.609475

loop_
_geom_bond_atom_site_label_1
_geom_bond_atom_site_label_2
_geom_bond_distance
_ccdc_geom_bond_type
O1    Zn1   1.953044 S    
C23   H18   1.096918 S    
O7    Zn2   1.992313 S    
H2    C9    1.091757 S    
C4    C17   1.478585 S    
C13   C15   1.403552 A    
C21   C22   1.529221 S    
C14   C16   1.396524 A    
C19   C20   1.336358 D    
C11   C21   1.525897 S    
O6    C4    1.296107 A    
C21   H12   1.099693 S    
C24   H16   1.110878 S    
C8    H6    1.092133 S    
C25   H19   1.085549 S    
C20   H8    1.086767 S    
C21   H13   1.099666 S    
O2    Zn2   1.953044 S    
C6    C16   1.423648 A    
C25   O9    1.219707 D    
C15   C18   1.378575 A    
O5    C3    1.305855 A    
O7    C3    1.310697 A    
C12   C14   1.402454 A    
O2    C2    1.289220 A    
O3    Zn2   1.971895 S    
C22   H10   1.109629 S    
O1    C1    1.289748 A    
O8    C4    1.326715 A    
C23   C24   1.529299 S    
C5    C7    1.403946 A    
C2    C20   1.400753 S    
C14   C18   1.383555 A    
C6    C8    1.407095 A    
C11   C13   1.417009 A    
C9    C11   1.431962 A    
C13   C17   1.434044 A    
C23   H17   1.101401 S    
C5    H3    1.084870 S    
C10   C12   1.411889 A    
Zn2   N1    2.049649 S    
C6    H4    1.077821 S    
C22   H9    1.108545 S    
C26   O10   1.218521 D    
C5    C15   1.406960 A    
C1    C19   1.401161 S    
O5    Zn1   1.962346 S    
C7    C10   1.399606 A    
N2    C26   1.413658 S    
C8    C9    1.428332 A    
O4    C2    1.299371 A    
C24   H14   1.106946 S    
C7    H5    1.084313 S    
C24   H15   1.110787 S    
N1    N2    1.269112 D    
C16   C17   1.447875 A    
Zn1   N2    2.049649 S    
O6    Zn2   1.962346 S    
C19   H7    1.087590 S    
C26   H20   1.076461 S    
C7    C9    1.416850 A    
C22   H11   1.110888 S    
H1    C10   1.091533 S    
N1    C25   1.411912 S    
O4    Zn1   1.971895 S    
C3    C18   1.460240 S    
C8    C10   1.406183 A    
O3    C1    1.299432 A    
O8    Zn1   1.992313 S    
C12   C23   1.525040 S    
