data_mof_unit_36032.cif
_audit_creation_date              2012-12-10T17:10:24-0500
_audit_creation_method            fapswitch 2.2
_symmetry_space_group_name_H-M    P1
_symmetry_Int_Tables_number       1
_space_group_crystal_system       triclinic
_cell_length_a                    10.885427
_cell_length_b                    13.002802
_cell_length_c                    11.717104
_cell_angle_alpha                 100.605875
_cell_angle_beta                  92.030659
_cell_angle_gamma                 93.057655
_cell_volume                      1626.06743157

loop_
_atom_site_label
_atom_site_type_symbol
_atom_type_description
_atom_site_fract_x
_atom_site_fract_y
_atom_site_fract_z
_atom_type_partial_charge
C1    C     C_R   0.507367 0.299835 0.477931 0.853001
C2    C     C_R   0.500215 0.700986 0.522302 0.831730
C3    C     C_R   0.498519 0.815052 0.536403 -0.077452
C4    C     C_R   0.520706 0.186937 0.466069 -0.141479
C5    C     C_R   0.571695 0.018130 0.357383 0.123786
C6    C     C_R   0.456061 0.985755 0.647149 0.117075
C7    C     C_R   0.565282 0.126764 0.365510 0.144779
C8    C     C_R   0.457148 0.876406 0.638133 0.096593
C9    C     C_R   0.490074 0.139801 0.560018 -0.288328
C10   C     C_R   0.536784 0.862105 0.444478 -0.322069
C11   C     C_R   0.494051 0.032158 0.553414 0.116100
C12   C     C_R   0.534460 0.970232 0.450993 0.046964
C13   C     C_R   0.396997 0.389337 0.018848 0.067912
C14   C     C_R   0.597970 0.616914 0.978384 0.000233
C15   C     C_R   0.406381 0.399030 0.140641 0.325371
C16   C     C_R   0.594865 0.600228 0.855446 0.392831
C17   C     C_R   0.536032 0.554250 0.158111 -0.014957
C18   C     C_R   0.456926 0.451251 0.842615 -0.008463
C19   C     C_R   0.532405 0.545323 0.034803 -0.071171
C20   C     C_R   0.461731 0.461409 0.965147 -0.005322
C21   C     C_R   0.262640 0.496935 0.501624 0.862154
C22   C     C_R   0.737539 0.495780 0.496695 0.807919
C23   C     C_R   0.117495 0.335026 0.597289 0.271271
C24   C     C_R   0.894245 0.569125 0.311577 0.284512
C25   C     C_R   0.052345 0.277571 0.668075 -0.186730
C26   C     C_R   0.955916 0.653381 0.273172 -0.227533
C27   C     C_R   0.927808 0.289658 0.682222 -0.190485
C28   C     C_R   0.069389 0.694731 0.324096 -0.169643
C29   C     C_R   0.866472 0.356061 0.622525 -0.155738
C30   C     C_R   0.127410 0.645346 0.404842 -0.137636
C31   C     C_R   0.931744 0.421647 0.558067 0.027212
C32   C     C_R   0.066233 0.560274 0.443618 0.015640
C33   C     C_R   0.061330 0.417635 0.554570 0.045782
C34   C     C_R   0.940668 0.537342 0.414275 0.043772
C35   C     C_R   0.870631 0.483036 0.487739 -0.194796
C36   C     C_R   0.128641 0.493500 0.504208 -0.184489
Cu1   Cu    Cu3+1 0.509250 0.507730 0.615930 0.966682
Cu2   Cu    Cu3+1 0.490750 0.492270 0.384070 0.952602
H1    H     H_    0.117144 0.758898 0.293496 0.148361
H2    H     H_    0.876473 0.240742 0.731623 0.150075
H3    H     H_    0.095588 0.216299 0.703265 0.139604
H4    H     H_    0.920532 0.682410 0.198562 0.127201
H5    H     H_    0.767475 0.350880 0.624454 0.166931
H6    H     H_    0.220447 0.673108 0.435416 0.138326
H7    H     H_    0.568503 0.813139 0.367565 0.161421
H8    H     H_    0.460626 0.187680 0.638669 0.198894
H9    H     H_    0.400418 0.388907 0.788223 0.169433
H10   H     H_    0.588842 0.618442 0.213152 0.137875
N1    N     N_R   0.523180 0.519350 0.790130 -0.209341
N2    N     N_R   0.476820 0.480650 0.209870 -0.188112
O1    O     O_R   0.506570 0.354460 0.582000 -0.610523
O2    O     O_R   0.493430 0.645540 0.418000 -0.610973
O3    O     O_R   0.490940 0.341410 0.386200 -0.564315
O4    O     O_R   0.509060 0.658590 0.613800 -0.526412
O5    O     O_R   0.327470 0.506520 0.597900 -0.568557
O6    O     O_R   0.672530 0.493480 0.402100 -0.541752
O7    O     O_R   0.311840 0.493460 0.402100 -0.596464
O8    O     O_R   0.688160 0.506540 0.597900 -0.575551
N3    N     N_3   0.323210 0.304077 0.949247 -0.620937
H11   H     H_    0.356657 0.233519 0.963960 0.235775
H12   H     H_    0.232632 0.307927 0.975873 0.236975
N4    N     N_3   0.665889 0.707930 0.042687 -0.628179
H13   H     H_    0.734540 0.684209 0.094574 0.202147
H14   H     H_    0.605552 0.751825 0.096313 0.218566
N5    N     N_2   0.225246 0.293028 0.547744 -0.433260
H15   H     H_    0.276862 0.258566 0.603960 0.249037
C37   C     C_3   0.198500 0.223438 0.436853 -0.708212
H16   H     H_    0.284622 0.196801 0.397185 0.228101
H17   H     H_    0.148977 0.264349 0.375473 0.227581
H18   H     H_    0.141123 0.153217 0.448844 0.228009
N6    N     N_2   0.806329 0.504526 0.232770 -0.400079
H19   H     H_    0.782124 0.535392 0.160939 0.231497
C38   C     C_3   0.832878 0.395241 0.199997 -0.628360
H20   H     H_    0.835965 0.356527 0.276762 0.231834
H21   H     H_    0.922194 0.388458 0.156924 0.208792
H22   H     H_    0.758892 0.353319 0.138380 0.220827
N7    N     N_3   0.412396 0.827071 0.729875 -0.574090
H23   H     H_    0.463777 0.857957 0.806700 0.213634
H24   H     H_    0.320236 0.843405 0.741547 0.210998
N8    N     N_3   0.608240 0.176466 0.273492 -0.582300
H25   H     H_    0.701453 0.162897 0.263888 0.228450
H26   H     H_    0.560045 0.141219 0.196219 0.226058
N9    N     N_3   0.614561 0.958337 0.252604 -0.619097
H27   H     H_    0.543795 0.903985 0.214821 0.210988
H28   H     H_    0.691084 0.918885 0.273316 0.219761
N10   N     N_3   0.414720 0.049969 0.750236 -0.627517
H29   H     H_    0.470258 0.040080 0.821538 0.217652
H30   H     H_    0.323781 0.026050 0.762662 0.216002
N11   N     N_3   0.667958 0.668247 0.798163 -0.510150
H31   H     H_    0.760299 0.664437 0.823912 0.206762
H32   H     H_    0.643039 0.745071 0.825843 0.219603
N12   N     N_3   0.341051 0.319030 0.187454 -0.628569
H33   H     H_    0.289589 0.349589 0.257040 0.263602
H34   H     H_    0.401141 0.264307 0.206606 0.244349

loop_
_geom_bond_atom_site_label_1
_geom_bond_atom_site_label_2
_ccdc_geom_bond_type
C27   C29   A    
C38   H20   S    
C19   C20   A    
C17   H10   S    
C18   H9    S    
C21   O5    A    
C21   C36   S    
N7    H23   S    
C22   C35   S    
Cu1   Cu2   S    
C32   C36   A    
C24   C26   A    
C9    H8    S    
C5    N9    S    
N10   H30   S    
Cu2   O2    S    
C14   N4    S    
C33   C36   A    
C34   C35   A    
C15   N2    A    
C1    O3    A    
N4    H14   S    
C15   N12   S    
C23   C33   A    
C31   C33   A    
N11   H32   S    
Cu1   O8    S    
N3    H11   S    
C29   H5    S    
C38   H21   S    
C30   H6    S    
C4    C7    A    
C10   C12   A    
N7    H24   S    
N3    H12   S    
C37   H16   S    
C16   N1    A    
C5    C12   A    
N8    H26   S    
C3    C8    A    
C2    O4    A    
C25   H3    S    
C6    C11   A    
C5    C7    A    
N10   H29   S    
C22   O6    A    
C28   H1    S    
N5    C37   S    
C24   C34   A    
C37   H17   S    
C32   C34   A    
C21   O7    A    
N4    H13   S    
Cu2   O7    S    
Cu1   N1    S    
N9    H27   S    
C13   C15   A    
C27   H2    S    
C10   H7    S    
N12   H34   S    
C1    O1    A    
C2    O2    A    
Cu2   N2    S    
Cu1   O4    S    
N9    H28   S    
C9    C11   A    
C8    N7    S    
C38   H22   S    
C14   C16   A    
C26   H4    S    
N6    C38   S    
C13   C20   A    
C14   C19   A    
N8    H25   S    
C17   N2    A    
C22   O8    A    
C6    C8    A    
C11   C12   A    
C13   N3    S    
C25   C27   A    
C26   C28   A    
C6    N10   S    
C1    C4    S    
C37   H18   S    
C28   C30   A    
C2    C3    S    
C4    C9    A    
N6    H19   S    
C29   C31   A    
C3    C10   A    
C30   C32   A    
C23   N5    S    
Cu2   O3    S    
Cu1   O1    S    
C31   C35   A    
N12   H33   S    
C17   C19   A    
C18   C20   A    
C23   C25   A    
Cu1   O5    S    
C16   N11   S    
Cu2   O6    S    
C24   N6    S    
N5    H15   S    
N11   H31   S    
C18   N1    A    
C7    N8    S    
