data_mof_unit_50125.cif
_audit_creation_date              2012-12-11T14:38:12-0500
_audit_creation_method            fapswitch 2.2
_symmetry_space_group_name_H-M    P1
_symmetry_Int_Tables_number       1
_space_group_crystal_system       triclinic
_cell_length_a                    19.461048
_cell_length_b                    10.973582
_cell_length_c                    19.66272
_cell_angle_alpha                 89.849765
_cell_angle_beta                  96.804637
_cell_angle_gamma                 89.705194
_cell_volume                      4169.46327797

loop_
_atom_site_label
_atom_site_type_symbol
_atom_type_description
_atom_site_fract_x
_atom_site_fract_y
_atom_site_fract_z
_atom_type_partial_charge
C1    C     C_R   0.705990 0.999713 0.366030 0.563008
C2    C     C_R   0.293922 0.000018 0.633726 0.565493
C3    C     C_R   0.205990 0.499713 0.366030 0.563001
C4    C     C_R   0.793921 0.500015 0.633726 0.565503
C5    C     C_3   0.689216 0.407601 0.465195 -0.240479
C6    C     C_3   0.310599 0.405840 0.534756 -0.241636
C7    C     C_3   0.189212 0.907658 0.465187 -0.240481
C8    C     C_3   0.810593 0.905791 0.534749 -0.241638
C9    C     C_3   0.803512 0.572690 0.513038 -0.253181
C10   C     C_3   0.195939 0.572871 0.486116 -0.253531
C11   C     C_3   0.303543 0.072672 0.513037 -0.253145
C12   C     C_3   0.695983 0.072914 0.486119 -0.253511
C13   C     C_3   0.826394 0.353327 0.544214 -0.024155
C14   C     C_3   0.173699 0.353571 0.455965 -0.024215
C15   C     C_3   0.326376 0.853305 0.544221 -0.024158
C16   C     C_3   0.673668 0.853615 0.455973 -0.024213
C17   C     C_3   0.782533 0.467738 0.559834 0.047766
C18   C     C_3   0.217284 0.467434 0.439911 0.050019
C19   C     C_3   0.282534 0.967742 0.559833 0.047765
C20   C     C_3   0.717285 0.967439 0.439912 0.050038
C21   C     C_3   0.756575 0.411363 0.430525 0.033451
C22   C     C_3   0.243242 0.411437 0.569381 0.030820
C23   C     C_3   0.256574 0.911360 0.430525 0.033428
C24   C     C_3   0.743241 0.911439 0.569381 0.030816
C25   C     C_3   0.784106 0.542508 0.435820 -0.252767
C26   C     C_3   0.215933 0.543267 0.563458 -0.252258
C27   C     C_3   0.284141 0.042477 0.435819 -0.252746
C28   C     C_3   0.715964 0.043288 0.563461 -0.252257
C29   C     C_3   0.816657 0.330594 0.468593 -0.196920
C30   C     C_3   0.183020 0.331845 0.531692 -0.197784
C31   C     C_3   0.316622 0.830546 0.468603 -0.196941
C32   C     C_3   0.682997 0.831887 0.531698 -0.197795
C33   C     C_3   0.554476 0.274050 0.948306 -0.232101
C34   C     C_3   0.577123 0.276977 0.025824 -0.240233
C35   C     C_3   0.054433 0.774137 0.948317 -0.232069
C36   C     C_3   0.077091 0.777038 0.025832 -0.240218
C37   C     C_3   0.437721 0.195219 0.972303 -0.231035
C38   C     C_3   0.559452 0.050688 0.030846 -0.232300
C39   C     C_3   0.937715 0.695097 0.972304 -0.231043
C40   C     C_3   0.059504 0.550727 0.030838 -0.232299
C41   C     C_3   0.533593 0.048290 0.953177 -0.237034
C42   C     C_3   0.461074 0.192786 0.049239 -0.219111
C43   C     C_3   0.033664 0.548336 0.953163 -0.237037
C44   C     C_3   0.961074 0.692704 0.049241 -0.219107
C45   C     C_R   0.535256 0.180392 0.338373 0.546850
C46   C     C_R   0.464647 0.180290 0.661561 0.541826
C47   C     C_R   0.035256 0.680392 0.338373 0.546838
C48   C     C_R   0.964647 0.680290 0.661561 0.541831
C49   C     C_3   0.499763 0.172656 0.930983 0.054303
C50   C     C_3   0.540493 0.174883 0.062433 0.043483
C51   C     C_3   0.999769 0.672660 0.930982 0.054313
C52   C     C_3   0.040498 0.674887 0.062433 0.043478
C53   C     C_1   0.780774 0.474802 0.914555 -0.024321
C54   C     C_1   0.242804 0.411817 0.099492 -0.017383
C55   C     C_1   0.280777 0.974809 0.914557 -0.024321
C56   C     C_1   0.742802 0.911822 0.099490 -0.017380
C57   C     C_1   0.758317 0.437043 0.041598 -0.046980
C58   C     C_1   0.264780 0.361895 0.973578 -0.050363
C59   C     C_1   0.258320 0.937049 0.041599 -0.046982
C60   C     C_1   0.764776 0.861903 0.973576 -0.050362
C61   C     C_1   0.770078 0.458774 0.973091 -0.049125
C62   C     C_1   0.254840 0.386367 0.042363 -0.047084
C63   C     C_1   0.270082 0.958782 0.973093 -0.049124
C64   C     C_1   0.754837 0.886375 0.042361 -0.047085
C65   C     C_1   0.748493 0.409990 0.099130 -0.016607
C66   C     C_1   0.271109 0.341093 0.914352 -0.022526
C67   C     C_1   0.248495 0.909994 0.099131 -0.016610
C68   C     C_1   0.771106 0.841100 0.914351 -0.022520
C69   C     C_R   0.741283 0.366762 0.359761 0.537020
C70   C     C_R   0.258613 0.366713 0.640238 0.546501
C71   C     C_R   0.241282 0.866761 0.359762 0.537016
C72   C     C_R   0.758613 0.866712 0.640238 0.546502
C73   C     C_R   0.722815 0.952045 0.163885 0.539328
C74   C     C_R   0.294759 0.997306 0.845552 0.536769
C75   C     C_R   0.222815 0.452044 0.163885 0.539326
C76   C     C_R   0.794758 0.497304 0.845552 0.536768
C77   C     C_R   0.562511 0.182130 0.136952 0.548345
C78   C     C_R   0.471273 0.178564 0.857957 0.525505
C79   C     C_R   0.062511 0.682131 0.136954 0.548352
C80   C     C_R   0.971277 0.678564 0.857955 0.525497
C81   C     C_R   0.736827 0.361903 0.164704 0.538031
C82   C     C_R   0.277327 0.311469 0.844117 0.535557
C83   C     C_R   0.236827 0.861903 0.164704 0.538031
C84   C     C_R   0.777326 0.811472 0.844117 0.535557
C85   C     C_1   0.486151 0.173896 0.594469 0.002401
C86   C     C_1   0.513499 0.173915 0.405365 0.000138
C87   C     C_1   0.986149 0.673898 0.594468 0.002414
C88   C     C_1   0.013497 0.673913 0.405365 0.000108
C89   C     C_1   0.503539 0.171792 0.464674 -0.036211
C90   C     C_1   0.495967 0.171787 0.535125 -0.035749
C91   C     C_1   0.003536 0.671792 0.464673 -0.036244
C92   C     C_1   0.995964 0.671789 0.535123 -0.035750
C93   C     C_3   0.704588 0.437128 0.540794 -0.248248
C94   C     C_3   0.295307 0.435896 0.459134 -0.248497
C95   C     C_3   0.204584 0.937177 0.540787 -0.248245
C96   C     C_3   0.795303 0.935840 0.459126 -0.248501
Cr1   Cr    Cr6+3 0.765780 0.160710 0.267420 1.028552
Cr2   Cr    Cr6+3 0.234220 0.160710 0.732580 1.029016
Cr3   Cr    Cr6+3 0.265780 0.660710 0.267420 1.028548
Cr4   Cr    Cr6+3 0.734220 0.660710 0.732580 1.029018
Cr5   Cr    Cr6+3 0.612200 0.009560 0.248850 1.047048
Cr6   Cr    Cr6+3 0.387800 0.009560 0.751150 1.044975
Cr7   Cr    Cr6+3 0.112200 0.509560 0.248850 1.047056
Cr8   Cr    Cr6+3 0.887800 0.509560 0.751150 1.044977
Cr9   Cr    Cr6+3 0.616030 0.323720 0.248510 1.020804
Cr10  Cr    Cr6+3 0.383970 0.323720 0.751490 1.023713
Cr11  Cr    Cr6+3 0.116030 0.823720 0.248510 1.020812
Cr12  Cr    Cr6+3 0.883970 0.823720 0.751490 1.023713
H1    H     H_    0.671169 0.515362 0.552034 0.151166
H2    H     H_    0.328554 0.513851 0.447862 0.151536
H3    H     H_    0.171177 0.015427 0.552026 0.151162
H4    H     H_    0.828567 0.013771 0.447849 0.151535
H5    H     H_    0.865044 0.354347 0.446560 0.187769
H6    H     H_    0.134611 0.357467 0.553364 0.187949
H7    H     H_    0.365015 0.854215 0.446567 0.187801
H8    H     H_    0.634600 0.857530 0.553375 0.187948
H9    H     H_    0.859910 0.589068 0.523165 0.145468
H10   H     H_    0.139412 0.588948 0.476233 0.145471
H11   H     H_    0.359949 0.089005 0.523170 0.145508
H12   H     H_    0.639456 0.089084 0.476232 0.145400
H13   H     H_    0.830477 0.552221 0.408136 0.132068
H14   H     H_    0.169882 0.554575 0.591506 0.133483
H15   H     H_    0.330518 0.052136 0.408144 0.132107
H16   H     H_    0.669915 0.054629 0.591504 0.133480
H17   H     H_    0.533218 0.365305 0.932118 0.152361
H18   H     H_    0.634198 0.264447 0.035558 0.112202
H19   H     H_    0.033122 0.865374 0.932151 0.152372
H20   H     H_    0.134172 0.764552 0.035554 0.112214
H21   H     H_    0.600168 0.257143 0.920474 0.127441
H22   H     H_    0.564657 0.368121 0.046017 0.148587
H23   H     H_    0.100129 0.757333 0.920470 0.127439
H24   H     H_    0.064606 0.868163 0.046040 0.148599
H25   H     H_    0.413613 0.285479 0.958505 0.134694
H26   H     H_    0.616470 0.036810 0.038621 0.121528
H27   H     H_    0.913546 0.785310 0.958501 0.134629
H28   H     H_    0.116526 0.536905 0.038624 0.121499
H29   H     H_    0.444981 0.279669 0.071972 0.149564
H30   H     H_    0.577678 0.029166 0.923506 0.129522
H31   H     H_    0.944954 0.779577 0.071967 0.149551
H32   H     H_    0.077770 0.529317 0.923499 0.129510
H33   H     H_    0.495435 0.973511 0.942650 0.143867
H34   H     H_    0.434538 0.117401 0.073529 0.135922
H35   H     H_    0.995550 0.473489 0.942615 0.143860
H36   H     H_    0.934564 0.617297 0.073540 0.135926
H37   H     H_    0.535581 0.973821 0.056435 0.149992
H38   H     H_    0.397311 0.124874 0.959752 0.104659
H39   H     H_    0.035652 0.473825 0.056414 0.149994
H40   H     H_    0.897354 0.624665 0.959760 0.104713
H41   H     H_    0.690128 0.358000 0.571623 0.130990
H42   H     H_    0.310065 0.356780 0.428478 0.128750
H43   H     H_    0.190106 0.858059 0.571613 0.130994
H44   H     H_    0.810038 0.856703 0.428470 0.128746
H45   H     H_    0.661779 0.319738 0.458095 0.115740
H46   H     H_    0.337789 0.317214 0.542120 0.114673
H47   H     H_    0.161757 0.819813 0.458085 0.115774
H48   H     H_    0.837766 0.817155 0.542116 0.114656
H49   H     H_    0.651953 0.476669 0.440678 0.153726
H50   H     H_    0.348070 0.473850 0.559092 0.153891
H51   H     H_    0.151969 0.976750 0.440666 0.153745
H52   H     H_    0.848078 0.973781 0.559078 0.153887
H53   H     H_    0.278284 0.156527 0.524974 0.098259
H54   H     H_    0.720456 0.156688 0.473266 0.098733
H55   H     H_    0.778228 0.656506 0.524982 0.098300
H56   H     H_    0.220355 0.656681 0.473258 0.098688
H57   H     H_    0.244478 0.105912 0.411147 0.117910
H58   H     H_    0.755981 0.105939 0.587271 0.120276
H59   H     H_    0.744420 0.605920 0.411159 0.117921
H60   H     H_    0.255935 0.605953 0.587263 0.120268
H61   H     H_    0.807389 0.273696 0.570730 0.137132
H62   H     H_    0.193294 0.273493 0.430228 0.135767
H63   H     H_    0.307366 0.773693 0.570750 0.137139
H64   H     H_    0.693235 0.773511 0.430234 0.135772
H65   H     H_    0.813009 0.231530 0.459815 0.125236
H66   H     H_    0.186325 0.232752 0.541143 0.126433
H67   H     H_    0.312924 0.731502 0.459836 0.125185
H68   H     H_    0.686285 0.732801 0.541141 0.126439
O1    O     O_R   0.783100 0.287550 0.345460 -0.531084
O2    O     O_R   0.216900 0.287550 0.654540 -0.529080
O3    O     O_R   0.283100 0.787550 0.345460 -0.531083
O4    O     O_R   0.716900 0.787550 0.654540 -0.529076
O5    O     O_R   0.554710 0.081900 0.170950 -0.502013
O6    O     O_R   0.445290 0.081900 0.829050 -0.520301
O7    O     O_R   0.054710 0.581900 0.170950 -0.502016
O8    O     O_R   0.945290 0.581900 0.829050 -0.520296
O9    O     O_R   0.545650 0.284910 0.163740 -0.518127
O10   O     O_R   0.454350 0.284910 0.836260 -0.526279
O11   O     O_R   0.045650 0.784910 0.163740 -0.518130
O12   O     O_R   0.954350 0.784910 0.836260 -0.526278
O13   O     O_R   0.677950 0.374280 0.185410 -0.510958
O14   O     O_R   0.322050 0.374280 0.814590 -0.481941
O15   O     O_R   0.177950 0.874280 0.185410 -0.510958
O16   O     O_R   0.822050 0.874280 0.814590 -0.481939
O17   O     O_3   0.664670 0.164660 0.254930 -0.293888
O18   O     O_3   0.335330 0.164660 0.745070 -0.314273
O19   O     O_3   0.164670 0.664660 0.254930 -0.293892
O20   O     O_3   0.835330 0.664660 0.745070 -0.314269
O21   O     O_R   0.760020 0.037400 0.337700 -0.511250
O22   O     O_R   0.239980 0.037400 0.662300 -0.504914
O23   O     O_R   0.260020 0.537400 0.337700 -0.511250
O24   O     O_R   0.739980 0.537400 0.662300 -0.504912
O25   O     O_R   0.666600 0.921990 0.332020 -0.483794
O26   O     O_R   0.333400 0.921990 0.667980 -0.476516
O27   O     O_R   0.166600 0.421990 0.332020 -0.483770
O28   O     O_R   0.833400 0.421990 0.667980 -0.476517
O29   O     O_R   0.557260 0.082670 0.312540 -0.476645
O30   O     O_R   0.442740 0.082670 0.687460 -0.480816
O31   O     O_R   0.057260 0.582670 0.312540 -0.476661
O32   O     O_R   0.942740 0.582670 0.687460 -0.480811
O33   O     O_R   0.548410 0.285740 0.316480 -0.507606
O34   O     O_R   0.451590 0.285740 0.683520 -0.509039
O35   O     O_R   0.048410 0.785740 0.316480 -0.507595
O36   O     O_R   0.951590 0.785740 0.683520 -0.509042
O37   O     O_R   0.680500 0.375040 0.327000 -0.499419
O38   O     O_R   0.319500 0.375040 0.673000 -0.493179
O39   O     O_R   0.180500 0.875040 0.327000 -0.499415
O40   O     O_R   0.819500 0.875040 0.673000 -0.493179
O41   O     O_R   0.780350 0.286720 0.192720 -0.499912
O42   O     O_R   0.219650 0.286720 0.807280 -0.499475
O43   O     O_R   0.280350 0.786720 0.192720 -0.499912
O44   O     O_R   0.719650 0.786720 0.807280 -0.499476
O45   O     O_R   0.757470 0.036630 0.196110 -0.489280
O46   O     O_R   0.242530 0.036630 0.803890 -0.492427
O47   O     O_R   0.257470 0.536630 0.196110 -0.489283
O48   O     O_R   0.742530 0.536630 0.803890 -0.492426
O49   O     O_R   0.663840 0.921160 0.179280 -0.513345
O50   O     O_R   0.336160 0.921160 0.820720 -0.487677
O51   O     O_R   0.163840 0.421160 0.179280 -0.513340
O52   O     O_R   0.836160 0.421160 0.820720 -0.487676
I1    I     I_    0.937738 0.354778 0.575778 -0.378209
I2    I     I_    0.062439 0.354725 0.423882 -0.380244
I3    I     I_    0.437726 0.854738 0.575773 -0.378200
I4    I     I_    0.562405 0.854863 0.423905 -0.380242

loop_
_geom_bond_atom_site_label_1
_geom_bond_atom_site_label_2
_ccdc_geom_bond_type
C58   C62   S    
C39   C51   S    
C67   C83   S    
C8    C24   S    
Cr4   O44   S    
C47   O35   A    
C76   O52   A    
C9    H9    S    
C14   C18   S    
C93   H41   S    
C35   C36   S    
C8    C96   S    
C11   H53   S    
C14   H62   S    
C11   H11   S    
Cr11  O19   S    
C9    C25   S    
Cr10  O18   S    
C31   H67   S    
C76   O48   A    
C15   C19   S    
C40   H28   S    
C11   C19   S    
C79   O11   A    
C12   C28   S    
Cr7   O7    S    
Cr8   O28   S    
C10   C18   S    
C13   C29   S    
C16   C20   S    
C6    C22   S    
Cr7   O31   S    
C73   O45   A    
C36   H24   S    
C7    C23   S    
C4    O28   A    
Cr11  O35   S    
Cr4   O48   S    
Cr7   O51   S    
C96   H44   S    
Cr3   O19   S    
Cr6   O50   S    
Cr9   O33   S    
C49   C78   S    
Cr2   O18   S    
C3    C18   S    
Cr5   O49   S    
C95   H3    S    
Cr1   O17   S    
C37   C42   S    
C9    H55   S    
C51   C80   S    
C21   C25   S    
C84   O44   A    
C69   O1    A    
C12   H12   S    
C55   C74   S    
C43   H35   S    
C58   C66   T    
C40   C43   S    
C48   O36   A    
C79   O7    A    
C6    C94   S    
C55   C63   T    
C39   H40   S    
C42   H34   S    
C77   O5    A    
C56   C64   T    
C78   O10   A    
Cr8   O32   S    
C23   C27   S    
C37   H38   S    
Cr2   O2    S    
C52   C79   S    
C93   H1    S    
Cr3   O43   S    
C36   C52   S    
C44   H36   S    
C46   C85   S    
C59   C67   T    
C44   C52   S    
C7    H47   S    
C13   H61   S    
C20   C96   S    
C1    O25   A    
Cr3   O23   S    
C87   C92   T    
C82   O14   A    
C42   H29   S    
C48   O32   A    
Cr12  O20   S    
C36   H20   S    
Cr7   O19   S    
C14   C30   S    
C95   H43   S    
C25   H13   S    
C77   O9    A    
Cr6   O18   S    
C31   H7    S    
C22   C70   S    
Cr12  O36   S    
Cr5   O17   S    
Cr8   O52   S    
Cr7   O27   S    
Cr4   O20   S    
C80   O12   A    
Cr10  O38   S    
Cr3   O47   S    
C34   C50   S    
Cr9   O37   S    
Cr2   O22   S    
C15   H63   S    
C68   C84   S    
Cr1   O21   S    
C69   O37   A    
Cr10  O10   S    
C38   C41   S    
C71   O3    A    
C29   H65   S    
C91   C92   S    
C27   H15   S    
C70   O2    A    
C39   H27   S    
C54   C62   T    
C46   O34   A    
C12   H54   S    
C15   C31   S    
C16   I4    S    
C25   H59   S    
C54   C75   S    
C21   C69   S    
C78   O6    A    
Cr6   O6    S    
Cr9   O17   S    
C24   C32   S    
C38   H37   S    
Cr3   O3    S    
C30   H66   S    
C10   H10   S    
C23   C71   S    
C66   C82   S    
C32   H68   S    
C16   H64   S    
Cr1   O1    S    
C82   O42   A    
C88   C91   T    
C11   C27   S    
C34   H18   S    
C81   O41   A    
C12   C20   S    
C33   H17   S    
C33   C34   S    
Cr8   O20   S    
C48   C87   S    
C5    C21   S    
C43   H32   S    
Cr12  O40   S    
C32   H8    S    
C3    O23   A    
C35   H19   S    
Cr6   O30   S    
C81   O13   A    
C37   C49   S    
C6    H46   S    
Cr5   O29   S    
C42   C50   S    
C45   O29   A    
C4    C17   S    
Cr4   O24   S    
C9    C17   S    
C72   O40   A    
C27   H57   S    
C44   H31   S    
C5    H49   S    
Cr8   O8    S    
Cr2   O42   S    
C35   C51   S    
C18   C94   S    
Cr1   O41   S    
C94   H2    S    
C53   C76   S    
C17   C93   S    
Cr10  O14   S    
C53   C61   T    
C8    H52   S    
C50   C77   S    
C35   H23   S    
C19   C95   S    
C24   C72   S    
C30   H6    S    
C33   H21   S    
C46   O30   A    
C29   H5    S    
C1    C20   S    
C10   H56   S    
C56   C73   S    
C22   C30   S    
C40   H39   S    
C15   I3    S    
C2    C19   S    
C2    O22   A    
Cr12  O12   S    
C1    O21   A    
C24   C28   S    
C80   O8    A    
C57   C65   T    
C86   C89   T    
C6    H50   S    
C5    C93   S    
C85   C90   T    
C28   H16   S    
C57   C61   S    
C39   C44   S    
C38   C50   S    
C28   H58   S    
C16   C32   S    
C41   C49   S    
C7    C95   S    
C41   H33   S    
C74   O46   A    
C59   C63   S    
C83   O15   A    
C47   O31   A    
C60   C64   S    
C60   C68   T    
C47   C88   S    
C75   O51   A    
C45   C86   S    
Cr6   O26   S    
Cr10  O34   S    
C74   O50   A    
C40   C52   S    
C73   O49   A    
C3    O27   A    
C10   C26   S    
C21   C29   S    
C43   C51   S    
C71   O39   A    
Cr2   O46   S    
C2    O26   A    
C96   H4    S    
Cr9   O13   S    
Cr1   O45   S    
C84   O16   A    
C70   O38   A    
C37   H25   S    
C38   H26   S    
C8    H48   S    
Cr5   O5    S    
C45   O33   A    
C14   I2    S    
Cr9   O9    S    
C13   I1    S    
C13   C17   S    
C5    H45   S    
C94   H42   S    
C4    O24   A    
C7    H51   S    
C34   H22   S    
C83   O43   A    
C22   C26   S    
Cr11  O15   S    
C72   O4    A    
C65   C81   S    
Cr12  O16   S    
Cr11  O11   S    
Cr5   O25   S    
C26   H14   S    
C41   H30   S    
C89   C90   S    
C33   C49   S    
Cr11  O39   S    
C75   O47   A    
C26   H60   S    
C23   C31   S    
Cr4   O4    S    
