data_mof_unit_46845.cif
_audit_creation_date              2012-12-11T14:11:01-0500
_audit_creation_method            fapswitch 2.2
_symmetry_space_group_name_H-M    P1
_symmetry_Int_Tables_number       1
_space_group_crystal_system       triclinic
_cell_length_a                    19.712042
_cell_length_b                    17.07161
_cell_length_c                    15.66487
_cell_angle_alpha                 90.495619
_cell_angle_beta                  52.962841
_cell_angle_gamma                 89.771357
_cell_volume                      4207.49895815

loop_
_atom_site_label
_atom_site_type_symbol
_atom_type_description
_atom_site_fract_x
_atom_site_fract_y
_atom_site_fract_z
_atom_type_partial_charge
C1    C     C_R   0.336774 0.173557 0.052327 0.561022
C2    C     C_3   0.734960 0.706052 0.452081 0.434703
C3    C     C_3   0.421997 0.337776 0.190522 -0.259528
C4    C     C_3   0.964555 0.182839 0.178399 -0.009679
C5    C     C_3   0.048462 0.810449 0.794195 -0.150821
C6    C     C_3   0.036921 0.183058 0.825630 -0.130295
C7    C     C_3   0.922003 0.837775 0.190519 -0.259545
C8    C     C_3   0.762048 0.204757 0.419485 0.445476
C9    C     C_3   0.261751 0.781129 0.569593 0.477430
C10   C     C_3   0.784410 0.800834 0.538538 0.452890
C11   C     C_3   0.234959 0.206049 0.452084 0.434707
C12   C     C_3   0.262036 0.704764 0.419488 0.445475
C13   C     C_3   0.761763 0.281125 0.569588 0.477455
C14   C     C_2   0.293763 0.681208 0.946559 -0.105285
C15   C     C_2   0.823601 0.247352 0.891684 -0.102174
C16   C     C_2   0.700402 0.678486 0.066161 -0.120428
C17   C     C_R   0.632127 0.804184 0.999164 0.510738
C18   C     C_2   0.174773 0.249015 0.112957 -0.079038
C19   C     C_2   0.793764 0.181208 0.946558 -0.105290
C20   C     C_2   0.323601 0.747352 0.891684 -0.102177
C21   C     C_2   0.200403 0.178487 0.066159 -0.120430
C22   C     C_2   0.674772 0.749014 0.112958 -0.079034
C23   C     C_R   0.395290 0.801413 0.208645 0.640720
C24   C     C_R   0.614223 0.195097 0.784593 0.711568
C25   C     C_R   0.605397 0.801700 0.785553 0.600180
C26   C     C_R   0.407248 0.202082 0.202575 0.738946
C27   C     C_R   0.895292 0.301413 0.208644 0.640715
C28   C     C_R   0.660050 0.176233 0.955276 0.523301
C29   C     C_R   0.114211 0.695101 0.784598 0.711589
C30   C     C_R   0.105395 0.301699 0.785555 0.600183
C31   C     C_R   0.907249 0.702083 0.202575 0.738948
C32   C     C_R   0.379400 0.882230 0.883555 0.492595
C33   C     C_R   0.671204 0.087840 0.047687 0.418453
C34   C     C_R   0.623259 0.884518 0.114349 0.478895
C35   C     C_R   0.326711 0.086168 0.957009 0.385380
C36   C     C_R   0.879399 0.382230 0.883555 0.492593
C37   C     C_R   0.171204 0.587840 0.047687 0.418450
C38   C     C_R   0.123260 0.384518 0.114348 0.478890
C39   C     C_R   0.370719 0.803621 0.999200 0.507340
C40   C     C_R   0.826711 0.586168 0.957010 0.385378
C41   C     C_R   0.408720 0.110005 0.301488 -0.071457
C42   C     C_R   0.605192 0.896288 0.689701 -0.033689
C43   C     C_R   0.614996 0.098529 0.686285 -0.070549
C44   C     C_R   0.396418 0.895134 0.308306 -0.008554
C45   C     C_R   0.908721 0.610005 0.301488 -0.071460
C46   C     C_R   0.105192 0.396288 0.689701 -0.033672
C47   C     C_R   0.114984 0.598535 0.686289 -0.070532
C48   C     C_R   0.896419 0.395133 0.308306 -0.008557
C49   C     C_R   0.281459 0.144766 0.033383 -0.170666
C50   C     C_R   0.836773 0.673556 0.052329 0.561025
C51   C     C_R   0.647748 0.809872 0.073634 -0.279560
C52   C     C_R   0.714527 0.147574 0.975820 -0.199138
C53   C     C_R   0.356684 0.807858 0.923416 -0.285079
C54   C     C_R   0.781458 0.644765 0.033384 -0.170665
C55   C     C_R   0.147749 0.309872 0.073633 -0.279560
C56   C     C_R   0.214527 0.647573 0.975818 -0.199138
C57   C     C_R   0.856684 0.307858 0.923415 -0.285078
C58   C     C_R   0.374463 0.819075 0.307423 -0.101920
C59   C     C_R   0.644564 0.171485 0.683077 -0.090691
C60   C     C_R   0.625909 0.819243 0.686687 -0.034494
C61   C     C_R   0.132128 0.304184 0.999163 0.510741
C62   C     C_R   0.395002 0.189132 0.299349 -0.065195
C63   C     C_R   0.874465 0.319074 0.307422 -0.101915
C64   C     C_R   0.144545 0.671494 0.683082 -0.090718
C65   C     C_R   0.125907 0.319242 0.686689 -0.034510
C66   C     C_R   0.895004 0.689132 0.299349 -0.065198
C67   C     C_3   0.310568 0.214418 0.509975 0.445784
C68   C     C_3   0.709130 0.792673 0.480184 0.451290
C69   C     C_3   0.784455 0.168616 0.489005 0.440453
C70   C     C_3   0.239203 0.817339 0.500393 0.409769
C71   C     C_3   0.810567 0.714416 0.509976 0.445785
C72   C     C_R   0.160051 0.676232 0.955273 0.523294
C73   C     C_3   0.209126 0.292670 0.480187 0.451292
C74   C     C_3   0.284439 0.668621 0.489012 0.440450
C75   C     C_3   0.739210 0.317331 0.500392 0.409775
C76   C     C_3   0.717414 0.692331 0.561194 -0.346736
C77   C     C_3   0.301543 0.315348 0.430424 -0.429903
C78   C     C_3   0.340225 0.739420 0.470784 -0.367731
C79   C     C_3   0.683983 0.246628 0.517825 -0.403334
C80   C     C_3   0.217416 0.192329 0.561195 -0.346748
C81   C     C_3   0.801547 0.815349 0.430423 -0.429898
C82   C     C_3   0.840238 0.239418 0.470776 -0.367747
C83   C     C_R   0.870720 0.303621 0.999199 0.507348
C84   C     C_3   0.183973 0.746638 0.517826 -0.403317
C85   C     C_3   0.692177 0.779517 0.587755 -0.194057
C86   C     C_3   0.327863 0.228094 0.401497 -0.192452
C87   C     C_3   0.316879 0.775439 0.402200 -0.200859
C88   C     C_3   0.707065 0.210774 0.586507 -0.192454
C89   C     C_3   0.192175 0.279515 0.587757 -0.194056
C90   C     C_3   0.827865 0.728094 0.401496 -0.192454
C91   C     C_3   0.816887 0.275435 0.402197 -0.200862
C92   C     C_3   0.207050 0.710781 0.586512 -0.192456
C93   C     C_3   0.356744 0.304471 0.044225 -0.187159
C94   C     C_3   0.284408 0.300835 0.538538 0.452891
C95   C     C_3   0.733337 0.741643 0.846298 0.037639
C96   C     C_3   0.636117 0.308268 0.988908 0.067609
C97   C     C_3   0.247127 0.786617 0.163166 -0.000482
C98   C     C_3   0.856744 0.804470 0.044226 -0.187154
C99   C     C_3   0.233337 0.241645 0.846296 0.037625
C100  C     C_3   0.136115 0.808269 0.988903 0.067597
C101  C     C_3   0.747132 0.286609 0.163167 -0.000481
C102  C     C_3   0.464548 0.682838 0.178404 -0.009677
C103  C     C_3   0.548464 0.310437 0.794193 -0.150789
C104  C     C_3   0.536921 0.683060 0.825637 -0.130301
Cl1   Cl    Cl    0.413916 0.904291 0.753489 -0.472048
Cl2   Cl    Cl    0.642332 0.840910 0.455219 -0.450049
Cl3   Cl    Cl    0.816338 0.069249 0.481445 -0.553895
Cl4   Cl    Cl    0.204060 0.916142 0.511694 -0.567977
Cl5   Cl    Cl    0.877775 0.666482 0.534409 -0.524301
Cl6   Cl    Cl    0.142325 0.340903 0.455225 -0.450050
Cl7   Cl    Cl    0.316317 0.569252 0.481454 -0.553902
Cl8   Cl    Cl    0.704061 0.416133 0.511697 -0.567976
Cl9   Cl    Cl    0.319487 0.365599 0.594399 -0.564018
Cl10  Cl    Cl    0.699335 0.642606 0.395605 -0.520381
Cl11  Cl    Cl    0.752864 0.147838 0.331041 -0.500277
Cl12  Cl    Cl    0.703598 0.045174 0.119105 -0.539302
Cl13  Cl    Cl    0.268395 0.833713 0.663151 -0.438620
Cl14  Cl    Cl    0.819489 0.865596 0.594401 -0.564019
Cl15  Cl    Cl    0.199334 0.142600 0.395610 -0.520377
Cl16  Cl    Cl    0.252854 0.647846 0.331042 -0.500268
Cl17  Cl    Cl    0.768407 0.333710 0.663145 -0.438601
Cl18  Cl    Cl    0.586523 0.907889 0.245718 -0.508242
Cl19  Cl    Cl    0.292995 0.042065 0.887370 -0.579397
Cl20  Cl    Cl    0.913916 0.404291 0.753489 -0.472045
Cl21  Cl    Cl    0.203596 0.545177 0.119109 -0.539294
Cl22  Cl    Cl    0.086524 0.407888 0.245717 -0.508246
Cl23  Cl    Cl    0.792995 0.542065 0.887370 -0.579398
Cl24  Cl    Cl    0.377779 0.166487 0.534405 -0.524306
H1    H     H_    0.406868 0.078972 0.362657 0.206592
H2    H     H_    0.329178 0.372687 0.393577 0.227844
H3    H     H_    0.405184 0.736411 0.449094 0.239428
H4    H     H_    0.619152 0.249643 0.539076 0.227242
H5    H     H_    0.183328 0.141256 0.612817 0.228486
H6    H     H_    0.829185 0.872686 0.393576 0.227846
H7    H     H_    0.905199 0.236414 0.449084 0.239432
H8    H     H_    0.119142 0.749657 0.539075 0.227245
H9    H     H_    0.318178 0.658994 0.987724 0.230325
H10   H     H_    0.809349 0.264241 0.837607 0.251810
H11   H     H_    0.674009 0.653650 0.028542 0.217904
H12   H     H_    0.609940 0.929131 0.627796 0.202712
H13   H     H_    0.189008 0.268686 0.166176 0.255227
H14   H     H_    0.818179 0.158993 0.987721 0.230324
H15   H     H_    0.309350 0.764240 0.837606 0.251811
H16   H     H_    0.174010 0.153650 0.028540 0.217903
H17   H     H_    0.689008 0.768686 0.166177 0.255228
H18   H     H_    0.342536 0.304515 0.985234 0.100367
H19   H     H_    0.425950 0.307555 0.002442 0.193571
H20   H     H_    0.327452 0.358415 0.093999 0.212723
H21   H     H_    0.777723 0.739849 0.867900 0.090082
H22   H     H_    0.746126 0.794490 0.797917 0.143061
H23   H     H_    0.620660 0.066204 0.622601 0.193148
H24   H     H_    0.747212 0.689418 0.795295 0.234219
H25   H     H_    0.604643 0.288255 0.072474 0.070720
H26   H     H_    0.590568 0.345342 0.987536 0.187260
H27   H     H_    0.689613 0.346661 0.966449 0.134703
H28   H     H_    0.210976 0.795827 0.130278 0.079774
H29   H     H_    0.250872 0.842480 0.197198 0.106375
H30   H     H_    0.210145 0.744804 0.229384 0.225646
H31   H     H_    0.842536 0.804514 0.985235 0.100366
H32   H     H_    0.925951 0.807552 0.002441 0.193579
H33   H     H_    0.827455 0.858415 0.093998 0.212724
H34   H     H_    0.393761 0.925822 0.370998 0.206853
H35   H     H_    0.277724 0.239848 0.867896 0.090092
H36   H     H_    0.246126 0.294494 0.797917 0.143056
H37   H     H_    0.247211 0.189422 0.795290 0.234216
H38   H     H_    0.104617 0.788249 0.072484 0.070769
H39   H     H_    0.090577 0.845351 0.987504 0.187286
H40   H     H_    0.189618 0.846660 0.966460 0.134681
H41   H     H_    0.710978 0.295819 0.130283 0.079779
H42   H     H_    0.750875 0.342472 0.197202 0.106371
H43   H     H_    0.710154 0.244793 0.229382 0.225650
H44   H     H_    0.423659 0.647305 0.251117 0.175749
H45   H     H_    0.906868 0.578972 0.362656 0.206593
H46   H     H_    0.507650 0.718323 0.186202 0.082826
H47   H     H_    0.504679 0.641728 0.109880 0.175601
H48   H     H_    0.522157 0.366025 0.840696 0.168267
H49   H     H_    0.494759 0.274917 0.810057 0.083485
H50   H     H_    0.590696 0.327351 0.709439 0.193873
H51   H     H_    0.561718 0.622505 0.797709 0.180780
H52   H     H_    0.518733 0.705829 0.775438 0.120441
H53   H     H_    0.479232 0.678940 0.909512 0.181273
H54   H     H_    0.449402 0.384948 0.130523 0.169757
H55   H     H_    0.448041 0.345644 0.236086 0.167566
H56   H     H_    0.109940 0.429131 0.627795 0.202712
H57   H     H_    0.351967 0.344761 0.237911 0.215611
H58   H     H_    0.923668 0.147300 0.251105 0.175754
H59   H     H_    0.007650 0.218326 0.186206 0.082823
H60   H     H_    0.004692 0.141736 0.109868 0.175605
H61   H     H_    0.022151 0.866034 0.840704 0.168262
H62   H     H_    0.994761 0.774933 0.810041 0.083504
H63   H     H_    0.090703 0.827369 0.709444 0.193893
H64   H     H_    0.061722 0.122504 0.797703 0.180778
H65   H     H_    0.018738 0.205827 0.775427 0.120446
H66   H     H_    0.979229 0.178935 0.909502 0.181270
H67   H     H_    0.120646 0.566211 0.622606 0.193151
H68   H     H_    0.949409 0.884946 0.130519 0.169761
H69   H     H_    0.948047 0.845642 0.236083 0.167565
H70   H     H_    0.851974 0.844763 0.237909 0.215616
H71   H     H_    0.893763 0.425821 0.370997 0.206853
H72   H     H_    0.683323 0.641258 0.612817 0.228485
N1    N     N_R   0.408680 0.130810 0.995780 -0.141440
N2    N     N_R   0.578590 0.132790 0.846380 -0.125085
N3    N     N_R   0.578590 0.867210 0.846380 -0.112975
N4    N     N_R   0.421410 0.132790 0.153620 -0.096452
N5    N     N_R   0.921410 0.367210 0.153620 -0.121422
N6    N     N_R   0.078590 0.632790 0.846380 -0.125079
N7    N     N_R   0.078590 0.367210 0.846380 -0.112973
N8    N     N_R   0.921410 0.632790 0.153620 -0.096451
N9    N     N_R   0.403840 0.921910 0.935760 -0.132131
N10   N     N_R   0.596160 0.078090 0.064240 -0.125904
N11   N     N_R   0.596160 0.921910 0.064240 -0.132089
N12   N     N_R   0.591320 0.869190 0.004220 -0.129965
N13   N     N_R   0.403840 0.078090 0.935760 -0.120120
N14   N     N_R   0.903840 0.421910 0.935760 -0.132133
N15   N     N_R   0.096160 0.578090 0.064240 -0.125904
N16   N     N_R   0.096160 0.421910 0.064240 -0.132089
N17   N     N_R   0.903840 0.578090 0.935760 -0.120122
N18   N     N_R   0.426250 0.076100 0.213650 -0.083830
N19   N     N_R   0.573750 0.923900 0.786350 -0.092160
N20   N     N_R   0.573750 0.076100 0.786350 -0.092398
N21   N     N_R   0.426250 0.923900 0.213650 -0.093826
N22   N     N_R   0.926250 0.576100 0.213650 -0.083831
N23   N     N_R   0.591320 0.130810 0.004220 -0.130855
N24   N     N_R   0.073750 0.423900 0.786350 -0.092160
N25   N     N_R   0.073750 0.576100 0.786350 -0.092397
N26   N     N_R   0.926250 0.423900 0.213650 -0.093827
N27   N     N_R   0.408680 0.869190 0.995780 -0.139802
N28   N     N_R   0.908680 0.630810 0.995780 -0.141441
N29   N     N_R   0.091320 0.369190 0.004220 -0.129965
N30   N     N_R   0.091320 0.630810 0.004220 -0.130856
N31   N     N_R   0.908680 0.369190 0.995780 -0.139802
N32   N     N_R   0.421410 0.867210 0.153620 -0.121422
Ni1   Ni    Ni4+2 0.500000 0.131570 0.000000 0.274345
Ni2   Ni    Ni4+2 0.500000 0.868430 0.000000 0.273990
Ni3   Ni    Ni4+2 0.000000 0.631570 0.000000 0.274346
Ni4   Ni    Ni4+2 0.000000 0.368430 0.000000 0.273997
Ni5   Ni    Ni4+2 0.488900 0.000000 0.862310 0.275792
Ni6   Ni    Ni4+2 0.511100 0.000000 0.137690 0.280001
Ni7   Ni    Ni4+2 0.988900 0.500000 0.862310 0.275792
Ni8   Ni    Ni4+2 0.011100 0.500000 0.137690 0.280000
O1    O     O_3   0.324064 0.239166 0.112111 -0.602928
O2    O     O_3   0.593722 0.271187 0.825000 -0.569984
O3    O     O_3   0.598591 0.727096 0.823263 -0.587891
O4    O     O_3   0.448898 0.265622 0.136412 -0.653365
O5    O     O_3   0.914766 0.228215 0.159421 -0.562296
O6    O     O_3   0.093706 0.771189 0.825013 -0.570009
O7    O     O_3   0.098584 0.227096 0.823269 -0.587889
O8    O     O_3   0.948900 0.765622 0.136411 -0.653373
O9    O     O_3   0.647243 0.739607 0.937227 -0.604656
O10   O     O_3   0.665699 0.247661 0.911486 -0.585377
O11   O     O_3   0.329084 0.754722 0.085877 -0.578820
O12   O     O_3   0.824064 0.739165 0.112112 -0.602925
O13   O     O_3   0.147244 0.239608 0.937225 -0.604656
O14   O     O_3   0.165701 0.747659 0.911481 -0.585368
O15   O     O_3   0.829090 0.254719 0.085873 -0.578824
O16   O     O_3   0.414762 0.728215 0.159423 -0.562301

loop_
_geom_bond_atom_site_label_1
_geom_bond_atom_site_label_2
_ccdc_geom_bond_type
C78   C87   S    
C31   C66   A    
C14   C56   S    
N5    Ni4   S    
C10   C85   S    
C12   C74   S    
C40   N17   A    
C23   C58   A    
C18   C21   D    
C9    Cl13  S    
C29   O6    S    
C50   N28   A    
C43   N20   A    
C96   O10   S    
C5    O6    S    
C29   N6    A    
C17   N12   A    
C1    N1    A    
C58   C87   S    
C95   O9    S    
C21   C49   S    
C41   N18   A    
C69   Cl3   S    
C43   H23   S    
C81   H6    S    
C66   C90   S    
C104  H52   S    
C33   C52   A    
C65   C89   S    
C62   C86   S    
C24   N2    A    
C8    C69   S    
C50   C54   A    
C72   N30   A    
C100  H39   S    
C68   C81   S    
N10   Ni6   S    
C4    H59   S    
C47   H67   S    
C101  O15   S    
N9    Ni5   S    
C5    H62   S    
C2    C68   S    
C27   O5    S    
C71   C76   S    
C26   O4    S    
C93   H19   S    
C17   O9    S    
C104  H51   S    
C48   N26   A    
C70   C87   S    
C11   C86   S    
N8    N22   A    
N15   N30   A    
C98   O12   S    
C71   Cl5   S    
C77   C94   S    
C89   C94   S    
C103  O2    S    
C46   N24   A    
C12   C84   S    
C93   H20   S    
C100  H38   S    
C97   H28   S    
C74   C92   S    
C82   H7    S    
C2    C90   S    
C59   C88   S    
N28   Ni3   S    
C69   C82   S    
N23   Ni1   S    
C8    Cl11  S    
C36   N14   A    
C12   Cl16  S    
C37   C56   A    
C19   C52   S    
C96   H26   S    
C38   C55   A    
C13   C75   S    
C44   C58   A    
C56   C72   A    
C1    C49   A    
C35   C49   A    
C8    C79   S    
C61   N29   A    
C22   H17   S    
C24   O2    S    
N31   Ni4   S    
C95   H21   S    
C25   C60   A    
C64   C92   S    
C70   C84   S    
N17   Ni7   S    
C39   N27   A    
C23   N32   A    
N15   Ni8   S    
C75   C91   S    
C3    O4    S    
C15   H10   S    
C10   C71   S    
C104  H53   S    
C80   C89   S    
C29   C64   A    
C11   Cl15  S    
N7    N24   A    
C34   Cl18  S    
C68   C85   S    
C15   C57   S    
C20   H15   S    
C17   C51   A    
C44   H34   S    
C41   C62   A    
C68   Cl2   S    
C100  O14   S    
N14   N31   A    
C3    H57   S    
C9    C92   S    
C79   C88   S    
C38   Cl22  S    
C94   Cl9   S    
C6    H64   S    
N7    Ni4   S    
C37   Cl21  S    
C25   O3    S    
C102  H44   S    
C26   N4    A    
N18   Ni6   S    
N26   Ni8   S    
C30   O7    S    
C48   H71   S    
C42   H12   S    
N16   Ni8   S    
C11   C73   S    
C14   C20   D    
C6    O7    S    
C73   Cl6   S    
C9    C70   S    
C5    H63   S    
N3    Ni2   S    
C97   O11   S    
C42   N19   A    
C76   H72   S    
C4    H58   S    
C74   Cl7   S    
C95   H22   S    
C20   C53   S    
C48   C63   A    
C28   C52   A    
C77   H2    S    
C102  H47   S    
C40   Cl23  S    
C46   H56   S    
C13   C82   S    
C34   C51   A    
C82   C91   S    
N4    N18   A    
N6    Ni3   S    
C103  H49   S    
C97   H29   S    
C7    H69   S    
C15   C19   D    
C78   H3    S    
N11   N12   A    
N4    Ni1   S    
C10   Cl14  S    
C45   H45   S    
C67   C94   S    
C13   Cl17  S    
C33   N10   A    
N1    Ni1   S    
C96   H25   S    
C47   N25   A    
C14   H9    S    
C28   N23   A    
N6    N25   A    
N32   Ni2   S    
N16   N29   A    
C75   Cl8   S    
N11   Ni6   S    
C30   N7    A    
N30   Ni3   S    
C8    C91   S    
C101  H41   S    
C35   N13   A    
N8    Ni3   S    
N1    N13   A    
C69   C88   S    
C1    O1    S    
C18   C55   S    
C46   C65   A    
C99   H35   S    
C81   C90   S    
C3    H55   S    
C98   H32   S    
C77   C86   S    
C36   C57   A    
C19   H14   S    
C40   C54   A    
C32   Cl1   S    
N5    N26   A    
N25   Ni7   S    
C72   O14   S    
C31   O8    S    
C16   H11   S    
C50   O12   S    
C45   N22   A    
C63   C91   S    
C42   C60   A    
C32   C53   A    
C6    H66   S    
C98   H33   S    
C2    C76   S    
C39   O11   S    
N27   Ni2   S    
C84   H8    S    
C67   C86   S    
C16   C22   D    
N10   N23   A    
C12   C87   S    
C36   Cl20  S    
C13   C88   S    
N2    N20   A    
C7    H68   S    
C18   H13   S    
C67   C80   S    
C21   H16   S    
C38   N16   A    
C23   O16   S    
C25   N3    A    
N12   Ni2   S    
C60   C85   S    
C47   C64   A    
C101  H42   S    
C95   H24   S    
C11   C80   S    
C43   C59   A    
C102  H46   S    
C104  O3    S    
N9    N27   A    
C10   C81   S    
N13   Ni5   S    
C7    O8    S    
N3    N19   A    
N21   Ni6   S    
C100  H40   S    
C103  H50   S    
C97   H30   S    
N19   Ni5   S    
N29   Ni4   S    
C35   Cl19  S    
N14   Ni7   S    
C26   C62   A    
C73   C89   S    
C31   N8    A    
C99   O13   S    
C93   O1    S    
C67   Cl24  S    
N2    Ni1   S    
C41   H1    S    
C32   N9    A    
C2    Cl10  S    
C4    H60   S    
C39   C53   A    
C71   C90   S    
C83   N31   A    
C7    H70   S    
C24   C59   A    
C79   H4    S    
C55   C61   A    
N21   N32   A    
N22   Ni8   S    
C103  H48   S    
C3    H54   S    
C101  H43   S    
C102  O16   S    
C9    C78   S    
N20   Ni5   S    
N24   Ni7   S    
C16   C54   S    
C4    O5    S    
C30   C65   A    
C34   N11   A    
C80   H5    S    
N17   N28   A    
C5    H61   S    
C99   H36   S    
C96   H27   S    
C93   H18   S    
C61   O13   S    
C98   H31   S    
C74   C78   S    
C83   O15   S    
C45   C66   A    
C73   C77   S    
C27   C63   A    
C70   Cl4   S    
C44   N21   A    
C84   C92   S    
C28   O10   S    
C27   N5    A    
C33   Cl12  S    
C75   C79   S    
C76   C85   S    
C37   N15   A    
C6    H65   S    
C22   C51   S    
C99   H37   S    
C57   C83   A    
