data_mof_unit_49333.cif
_audit_creation_date              2012-12-10T16:49:28-0500
_audit_creation_method            fapswitch 2.2
_symmetry_space_group_name_H-M    P1
_symmetry_Int_Tables_number       1
_space_group_crystal_system       triclinic
_cell_length_a                    19.319428
_cell_length_b                    8.667021
_cell_length_c                    7.44538
_cell_angle_alpha                 103.06752
_cell_angle_beta                  95.155357
_cell_angle_gamma                 93.238709
_cell_volume                      1205.67575134

loop_
_atom_site_label
_atom_site_type_symbol
_atom_type_description
_atom_site_fract_x
_atom_site_fract_y
_atom_site_fract_z
_atom_type_partial_charge
C1    C     C_R   0.489479 0.199054 0.452956 0.865199
C2    C     C_R   0.491949 0.797598 0.546119 0.811449
C3    C     C_2   0.468753 0.029279 0.423827 -0.041815
C4    C     C_2   0.471995 0.960516 0.569915 -0.085062
C5    C     C_R   0.367089 0.501053 0.500607 0.767502
C6    C     C_R   0.632663 0.507261 0.500612 0.815689
C7    C     C_R   0.266911 0.585297 0.673435 -0.234463
C8    C     C_R   0.737953 0.432705 0.348600 -0.272038
C9    C     C_R   0.195800 0.597847 0.691184 0.169659
C10   C     C_R   0.810237 0.434741 0.342045 0.173991
C11   C     C_R   0.147252 0.530295 0.536647 -0.011073
C12   C     C_R   0.854548 0.525554 0.496417 0.018250
C13   C     C_R   0.170441 0.459843 0.367180 -0.179743
C14   C     C_R   0.825584 0.618586 0.645874 -0.242793
C15   C     C_R   0.241563 0.450207 0.345789 0.141069
C16   C     C_R   0.753456 0.619636 0.650877 0.156720
C17   C     C_R   0.290758 0.510831 0.504443 -0.125920
C18   C     C_R   0.709007 0.520701 0.501858 -0.082526
C19   C     C_R   0.930962 0.526591 0.509489 0.408703
C20   C     C_R   0.071620 0.528611 0.542527 0.395400
Cu1   Cu    Cu3+1 0.507710 0.517380 0.684380 0.927126
Cu2   Cu    Cu3+1 0.492290 0.482620 0.315620 0.912300
H1    H     H_    0.131426 0.414162 0.250951 0.167683
H2    H     H_    0.859954 0.690614 0.761167 0.156517
N1    N     N_R   0.031340 0.391294 0.471200 -0.237202
N2    N     N_R   0.971289 0.663797 0.583203 -0.236946
N3    N     N_R   0.962269 0.390075 0.456722 -0.243926
N4    N     N_R   0.040476 0.665058 0.598152 -0.230615
N5    N     N_2   0.480680 0.456420 0.038530 -0.232220
N6    N     N_2   0.519320 0.543580 0.961470 -0.221538
O1    O     O_R   0.505010 0.286130 0.619770 -0.583740
O2    O     O_R   0.494990 0.713870 0.380230 -0.601966
O3    O     O_R   0.491990 0.256780 0.308370 -0.580429
O4    O     O_R   0.508010 0.743220 0.691630 -0.586596
O5    O     O_R   0.406650 0.514660 0.655750 -0.588572
O6    O     O_R   0.593350 0.485340 0.344250 -0.581898
O7    O     O_R   0.393640 0.485310 0.344340 -0.603439
O8    O     O_R   0.606360 0.514690 0.655660 -0.573504
H3    H     H_    0.304088 0.635630 0.793298 0.161052
H4    H     H_    0.703638 0.361006 0.232986 0.154351
C21   C     C_3   0.174113 0.679934 0.877022 -0.412740
C22   C     C_3   0.175467 0.859035 0.896737 -0.799542
H5    H     H_    0.228287 0.908046 0.880754 0.244069
H6    H     H_    0.137585 0.888064 0.790530 0.275651
H7    H     H_    0.161417 0.916113 0.036346 0.244220
H8    H     H_    0.121385 0.633272 0.897228 0.211972
H9    H     H_    0.210337 0.656482 0.990749 0.204727
C23   C     C_3   0.837156 0.343956 0.166230 -0.399978
C24   C     C_3   0.869182 0.456375 0.059479 -0.798643
H10   H     H_    0.830656 0.539723 0.028683 0.243389
H11   H     H_    0.916477 0.525581 0.139850 0.258105
H12   H     H_    0.884225 0.386633 0.926315 0.247898
H13   H     H_    0.875117 0.259994 0.197260 0.226008
H14   H     H_    0.793951 0.269013 0.072159 0.194771
C25   C     C_3   0.264619 0.375400 0.156930 -0.388402
C26   C     C_3   0.207292 0.292418 0.004503 -0.883232
H15   H     H_    0.231202 0.235580 0.878401 0.254489
H16   H     H_    0.171838 0.378562 0.966140 0.252144
H17   H     H_    0.176902 0.198910 0.050833 0.264677
H18   H     H_    0.293437 0.468100 0.104906 0.217746
H19   H     H_    0.299947 0.283801 0.176218 0.215399
C27   C     C_3   0.727078 0.731626 0.814074 -0.396857
C28   C     C_3   0.692913 0.869765 0.755268 -0.804739
H20   H     H_    0.731262 0.939594 0.696474 0.246852
H21   H     H_    0.647533 0.826882 0.650118 0.244955
H22   H     H_    0.674611 0.949132 0.877894 0.232766
H23   H     H_    0.691079 0.667351 0.884868 0.220635
H24   H     H_    0.770826 0.783914 0.922145 0.189232
C29   C     C_3   0.434525 0.939674 0.232096 -0.362377
C30   C     C_3   0.370758 0.017206 0.169585 -0.906018
H25   H     H_    0.334909 0.039272 0.279672 0.257487
H26   H     H_    0.386847 0.129748 0.134176 0.272764
H27   H     H_    0.342299 0.937382 0.043626 0.245706
H28   H     H_    0.473517 0.931550 0.130381 0.202843
H29   H     H_    0.412610 0.818391 0.229209 0.246726
C31   C     C_3   0.442931 0.036685 0.749714 -0.376785
C32   C     C_3   0.369890 0.091470 0.712590 -0.848054
H30   H     H_    0.370702 0.182963 0.629969 0.254140
H31   H     H_    0.333595 0.988567 0.637107 0.253473
H32   H     H_    0.349327 0.144939 0.844433 0.229594
H33   H     H_    0.479131 0.134543 0.835344 0.227992
H34   H     H_    0.437145 0.948543 0.835058 0.220305
H35   H     H_    0.441238 0.386672 0.950286 0.227922
H36   H     H_    0.557440 0.617259 0.050785 0.224070

loop_
_geom_bond_atom_site_label_1
_geom_bond_atom_site_label_2
_ccdc_geom_bond_type
C25   C26   S    
C28   H21   S    
Cu2   N5    S    
C5    O7    A    
C21   C22   S    
C1    O3    A    
C32   H30   S    
C23   H14   S    
Cu1   O1    S    
N5    N6    D    
Cu2   O2    S    
C27   H23   S    
C3    C29   S    
N5    H35   S    
C5    C17   S    
C20   N1    A    
C25   H19   S    
C1    O1    A    
C26   H15   S    
C13   H1    S    
C2    O2    A    
C14   H2    S    
C19   N2    A    
Cu1   O8    S    
C6    O6    A    
C7    C17   A    
C21   H8    S    
C6    O8    A    
C30   H25   S    
C19   N3    A    
C2    O4    A    
C28   H22   S    
Cu1   Cu2   S    
C22   H6    S    
C32   H31   S    
C23   H13   S    
C6    C18   S    
C11   C20   S    
C31   C32   S    
C31   H34   S    
Cu1   O4    S    
C20   N4    A    
C24   H11   S    
Cu2   O7    S    
C8    C18   A    
C1    C3    S    
C22   H7    S    
C15   C25   S    
C2    C4    S    
C27   C28   S    
C24   H12   S    
C30   H27   S    
C21   H9    S    
C29   H28   S    
C9    C11   A    
C10   C12   A    
C8    C10   A    
C23   C24   S    
C12   C14   A    
C13   C15   A    
C10   C23   S    
C14   C16   A    
C22   H5    S    
C3    C4    D    
C32   H32   S    
C15   C17   A    
Cu2   O3    S    
C9    C21   S    
C31   H33   S    
Cu1   O5    S    
N1    N3    A    
Cu2   O6    S    
Cu1   N6    S    
N2    N4    A    
C26   H17   S    
C27   H24   S    
C11   C13   A    
C5    O5    A    
C12   C19   S    
C26   H16   S    
C29   H29   S    
N6    H36   S    
C29   C30   S    
C4    C31   S    
C28   H20   S    
C7    C9    A    
C16   C18   A    
C24   H10   S    
C7    H3    S    
C30   H26   S    
C8    H4    S    
C25   H18   S    
C16   C27   S    
