data_mof_unit_44547.cif
_audit_creation_date              2012-12-10T18:31:49-0500
_audit_creation_method            fapswitch 2.2
_symmetry_space_group_name_H-M    P1
_symmetry_Int_Tables_number       1
_space_group_crystal_system       triclinic
_cell_length_a                    10.654903
_cell_length_b                    14.969144
_cell_length_c                    15.380416
_cell_angle_alpha                 81.60626
_cell_angle_beta                  89.304093
_cell_angle_gamma                 104.43181
_cell_volume                      2347.22409963

loop_
_atom_site_label
_atom_site_type_symbol
_atom_type_description
_atom_site_fract_x
_atom_site_fract_y
_atom_site_fract_z
_atom_type_partial_charge
C1    C     C_R   0.480162 0.441181 0.662487 0.958001
C2    C     C_R   0.537169 0.449148 0.897390 0.040236
C3    C     C_R   0.572666 0.364530 0.923411 0.163925
C4    C     C_R   0.742282 0.501272 0.497696 0.816675
C5    C     C_R   0.568388 0.520102 0.950507 0.096233
C6    C     C_R   0.593758 0.496005 0.039310 0.065666
C7    C     C_R   0.619290 0.408191 0.066886 -0.201768
C8    C     C_R   0.614590 0.345068 0.008088 -0.197057
C9    C     C_R   0.579677 0.614734 0.916323 -0.157836
C10   C     C_R   0.596466 0.681807 0.971834 -0.206683
C11   C     C_R   0.595035 0.654676 0.062664 0.158917
C12   C     C_3   0.121944 0.499924 0.495614 0.097793
C13   C     C_R   0.591165 0.560742 0.097081 0.099128
C14   C     C_R   0.592282 0.719038 0.119856 -0.162698
C15   C     C_R   0.573596 0.688815 0.210256 -0.183389
C16   C     C_R   0.524321 0.558579 0.337490 0.858682
C17   C     C_R   0.571208 0.532017 0.187820 -0.215261
C18   C     C_R   0.711211 0.846684 0.623877 -0.298096
C19   C     C_R   0.670638 0.755323 0.607911 0.039864
C20   C     C_R   0.513965 0.794490 0.511473 -0.017775
C21   C     C_R   0.558743 0.890073 0.518224 0.022223
C22   C     C_R   0.654831 0.914263 0.579619 0.178292
C23   C     C_3   0.105692 0.591388 0.439960 -0.359229
C24   C     C_R   0.507320 0.960988 0.469888 -0.002942
C25   C     C_R   0.535642 0.050776 0.496704 0.084854
C26   C     C_R   0.631515 0.071553 0.558920 -0.204735
C27   C     C_R   0.692197 0.005124 0.597507 -0.193819
C28   C     C_R   0.258475 0.500333 0.497335 0.871007
C29   C     C_R   0.431521 0.946320 0.394979 -0.125992
C30   C     C_R   0.357871 0.009128 0.363099 -0.093191
C31   C     C_R   0.375524 0.094297 0.395791 0.061756
C32   C     C_R   0.468895 0.117327 0.459668 -0.000277
C33   C     C_R   0.307667 0.160184 0.361395 -0.258975
C34   C     C_3   0.069870 0.493476 0.591258 -0.423338
C35   C     C_R   0.334964 0.246998 0.388046 0.016148
C36   C     C_R   0.491021 0.207039 0.484209 0.016121
C37   C     C_3   0.901249 0.417436 0.451370 -0.164627
C38   C     C_3   0.044196 0.415571 0.454563 -0.453567
C39   C     C_3   0.963054 0.594786 0.444941 -0.334527
C40   C     C_3   0.923116 0.486415 0.593169 -0.200793
C41   C     C_3   0.879294 0.501279 0.496262 -0.024398
C42   C     C_2   0.854502 0.415578 0.358435 0.938519
C43   C     C_2   0.363094 0.509205 0.815526 0.891235
C44   C     C_2   0.269553 0.988551 0.290560 0.961454
C45   C     C_R   0.484437 0.404531 0.755428 -0.110649
C46   C     C_2   0.447287 0.876648 0.339282 0.912593
C47   C     C_2   0.887947 0.549892 0.652779 0.930924
C48   C     C_R   0.556367 0.594414 0.243996 -0.074183
C49   C     C_R   0.565860 0.301232 0.864019 -0.167447
C50   C     C_R   0.529209 0.323939 0.778657 -0.171906
C51   C     C_R   0.469270 0.459036 0.819922 -0.130165
H1    H     H_    0.123413 0.556434 0.618064 0.215892
H2    H     H_    0.575512 0.637125 0.846443 0.139040
H3    H     H_    0.599149 0.791652 0.094547 0.160455
H4    H     H_    0.765836 0.024330 0.644220 0.143992
H5    H     H_    0.285305 0.298591 0.360372 0.137590
H6    H     H_    0.786381 0.864481 0.669844 0.156577
H7    H     H_    0.715888 0.702829 0.639505 0.162452
H8    H     H_    0.431060 0.767797 0.474917 0.134943
H9    H     H_    0.664057 0.139099 0.578951 0.128886
H10   H     H_    0.236153 0.146678 0.312455 0.170882
H11   H     H_    0.087151 0.417006 0.387774 0.191829
H12   H     H_    0.954765 0.654695 0.477486 0.228560
H13   H     H_    0.928735 0.609127 0.377711 0.206019
H14   H     H_    0.138262 0.594911 0.370215 0.197205
H15   H     H_    0.872463 0.413858 0.623522 0.128045
H16   H     H_    0.088371 0.431465 0.633499 0.172261
H17   H     H_    0.728832 0.347598 0.278401 0.332253
H18   H     H_    0.166033 0.653971 0.464312 0.206180
H19   H     H_    0.237820 0.565797 0.743877 0.342783
H20   H     H_    0.650257 0.389315 0.132044 0.148594
H21   H     H_    0.559439 0.231435 0.531584 0.113816
H22   H     H_    0.251507 0.976507 0.162186 0.350519
H23   H     H_    0.640533 0.280072 0.029584 0.159503
H24   H     H_    0.051234 0.349028 0.495012 0.181002
H25   H     H_    0.361670 0.768993 0.277056 0.335449
H26   H     H_    0.781395 0.559819 0.758669 0.336182
H27   H     H_    0.558246 0.459452 0.215034 0.161729
H28   H     H_    0.568741 0.738252 0.253497 0.213592
H29   H     H_    0.602290 0.753677 0.944188 0.149604
H30   H     H_    0.596454 0.237429 0.881784 0.140627
H31   H     H_    0.539077 0.279884 0.730351 0.151280
H32   H     H_    0.844824 0.351019 0.491478 0.138727
N1    N     N_R   0.573860 0.731700 0.552730 -0.107357
N2    N     N_R   0.426060 0.268290 0.447230 -0.099356
O1    O     O_R   0.462770 0.383110 0.605620 -0.635026
O2    O     O_R   0.751669 0.342158 0.342374 -0.790990
O3    O     O_2   0.318675 0.526158 0.883242 -0.603301
O4    O     O_R   0.307216 0.531549 0.736326 -0.813578
O5    O     O_2   0.152074 0.968734 0.305343 -0.601946
O6    O     O_R   0.321233 0.992046 0.205807 -0.783873
O7    O     O_2   0.556314 0.875821 0.314539 -0.622704
O8    O     O_R   0.338407 0.812645 0.315391 -0.806805
O9    O     O_2   0.938004 0.633911 0.639764 -0.644887
O10   O     O_R   0.798274 0.511176 0.723749 -0.818769
O11   O     O_R   0.510160 0.531900 0.639510 -0.572897
O12   O     O_R   0.661510 0.425600 0.483070 -0.613464
O13   O     O_R   0.708900 0.574390 0.516960 -0.608905
O14   O     O_R   0.489840 0.468100 0.360490 -0.612608
O15   O     O_R   0.537230 0.616890 0.394380 -0.607423
O16   O     O_R   0.291100 0.425610 0.483040 -0.632768
O17   O     O_R   0.338490 0.574400 0.516930 -0.609309
O18   O     O_2   0.907287 0.476159 0.297764 -0.642033
Zn1   Zn    Zn3+2 0.468350 0.400660 0.477370 0.955309
Zn2   Zn    Zn3+2 0.531650 0.599340 0.522630 0.991301

loop_
_geom_bond_atom_site_label_1
_geom_bond_atom_site_label_2
_ccdc_geom_bond_type
C40   C47   S    
O11   Zn2   S    
C4    O13   A    
C35   N2    A    
C23   H18   S    
C17   C48   A    
O1    Zn1   S    
C42   O18   D    
C16   C48   S    
C3    C49   A    
C7    C8    A    
C39   C41   S    
C39   H13   S    
C12   C23   S    
C26   C27   A    
C43   O4    S    
O13   Zn2   S    
C12   C28   S    
C34   C40   S    
C43   O3    D    
C32   C36   A    
C37   C38   S    
C7    H20   S    
C30   C31   A    
C11   C14   A    
C27   H4    S    
C46   O7    D    
C4    C41   S    
C45   C51   A    
O17   Zn2   S    
C18   C19   A    
C49   H30   S    
C37   C42   S    
C24   C29   A    
C28   O16   A    
C15   H28   S    
C31   C33   A    
C9    C10   A    
C25   C32   A    
O14   Zn1   S    
C40   H15   S    
C4    O12   A    
C12   C38   S    
C30   C44   S    
C15   C48   A    
C38   H24   S    
C19   H7    S    
C24   C25   A    
H22   O6    S    
C3    C8    A    
C10   C11   A    
C10   H29   S    
C16   O15   A    
C25   C26   A    
H26   O10   S    
C5    C9    A    
C29   C30   A    
H25   O8    S    
C18   H6    S    
C31   C32   A    
C8    H23   S    
N1    Zn2   S    
O15   Zn2   S    
C20   H8    S    
N2    Zn1   S    
C44   O6    S    
C40   C41   S    
C14   H3    S    
O16   Zn1   S    
C22   C27   A    
C20   N1    A    
H19   O4    S    
C9    H2    S    
C12   C34   S    
C19   N1    A    
C44   O5    D    
C50   H31   S    
C1    O1    A    
C35   H5    S    
C18   C22   A    
C34   H16   S    
C16   O14   A    
C6    C7    A    
C36   N2    A    
C39   H12   S    
C34   H1    S    
C13   C17   A    
C29   C46   S    
C23   H14   S    
C2    C3    A    
C6    C13   A    
C11   C13   A    
C1    C45   S    
C5    C6    A    
C46   O8    S    
C45   C50   A    
C43   C51   S    
C1    O11   A    
C23   C39   S    
C17   H27   S    
C33   C35   A    
C47   O9    D    
C37   C41   S    
O12   Zn1   S    
C2    C51   A    
C2    C5    A    
C28   O17   A    
C20   C21   A    
C33   H10   S    
C49   C50   A    
C21   C24   A    
H17   O2    S    
C47   O10   S    
C14   C15   A    
C37   H32   S    
C42   O2    S    
C21   C22   A    
C26   H9    S    
C36   H21   S    
C38   H11   S    
