data_mof_unit_41829.cif
_audit_creation_date              2012-12-11T16:22:28-0500
_audit_creation_method            fapswitch 2.2
_symmetry_space_group_name_H-M    P1
_symmetry_Int_Tables_number       1
_space_group_crystal_system       triclinic
_cell_length_a                    16.911807
_cell_length_b                    16.843344
_cell_length_c                    19.54408
_cell_angle_alpha                 117.71903
_cell_angle_beta                  62.557313
_cell_angle_gamma                 100.610389
_cell_volume                      4370.46011777

loop_
_atom_site_label
_atom_site_type_symbol
_atom_type_description
_atom_site_fract_x
_atom_site_fract_y
_atom_site_fract_z
_atom_type_partial_charge
C1    C     C_R   0.030396 0.759537 0.018767 -0.094303
C2    C     C_R   0.757633 0.453989 0.244097 0.013997
C3    C     C_R   0.743737 0.456164 0.933469 0.109776
C4    C     C_R   0.052162 0.740331 0.242254 0.037632
C5    C     C_R   0.262479 0.529605 0.976605 0.459674
C6    C     C_R   0.965553 0.248327 0.828794 -0.136735
C7    C     C_R   0.171094 0.473441 0.750796 -0.125712
C8    C     C_R   0.026317 0.314494 0.076234 -0.066316
C9    C     C_R   0.948829 0.246787 0.001194 -0.133834
C10   C     C_R   0.250017 0.539797 0.826355 -0.117804
C11   C     C_R   0.194259 0.442234 0.042654 -0.221488
C12   C     C_R   0.759444 0.429181 0.165582 -0.115881
C13   C     C_R   0.031034 0.325087 0.750957 -0.141215
C14   C     C_R   0.276942 0.461732 0.991462 0.018765
C15   C     C_R   0.016238 0.239438 0.746447 0.081863
C16   C     C_R   0.257047 0.491039 0.744088 0.112584
C17   C     C_R   0.986959 0.234005 0.044958 0.047020
C18   C     C_R   0.125838 0.835705 0.418787 -0.056530
C19   C     C_R   0.103383 0.773308 0.353376 -0.204652
C20   C     C_R   0.088553 0.801084 0.302593 0.133793
C21   C     C_R   0.106127 0.889065 0.311508 -0.169237
C22   C     C_R   0.128018 0.951254 0.376939 -0.196217
C23   C     C_R   0.816707 0.507327 0.911233 -0.135849
C24   C     C_R   0.132005 0.926083 0.434300 0.122134
C25   C     C_R   0.166704 0.073482 0.527804 -0.235489
C26   C     C_R   0.134832 0.152721 0.602419 -0.154796
C27   C     C_R   0.052739 0.155281 0.670300 0.085719
C28   C     C_R   0.005558 0.076954 0.665483 -0.356809
C29   C     C_R   0.035292 0.997978 0.589884 0.560818
C30   C     C_R   0.115875 0.996673 0.519868 -0.047448
C31   C     C_R   0.538038 0.397308 0.383539 -0.324361
C32   C     C_R   0.602350 0.422860 0.322216 0.720068
C33   C     C_R   0.692428 0.420284 0.304728 -0.329959
C34   C     C_R   0.008876 0.661721 0.240916 -0.130921
C35   C     C_R   0.717813 0.384271 0.344147 0.750184
C36   C     C_R   0.652482 0.361968 0.408225 -0.364729
C37   C     C_R   0.562409 0.371594 0.429931 -0.018264
C38   C     C_R   0.498710 0.456667 0.584848 -0.288843
C39   C     C_R   0.421953 0.493184 0.660269 0.763853
C40   C     C_R   0.339756 0.453118 0.666004 -0.084669
C41   C     C_R   0.337187 0.373464 0.596788 -0.250790
C42   C     C_R   0.413902 0.338414 0.520766 -0.165623
C43   C     C_R   0.494108 0.382026 0.513720 0.119216
C44   C     C_R   0.677768 0.425446 0.898423 0.014456
C45   C     C_R   0.750409 0.430604 0.988431 -0.101067
C46   C     C_R   0.362343 0.418272 0.958677 0.029046
C47   C     C_R   0.453943 0.339104 0.974036 0.784403
C48   C     C_R   0.370220 0.365237 0.993421 -0.330888
C49   C     C_R   0.437807 0.433051 0.894549 -0.131653
C50   C     C_R   0.521963 0.415412 0.881252 -0.143566
C51   C     C_R   0.529662 0.371067 0.924162 -0.108631
C52   C     C_R   0.609927 0.371292 0.927109 -0.178815
C53   C     C_R   0.674111 0.459749 0.846750 -0.331827
C54   C     C_R   0.596958 0.452302 0.835888 0.800843
C55   C     C_R   0.939094 0.034082 0.849684 -0.014248
C56   C     C_R   0.072271 0.740718 0.165558 -0.169899
C57   C     C_R   0.952712 0.854280 0.991072 -0.057666
C58   C     C_R   0.836153 0.928626 0.999672 -0.151837
C59   C     C_R   0.862320 0.874286 0.022274 -0.247654
C60   C     C_R   0.018370 0.895841 0.942430 0.495796
C61   C     C_R   0.992206 0.947740 0.915815 -0.040014
C62   C     C_R   0.900084 0.962644 0.943495 -0.062761
C63   C     C_R   0.873946 0.007007 0.910584 0.527373
C64   C     C_R   0.029361 0.022237 0.824434 -0.236401
C65   C     C_R   0.056077 0.979609 0.857290 -0.159722
C66   C     C_R   0.836255 0.498921 0.243548 0.539545
C67   C     C_R   0.949471 0.688681 0.944456 -0.119368
C68   C     C_R   0.975044 0.772462 0.988836 0.124059
H1    H     H_    0.066158 0.809885 0.051939 0.091390
H2    H     H_    0.940770 0.195367 0.848580 0.103146
H3    H     H_    0.152441 0.445030 0.698582 0.096801
H4    H     H_    0.052177 0.332390 0.122621 0.116355
H5    H     H_    0.903279 0.202486 0.978011 0.096833
H6    H     H_    0.303763 0.567982 0.843384 0.221175
H7    H     H_    0.180177 0.395870 0.070064 0.129506
H8    H     H_    0.061985 0.341198 0.697266 0.093462
H9    H     H_    0.129679 0.815392 0.462283 0.142843
H10   H     H_    0.093592 0.704796 0.345472 0.121304
H11   H     H_    0.096286 0.911713 0.272322 0.118573
H12   H     H_    0.715871 0.383023 0.139711 0.157536
H13   H     H_    0.132038 0.020944 0.388274 0.131659
H14   H     H_    0.227770 0.073655 0.473956 0.146913
H15   H     H_    0.173246 0.212374 0.606306 0.118026
H16   H     H_    0.942624 0.078081 0.718149 0.151032
H17   H     H_    0.468430 0.406701 0.401018 0.182853
H18   H     H_    0.671592 0.342150 0.444094 0.186333
H19   H     H_    0.559946 0.492527 0.579064 0.175248
H20   H     H_    0.839519 0.527973 0.860616 0.099257
H21   H     H_    0.275415 0.339774 0.600222 0.141372
H22   H     H_    0.409461 0.281557 0.465555 0.139620
H23   H     H_    0.613937 0.339505 0.962329 0.182588
H24   H     H_    0.727500 0.498144 0.820165 0.159370
H25   H     H_    0.312634 0.348418 0.039533 0.161785
H26   H     H_    0.431664 0.466646 0.861565 0.225539
H27   H     H_    0.995879 0.633359 0.284331 0.139522
H28   H     H_    0.078694 0.044808 0.777987 0.162075
H29   H     H_    0.765548 0.938975 0.022046 0.158006
H30   H     H_    0.126750 0.969152 0.834536 0.171835
H31   H     H_    0.811505 0.842134 0.059273 0.155976
H32   H     H_    0.712738 0.381240 0.010281 0.102508
H33   H     H_    0.117104 0.784943 0.139979 0.083400
H34   H     H_    0.911464 0.673167 0.908195 0.112607
N1    N     N_R   0.034930 0.670790 0.995440 -0.050469
N2    N     N_R   0.954880 0.335850 0.881080 -0.040988
N3    N     N_R   0.115060 0.502430 0.834090 -0.040273
N4    N     N_R   0.014160 0.371890 0.051540 -0.044313
N5    N     N_R   0.965070 0.329210 0.004560 -0.044509
N6    N     N_R   0.164150 0.545120 0.881070 -0.064541
N7    N     N_R   0.133000 0.490740 0.051540 -0.062571
N8    N     N_R   0.996220 0.383590 0.834100 -0.038525
N9    N     N_R   0.835850 0.454880 0.118930 -0.087993
N10   N     N_R   0.867000 0.509260 0.948460 -0.044609
N11   N     N_R   0.003780 0.616410 0.165900 -0.038669
N12   N     N_R   0.825670 0.461520 0.995440 -0.043534
N13   N     N_R   0.045120 0.664150 0.118920 -0.046684
N14   N     N_R   0.884940 0.497570 0.165910 -0.100931
N15   N     N_R   0.985840 0.628110 0.948460 -0.044966
N16   N     N_R   0.174330 0.538480 0.004560 -0.114264
Ni1   Ni    Ni4+2 0.103690 0.603690 0.000000 0.200572
Ni2   Ni    Ni4+2 0.896310 0.396310 0.000000 0.204194
Ni3   Ni    Ni4+2 0.991110 0.505800 0.892250 0.219842
Ni4   Ni    Ni4+2 0.008890 0.494200 0.107750 0.249147
O1    O     O_3   0.983528 0.923177 0.582887 -0.634901
C69   C     C_3   0.911131 0.935501 0.570974 0.277317
H35   H     H_    0.933523 0.957798 0.519480 0.088187
H36   H     H_    0.861420 0.985669 0.631693 0.104640
C70   C     C_3   0.865796 0.846833 0.544565 -0.871746
H37   H     H_    0.842044 0.822529 0.594557 0.268592
H38   H     H_    0.807895 0.855863 0.536250 0.209646
H39   H     H_    0.913439 0.796001 0.482970 0.251559
F1    F     F_    0.575715 0.456599 0.284796 -0.687534
F2    F     F_    0.804845 0.372312 0.322310 -0.667595
F3    F     F_    0.427811 0.571617 0.723923 -0.701614
F4    F     F_    0.460308 0.293277 0.013128 -0.702070
F5    F     F_    0.591789 0.492310 0.791587 -0.684616
O2    O     O_3   0.785398 0.014571 0.929315 -0.628346
C71   C     C_3   0.743992 0.092727 0.005991 0.234998
H40   H     H_    0.783908 0.126038 0.043688 0.062048
H41   H     H_    0.681251 0.073253 0.048342 0.134500
C72   C     C_3   0.719864 0.159858 0.986067 -0.879205
H42   H     H_    0.673343 0.129726 0.955651 0.279664
H43   H     H_    0.687031 0.220986 0.046188 0.217969
H44   H     H_    0.780590 0.179189 0.941748 0.229602
O3    O     O_3   0.107362 0.873356 0.909429 -0.625252
C73   C     C_3   0.141960 0.936990 0.966507 0.219674
H45   H     H_    0.099236 0.946897 0.033799 0.077963
H46   H     H_    0.148076 0.002743 0.964211 0.100746
C74   C     C_3   0.234118 0.904052 0.940128 -0.822037
H47   H     H_    0.279267 0.895372 0.873912 0.265027
H48   H     H_    0.262238 0.953653 0.984394 0.207946
H49   H     H_    0.229705 0.838763 0.942677 0.247999
O4    O     O_3   0.871493 0.517718 0.300390 -0.594904
C75   C     C_3   0.819063 0.587287 0.379992 0.257117
H50   H     H_    0.747279 0.571524 0.404806 0.092727
H51   H     H_    0.825749 0.651166 0.374183 0.074050
C76   C     C_3   0.851269 0.600841 0.445496 -0.801196
H52   H     H_    0.921952 0.620289 0.425036 0.233649
H53   H     H_    0.809828 0.654618 0.508683 0.209141
H54   H     H_    0.845523 0.537768 0.452140 0.283628
O5    O     O_3   0.325609 0.591104 0.958253 -0.643394
C77   C     C_3   0.287586 0.679147 0.007668 0.232577
H55   H     H_    0.260308 0.697478 0.077231 0.108393
H56   H     H_    0.234259 0.686352 0.992467 0.088837
C78   C     C_3   0.359325 0.744427 0.987288 -0.790592
H57   H     H_    0.387422 0.728211 0.918274 0.284904
H58   H     H_    0.330121 0.814003 0.026050 0.189069
H59   H     H_    0.413626 0.740101 0.002505 0.262341

loop_
_geom_bond_atom_site_label_1
_geom_bond_atom_site_label_2
_ccdc_geom_bond_type
C58   C62   A    
C41   H21   S    
C26   H15   S    
C31   H17   S    
C11   N7    A    
C59   H31   S    
C41   C42   A    
C3    C23   A    
C35   C36   A    
C72   H44   S    
C2    C12   A    
C77   C78   S    
N10   N12   A    
C73   H45   S    
O1    C69   S    
C14   C46   S    
C53   C54   A    
C34   N11   A    
C23   N10   A    
C71   H41   S    
C46   C49   A    
C26   C27   A    
C62   C63   A    
C66   N14   A    
C18   C24   A    
N1    Ni1   S    
C28   C29   A    
C72   H43   S    
C65   H30   S    
N8    Ni3   S    
C7    H3    S    
C38   C39   A    
C11   C14   A    
N7    Ni4   S    
C57   C59   A    
C28   H16   S    
N4    N5    A    
C12   H12   S    
C1    C68   A    
C18   C19   A    
N15   Ni3   S    
N16   Ni1   S    
C73   H46   S    
C6    C15   A    
C10   N6    A    
C45   N12   A    
N11   Ni4   S    
C47   C48   A    
C55   C63   A    
C74   H49   S    
N9    N14   A    
C6    N2    A    
C49   H26   S    
C75   H51   S    
C1    N1    A    
C44   C52   A    
C21   C22   A    
C4    C56   A    
N6    Ni1   S    
C21   H11   S    
N1    N15   A    
C58   H29   S    
C9    H5    S    
C34   H27   S    
N12   Ni2   S    
C44   C53   A    
C77   H56   S    
N7    N16   A    
C77   H55   S    
C4    C34   A    
C78   H59   S    
C71   C72   S    
C46   C48   A    
C3    C44   S    
C8    H4    S    
C48   H25   S    
C67   C68   A    
C22   H13   S    
C72   H42   S    
C64   H28   S    
C39   C40   A    
O3    C73   S    
C57   C60   A    
C47   C51   A    
C36   H18   S    
C58   C59   A    
C3    C45   A    
C1    H1    S    
C51   C52   A    
N9    Ni2   S    
C42   H22   S    
C76   H52   S    
C37   C43   S    
C19   H10   S    
C70   H38   S    
C66   O4    S    
C29   C30   A    
C61   C65   A    
C15   C27   S    
C31   C32   A    
C13   H8    S    
C5    O5    S    
C55   C64   A    
N4    Ni4   S    
C53   H24   S    
C7    N3    A    
C50   C51   A    
N3    Ni3   S    
C50   C54   A    
N3    N6    A    
C74   H47   S    
C75   C76   S    
C67   N15   A    
C13   N8    A    
C5    C14   A    
N14   Ni4   S    
C16   C40   S    
C69   C70   S    
C2    C33   S    
C9    C17   A    
C40   C41   A    
N13   Ni1   S    
C23   H20   S    
C13   C15   A    
C47   F4    S    
C25   H14   S    
C22   C24   A    
C42   C43   A    
C57   C68   S    
C70   H37   S    
N5    Ni2   S    
C73   C74   S    
C69   H36   S    
C39   F3    S    
C25   C30   A    
C6    H2    S    
C78   H57   S    
C20   C21   A    
C76   H54   S    
C7    C16   A    
C74   H48   S    
O2    C71   S    
C2    C66   A    
C45   H32   S    
C8    N4    A    
C56   H33   S    
C9    N5    A    
C71   H40   S    
C5    N16   A    
C8    C17   A    
C38   H19   S    
C63   O2    S    
C19   C20   A    
C76   H53   S    
C25   C26   A    
C70   H39   S    
C38   C43   A    
C11   H7    S    
C32   C33   A    
N2    N8    A    
C10   H6    S    
C18   H9    S    
C54   F5    S    
C29   O1    S    
C64   C65   A    
C78   H58   S    
C33   C35   A    
C56   N13   A    
C32   F1    S    
C61   C62   A    
O5    C77   S    
C24   C30   S    
C4    C20   S    
C31   C37   A    
N10   Ni3   S    
O4    C75   S    
C36   C37   A    
C49   C50   A    
C27   C28   A    
C60   C61   A    
C52   H23   S    
C10   C16   A    
N2    Ni2   S    
C75   H50   S    
C35   F2    S    
C12   N9    A    
C60   O3    S    
C67   H34   S    
C69   H35   S    
N11   N13   A    
