data_mof_unit_66542.cif
_audit_creation_date              2012-12-10T16:46:48-0500
_audit_creation_method            fapswitch 2.2
_symmetry_space_group_name_H-M    P1
_symmetry_Int_Tables_number       1
_space_group_crystal_system       triclinic
_cell_length_a                    15.877184
_cell_length_b                    8.865095
_cell_length_c                    7.598902
_cell_angle_alpha                 102.887761
_cell_angle_beta                  96.584775
_cell_angle_gamma                 94.730205
_cell_volume                      1029.2783642

loop_
_atom_site_label
_atom_site_type_symbol
_atom_type_description
_atom_site_fract_x
_atom_site_fract_y
_atom_site_fract_z
_atom_type_partial_charge
C1    C     C_R   0.494252 0.199802 0.453961 0.808993
C2    C     C_3   0.957194 0.422295 0.657923 0.714572
C3    C     C_3   0.916446 0.492090 0.494060 -0.196027
C4    C     C_3   0.960336 0.662526 0.504049 0.174223
C5    C     C_3   0.060472 0.669338 0.504094 0.505241
C6    C     C_1   0.824728 0.495497 0.505204 0.113976
C7    C     C_1   0.175243 0.491093 0.486504 0.191256
C8    C     C_1   0.250890 0.492028 0.491532 -0.135558
C9    C     C_2   0.479866 0.031125 0.435309 0.203671
C10   C     C_2   0.519547 0.968661 0.564886 0.207411
C11   C     C_R   0.340587 0.496558 0.497756 0.790909
C12   C     C_R   0.505506 0.800129 0.546039 0.808180
C13   C     C_R   0.659517 0.500221 0.501954 0.800972
C14   C     C_3   0.057321 0.430966 0.659055 0.350692
C15   C     C_3   0.029866 0.396263 0.298760 0.220135
C16   C     C_3   0.929887 0.386280 0.299215 0.603379
C17   C     C_1   0.749308 0.498097 0.507007 -0.204761
C18   C     C_3   0.083668 0.494118 0.488812 -0.279603
Cu1   Cu    Cu3+1 0.509300 0.517380 0.684380 1.024995
Cu2   Cu    Cu3+1 0.490700 0.482620 0.315620 1.024834
H1    H     H_    0.038832 0.476929 0.210025 0.284341
H2    H     H_    0.947042 0.744037 0.625459 0.102234
N1    N     N_2   0.476670 0.456430 0.038530 0.142357
N2    N     N_2   0.523330 0.543570 0.961470 0.151037
O1    O     O_R   0.506050 0.286130 0.619770 -0.521986
O2    O     O_R   0.490330 0.256780 0.308370 -0.618877
O3    O     O_R   0.387300 0.514690 0.655770 -0.549845
O4    O     O_R   0.371580 0.485340 0.344370 -0.606426
O5    O     O_R   0.509670 0.743220 0.691630 -0.617491
O6    O     O_R   0.493950 0.713870 0.380230 -0.516718
O7    O     O_R   0.628420 0.514660 0.655630 -0.609677
O8    O     O_R   0.612700 0.485310 0.344230 -0.568307
O9    O     O_3   0.924704 0.260665 0.611477 -0.598377
C19   C     C_3   0.903116 0.196993 0.757877 0.015097
H3    H     H_    0.840405 0.230050 0.793387 0.174003
H4    H     H_    0.953337 0.230677 0.878078 0.267300
H5    H     H_    0.896482 0.068498 0.714883 0.117879
Br1   Br    Br    0.121253 0.540059 0.895959 -0.444399
O10   O     O_3   0.935552 0.489666 0.836130 -0.547590
C20   C     C_3   0.926868 0.649644 0.888194 -0.245867
H6    H     H_    0.986765 0.723135 0.893260 0.210083
H7    H     H_    0.914169 0.676457 0.029415 0.272805
H8    H     H_    0.869435 0.681649 0.814405 0.115664
O11   O     O_3   0.921439 0.712377 0.353867 -0.552302
C21   C     C_3   0.926002 0.874650 0.384120 -0.200315
H9    H     H_    0.978246 0.938870 0.491302 0.219803
H10   H     H_    0.863472 0.911646 0.417015 0.193719
H11   H     H_    0.938951 0.902675 0.254912 0.213817
O12   O     O_3   0.410378 0.945165 0.316994 -0.622319
C22   C     C_3   0.425642 0.927332 0.134830 -0.186765
H12   H     H_    0.494152 0.922668 0.118204 0.167566
H13   H     H_    0.400273 0.021724 0.078344 0.153366
H14   H     H_    0.390479 0.815775 0.053025 0.209154
O13   O     O_3   0.588553 0.054310 0.684758 -0.617973
C23   C     C_3   0.569754 0.081096 0.865360 -0.190532
H15   H     H_    0.598065 0.996283 0.934384 0.147634
H16   H     H_    0.500310 0.077616 0.875937 0.165994
H17   H     H_    0.600071 0.198636 0.940308 0.196723
O14   O     O_3   0.431693 0.333086 0.918820 -0.521016
C24   C     C_3   0.350038 0.314291 0.969627 -0.085527
H18   H     H_    0.308175 0.232848 0.854856 0.173596
H19   H     H_    0.321153 0.426109 0.995627 0.192083
H20   H     H_    0.351501 0.260822 0.088133 0.159012
O15   O     O_3   0.566339 0.669290 0.080731 -0.495832
C25   C     C_3   0.645203 0.699761 0.022552 -0.177851
H21   H     H_    0.638523 0.755367 0.906203 0.179346
H22   H     H_    0.676479 0.592213 0.986846 0.138339
H23   H     H_    0.687475 0.781816 0.136118 0.142361
Br2   Br    Br    0.101454 0.233427 0.675884 -0.516653
O16   O     O_3   0.061232 0.272363 0.178922 -0.547059
C26   C     C_3   0.088505 0.152166 0.254437 -0.144871
H24   H     H_    0.041548 0.111023 0.333202 0.205088
H25   H     H_    0.153191 0.186345 0.332244 0.171617
H26   H     H_    0.093917 0.051797 0.140959 0.207910
Br3   Br    Br    0.877756 0.169212 0.238043 -0.630111
O17   O     O_3   0.896744 0.446634 0.149072 -0.525142
C27   C     C_3   0.806879 0.446053 0.114860 -0.173107
H27   H     H_    0.788437 0.559541 0.184139 0.177921
H28   H     H_    0.768320 0.350785 0.151335 0.170359
H29   H     H_    0.788384 0.434959 0.967248 0.169773
Br4   Br    Br    0.114684 0.829125 0.726215 -0.572042
O18   O     O_3   0.079119 0.721764 0.344892 -0.556832
C28   C     C_3   0.159672 0.807885 0.358578 -0.145985
H30   H     H_    0.212244 0.763384 0.433249 0.171762
H31   H     H_    0.156870 0.931878 0.423865 0.187563
H32   H     H_    0.175529 0.803615 0.219463 0.212998

loop_
_geom_bond_atom_site_label_1
_geom_bond_atom_site_label_2
_ccdc_geom_bond_type
C15   C18   S    
C23   H15   S    
C12   O5    A    
C19   H5    S    
C14   C18   S    
C13   O8    A    
Cu1   Cu2   S    
C3    C6    S    
Cu1   O7    S    
O12   C22   S    
C7    C8    T    
Cu2   O6    S    
C27   H27   S    
N1    O14   S    
C24   H20   S    
C27   H29   S    
C15   C16   S    
C16   Br3   S    
C5    Br4   S    
C24   H19   S    
C19   H3    S    
C21   H10   S    
C6    C17   T    
C2    O10   S    
C20   H8    S    
C25   H22   S    
C22   H13   S    
N1    N2    D    
O16   C26   S    
Cu1   O3    S    
C9    C10   D    
C25   H23   S    
C20   H7    S    
C2    C14   S    
O14   C24   S    
N2    O15   S    
C1    O1    A    
C10   O13   S    
O9    C19   S    
C27   H28   S    
C22   H14   S    
C9    O12   S    
O17   C27   S    
O10   C20   S    
C26   H25   S    
C5    C18   S    
Cu2   O4    S    
C21   H9    S    
C24   H18   S    
C14   Br1   S    
C4    H2    S    
C28   H30   S    
Cu2   N1    S    
C11   O3    A    
C7    C18   S    
C22   H12   S    
C1    C9    S    
C10   C12   S    
C2    O9    S    
C20   H6    S    
C28   H31   S    
C25   H21   S    
C23   H16   S    
C1    O2    A    
C14   Br2   S    
C3    C4    S    
Cu1   O5    S    
O11   C21   S    
Cu2   O8    S    
C21   H11   S    
C15   O16   S    
O13   C23   S    
C12   O6    A    
C16   O17   S    
C13   O7    A    
C4    C5    S    
C26   H26   S    
C4    O11   S    
C13   C17   S    
O15   C25   S    
C2    C3    S    
C26   H24   S    
C5    O18   S    
Cu2   O2    S    
C11   O4    A    
C8    C11   S    
Cu1   N2    S    
C19   H4    S    
Cu1   O1    S    
C15   H1    S    
C28   H32   S    
O18   C28   S    
C23   H17   S    
C3    C16   S    
