data_mof_unit_5881.cif
_audit_creation_date              2012-12-11T14:54:30-0500
_audit_creation_method            fapswitch 2.2
_symmetry_space_group_name_H-M    P1
_symmetry_Int_Tables_number       1
_space_group_crystal_system       triclinic
_cell_length_a                    18.976547
_cell_length_b                    10.910138
_cell_length_c                    18.838352
_cell_angle_alpha                 90.063116
_cell_angle_beta                  90.203266
_cell_angle_gamma                 89.813511
_cell_volume                      3900.18358766

loop_
_atom_site_label
_atom_site_type_symbol
_atom_type_description
_atom_site_fract_x
_atom_site_fract_y
_atom_site_fract_z
_atom_type_partial_charge
C1    C     C_R   0.730171 0.376286 0.645830 0.539642
C2    C     C_R   0.271705 0.373397 0.355797 0.535776
C3    C     C_R   0.230174 0.876245 0.645814 0.536199
C4    C     C_R   0.771708 0.873321 0.355822 0.538522
C5    C     C_3   0.524015 0.361019 0.449979 -0.072917
C6    C     C_3   0.544055 0.366047 0.528754 -0.106277
C7    C     C_3   0.023826 0.860953 0.450238 -0.124756
C8    C     C_3   0.041348 0.869341 0.529446 -0.114579
C9    C     C_R   0.692156 0.878708 0.537363 -0.135324
C10   C     C_R   0.290465 0.846542 0.458984 -0.160067
C11   C     C_R   0.192512 0.378400 0.537434 -0.141162
C12   C     C_R   0.791158 0.347545 0.459198 -0.163986
C13   C     C_R   0.697037 0.867993 0.463961 -0.147987
C14   C     C_R   0.288321 0.829934 0.532030 -0.145184
C15   C     C_R   0.197250 0.367833 0.464034 -0.153037
C16   C     C_R   0.789079 0.331156 0.532264 -0.147021
C17   C     C_R   0.759918 0.899910 0.430238 0.026366
C18   C     C_R   0.249860 0.912215 0.574759 0.013922
C19   C     C_R   0.259953 0.400275 0.430179 0.027980
C20   C     C_R   0.749816 0.412529 0.574819 0.012615
C21   C     C_R   0.818296 0.937699 0.470629 -0.135843
C22   C     C_R   0.217460 0.014572 0.544793 -0.132671
C23   C     C_R   0.318280 0.438905 0.470411 -0.129796
C24   C     C_R   0.716488 0.513841 0.544666 -0.127305
C25   C     C_R   0.814342 0.943302 0.543156 -0.139383
C26   C     C_R   0.218535 0.029731 0.472306 -0.122206
C27   C     C_R   0.314508 0.444697 0.542938 -0.136016
C28   C     C_R   0.717607 0.528867 0.472177 -0.101327
C29   C     C_R   0.750606 0.919734 0.576841 0.024161
C30   C     C_R   0.253920 0.944850 0.428878 0.037964
C31   C     C_R   0.250874 0.420098 0.576797 0.024999
C32   C     C_R   0.753845 0.444825 0.428901 0.033596
C33   C     C_R   0.470408 0.069418 0.954489 -0.141461
C34   C     C_R   0.460187 0.064805 0.026755 -0.123480
C35   C     C_R   0.968819 0.571240 0.954100 -0.145239
C36   C     C_R   0.958215 0.566677 0.026351 -0.126765
C37   C     C_R   0.483369 0.161031 0.070571 0.014202
C38   C     C_R   0.505979 0.168631 0.925124 0.016452
C39   C     C_R   0.983001 0.661209 0.070499 0.020918
C40   C     C_R   0.005749 0.669199 0.925069 0.020517
C41   C     C_R   0.515633 0.263458 0.041101 -0.127652
C42   C     C_R   0.528474 0.266117 0.968544 -0.081855
C43   C     C_R   0.016874 0.762344 0.041452 -0.133877
C44   C     C_R   0.029283 0.765645 0.968785 -0.093617
C45   C     C_R   0.530947 0.155301 0.646728 0.536913
C46   C     C_R   0.435329 0.150892 0.360787 0.558249
C47   C     C_R   0.030834 0.655419 0.646768 0.536748
C48   C     C_R   0.935458 0.650855 0.360808 0.561837
C49   C     C_R   0.820085 0.919163 0.955469 0.000699
C50   C     C_R   0.196529 0.003423 0.028073 0.004492
C51   C     C_R   0.317826 0.414833 0.955951 -0.003389
C52   C     C_R   0.690662 0.486313 0.031725 -0.000026
C53   C     C_R   0.824118 0.911424 0.028720 -0.094289
C54   C     C_R   0.200524 0.998655 0.955451 -0.145006
C55   C     C_R   0.322930 0.403872 0.028928 -0.093528
C56   C     C_R   0.696331 0.488733 0.958799 -0.107120
C57   C     C_R   0.763361 0.892968 0.069727 -0.003886
C58   C     C_R   0.248811 0.921427 0.922266 0.001941
C59   C     C_R   0.262199 0.399047 0.071336 0.012285
C60   C     C_R   0.746795 0.417230 0.924276 -0.010035
C61   C     C_R   0.698357 0.874773 0.036885 -0.121085
C62   C     C_R   0.300362 0.860075 0.962184 -0.142272
C63   C     C_R   0.195590 0.401878 0.040589 -0.101273
C64   C     C_R   0.799096 0.356586 0.963575 -0.141841
C65   C     C_R   0.693140 0.885641 0.963760 -0.123461
C66   C     C_R   0.301324 0.872772 0.035515 -0.162980
C67   C     C_R   0.189602 0.411442 0.967544 -0.129319
C68   C     C_R   0.799664 0.366208 0.037137 -0.153607
C69   C     C_R   0.753104 0.914072 0.923040 -0.019617
C70   C     C_R   0.249570 0.943619 0.069438 0.011798
C71   C     C_R   0.250364 0.421661 0.925035 -0.013207
C72   C     C_R   0.746218 0.431733 0.072026 -0.010474
C73   C     C_R   0.741390 0.968096 0.647779 0.540511
C74   C     C_R   0.259640 0.973409 0.354197 0.569611
C75   C     C_R   0.241456 0.468120 0.647783 0.540034
C76   C     C_R   0.759644 0.473462 0.354222 0.568912
C77   C     C_R   0.730110 0.379346 0.852274 0.540167
C78   C     C_R   0.271956 0.375172 0.146084 0.547453
C79   C     C_R   0.230479 0.880123 0.851635 0.540407
C80   C     C_R   0.772813 0.872535 0.145078 0.547178
C81   C     C_R   0.532806 0.157664 0.853618 0.537948
C82   C     C_R   0.465002 0.156191 0.145018 0.557103
C83   C     C_R   0.032759 0.657748 0.853611 0.533623
C84   C     C_R   0.964976 0.656201 0.145013 0.560253
C85   C     C_R   0.742020 0.968111 0.853260 0.526215
C86   C     C_R   0.258901 0.974790 0.144062 0.555786
C87   C     C_R   0.241423 0.469851 0.853882 0.525673
C88   C     C_R   0.757946 0.471077 0.145290 0.542916
C89   C     C_R   0.448728 0.158390 0.437201 0.003379
C90   C     C_R   0.488748 0.164536 0.581691 0.003417
C91   C     C_R   0.948997 0.658128 0.437189 0.008159
C92   C     C_R   0.988259 0.664933 0.581899 0.008284
C93   C     C_R   0.469643 0.267842 0.469816 -0.038268
C94   C     C_R   0.488183 0.271681 0.540905 -0.055709
C95   C     C_R   0.969492 0.767648 0.469853 -0.034973
C96   C     C_R   0.986722 0.772537 0.541294 -0.025367
C97   C     C_R   0.456999 0.058940 0.552582 -0.136168
C98   C     C_R   0.437295 0.056008 0.480805 -0.146392
C99   C     C_R   0.957189 0.558855 0.552586 -0.145145
C100  C     C_R   0.937727 0.555691 0.480757 -0.153990
Cr1   Cr    Cr6+3 0.771950 0.169480 0.750100 1.034894
Cr2   Cr    Cr6+3 0.228050 0.169480 0.249900 1.082706
Cr3   Cr    Cr6+3 0.271950 0.669480 0.750100 1.025764
Cr4   Cr    Cr6+3 0.728050 0.669480 0.249900 1.051273
Cr5   Cr    Cr6+3 0.614930 0.323340 0.749170 1.026638
Cr6   Cr    Cr6+3 0.385070 0.323340 0.250830 1.048005
Cr7   Cr    Cr6+3 0.114930 0.823340 0.749170 1.078547
Cr8   Cr    Cr6+3 0.885070 0.823340 0.250830 1.049253
Cr9   Cr    Cr6+3 0.616590 0.010620 0.750610 1.029533
Cr10  Cr    Cr6+3 0.383410 0.010620 0.249390 1.028711
Cr11  Cr    Cr6+3 0.116590 0.510620 0.750610 1.032443
Cr12  Cr    Cr6+3 0.883410 0.510620 0.249390 1.027008
H1    H     H_    0.453244 0.975241 0.583185 0.147643
H2    H     H_    0.417902 0.971241 0.458370 0.143889
H3    H     H_    0.953847 0.474974 0.583074 0.143977
H4    H     H_    0.918734 0.470704 0.458258 0.138128
H5    H     H_    0.875647 0.915986 0.053617 0.179938
H6    H     H_    0.160452 0.046605 0.924829 0.147025
H7    H     H_    0.374945 0.396268 0.052571 0.177902
H8    H     H_    0.655455 0.535014 0.928579 0.188131
H9    H     H_    0.641240 0.879981 0.939864 0.167148
H10   H     H_    0.342082 0.826378 0.065734 0.144246
H11   H     H_    0.137181 0.419301 0.944985 0.156499
H12   H     H_    0.842136 0.323366 0.066710 0.141293
H13   H     H_    0.999878 0.944945 0.426720 0.136579
H14   H     H_    0.095373 0.838681 0.544482 0.153927
H15   H     H_    0.499667 0.446225 0.428453 0.178801
H16   H     H_    0.597850 0.331950 0.541877 0.132234
H17   H     H_    0.652085 0.835719 0.433775 0.143892
H18   H     H_    0.313316 0.749279 0.554400 0.150563
H19   H     H_    0.152342 0.335075 0.433952 0.129962
H20   H     H_    0.814766 0.251272 0.554775 0.144176
H21   H     H_    0.868234 0.960651 0.446581 0.130164
H22   H     H_    0.188309 0.079385 0.577014 0.171000
H23   H     H_    0.368090 0.462383 0.446245 0.143294
H24   H     H_    0.686384 0.577621 0.576734 0.163604
H25   H     H_    0.860070 0.974054 0.572548 0.132213
H26   H     H_    0.191925 0.108963 0.450308 0.144795
H27   H     H_    0.360371 0.476390 0.571983 0.135152
H28   H     H_    0.690295 0.607322 0.450082 0.163170
H29   H     H_    0.453372 0.992878 0.922023 0.138323
H30   H     H_    0.433442 0.985845 0.048281 0.148674
H31   H     H_    0.950883 0.495687 0.921362 0.134768
H32   H     H_    0.930110 0.488998 0.047670 0.145453
H33   H     H_    0.531783 0.339135 0.074303 0.127059
H34   H     H_    0.557843 0.342259 0.946853 0.176976
H35   H     H_    0.034934 0.836007 0.075247 0.119017
H36   H     H_    0.059680 0.840771 0.947336 0.157611
O1    O     O_R   0.787510 0.042610 0.670410 -0.524244
O2    O     O_R   0.212490 0.042610 0.329590 -0.483911
O3    O     O_R   0.287510 0.542610 0.670410 -0.530492
O4    O     O_R   0.712490 0.542610 0.329590 -0.479995
O5    O     O_R   0.556450 0.252890 0.823790 -0.501181
O6    O     O_R   0.443550 0.252890 0.176210 -0.494953
O7    O     O_R   0.056450 0.752890 0.823790 -0.500232
O8    O     O_R   0.943550 0.752890 0.176210 -0.492664
O9    O     O_R   0.545750 0.051070 0.830560 -0.518529
O10   O     O_R   0.454250 0.051070 0.169440 -0.513894
O11   O     O_R   0.045750 0.551070 0.830560 -0.521877
O12   O     O_R   0.954250 0.551070 0.169440 -0.514348
O13   O     O_R   0.681210 0.959150 0.825320 -0.502683
O14   O     O_R   0.318790 0.959150 0.174680 -0.513389
O15   O     O_R   0.181210 0.459150 0.825320 -0.503337
O16   O     O_R   0.818790 0.459150 0.174680 -0.502136
O17   O     O_3   0.667820 0.167810 0.749960 -0.247380
O18   O     O_3   0.332180 0.167810 0.250040 -0.294201
O19   O     O_3   0.167820 0.667810 0.749960 -0.255876
O20   O     O_3   0.832180 0.667810 0.250040 -0.287631
O21   O     O_R   0.765670 0.292090 0.675090 -0.505237
O22   O     O_R   0.234330 0.292090 0.324910 -0.513532
O23   O     O_R   0.265670 0.792090 0.675090 -0.513073
O24   O     O_R   0.734330 0.792090 0.324910 -0.510204
O25   O     O_R   0.670220 0.409020 0.668560 -0.523215
O26   O     O_R   0.329780 0.409020 0.331440 -0.531532
O27   O     O_R   0.170220 0.909020 0.668560 -0.470816
O28   O     O_R   0.829780 0.909020 0.331440 -0.530829
O29   O     O_R   0.556580 0.251590 0.674980 -0.513091
O30   O     O_R   0.443420 0.251590 0.325020 -0.470726
O31   O     O_R   0.056580 0.751590 0.674980 -0.476495
O32   O     O_R   0.943420 0.751590 0.325020 -0.467235
O33   O     O_R   0.545890 0.049670 0.670030 -0.517806
O34   O     O_R   0.454110 0.049670 0.329970 -0.506877
O35   O     O_R   0.045890 0.549670 0.670030 -0.523204
O36   O     O_R   0.954110 0.549670 0.329970 -0.509831
O37   O     O_R   0.681340 0.957860 0.676500 -0.505145
O38   O     O_R   0.318660 0.957860 0.323500 -0.529707
O39   O     O_R   0.181340 0.457860 0.676500 -0.501254
O40   O     O_R   0.818660 0.457860 0.323500 -0.529806
O41   O     O_R   0.787380 0.044010 0.830940 -0.515008
O42   O     O_R   0.212620 0.044010 0.169060 -0.455743
O43   O     O_R   0.287380 0.544010 0.830940 -0.513079
O44   O     O_R   0.712620 0.544010 0.169060 -0.521064
O45   O     O_R   0.765540 0.293390 0.823910 -0.495231
O46   O     O_R   0.234460 0.293390 0.176090 -0.456289
O47   O     O_R   0.265540 0.793390 0.823910 -0.500077
O48   O     O_R   0.734460 0.793390 0.176090 -0.491612
O49   O     O_R   0.670090 0.410410 0.829090 -0.525349
O50   O     O_R   0.329910 0.410410 0.170910 -0.526601
O51   O     O_R   0.170090 0.910410 0.829090 -0.521417
O52   O     O_R   0.829910 0.910410 0.170910 -0.522482
C101  C     C_2   0.885999 0.934340 0.914254 0.244485
H37   H     H_    0.888958 0.901939 0.859851 0.122775
O53   O     O_2   0.937202 0.985095 0.940301 -0.537879
C102  C     C_2   0.132176 0.064016 0.055776 0.248903
H38   H     H_    0.081264 0.022477 0.046426 0.107504
O54   O     O_2   0.134564 0.165147 0.083107 -0.487510
C103  C     C_2   0.383222 0.422554 0.913477 0.243433
H39   H     H_    0.384669 0.385912 0.859916 0.111517
O55   O     O_2   0.435287 0.473951 0.937177 -0.502717
C104  C     C_2   0.624291 0.536473 0.062797 0.239836
H40   H     H_    0.604721 0.502394 0.113021 0.137577
O56   O     O_2   0.589630 0.614434 0.031753 -0.512647
H41   H     H_    0.651679 0.855244 0.067769 0.166611
H42   H     H_    0.337710 0.798455 0.937251 0.159908
H43   H     H_    0.148602 0.398740 0.072993 0.169320
H44   H     H_    0.838086 0.299273 0.937780 0.155977
C105  C     C_2   0.581929 0.309319 0.404373 0.249403
H45   H     H_    0.611058 0.228498 0.421198 0.105785
O57   O     O_2   0.596143 0.357486 0.347821 -0.478547
C106  C     C_2   0.526102 0.485521 0.564381 0.219221
H46   H     H_    0.501559 0.485622 0.616344 0.124474
O58   O     O_2   0.541269 0.582947 0.536609 -0.541093
C107  C     C_2   0.083202 0.807933 0.407096 0.249215
H47   H     H_    0.112548 0.728902 0.426243 0.106944
O59   O     O_2   0.098330 0.852901 0.349908 -0.476126
C108  C     C_2   0.019560 0.989836 0.561703 0.221490
H48   H     H_    0.974016 0.039066 0.541406 0.083177
O60   O     O_2   0.052706 0.033388 0.611157 -0.494222
H49   H     H_    0.642044 0.860681 0.562568 0.158980
H50   H     H_    0.319581 0.782549 0.426177 0.131912
H51   H     H_    0.142530 0.359715 0.562743 0.148717
H52   H     H_    0.820906 0.284228 0.426528 0.125499

loop_
_geom_bond_atom_site_label_1
_geom_bond_atom_site_label_2
_ccdc_geom_bond_type
Cr2   O22   S    
C87   O15   A    
C49   C53   A    
C58   C62   A    
C93   C94   A    
Cr10  O18   S    
C55   C59   A    
Cr6   O26   S    
C34   C37   A    
C85   O13   A    
C41   C42   A    
C14   C18   A    
Cr5   O5    S    
C95   C96   A    
C8    C96   S    
C10   H50   S    
Cr9   O9    S    
C68   H12   S    
C106  O58   D    
C97   C98   A    
C84   O12   A    
C79   O47   A    
C7    C8    S    
Cr12  O36   S    
C46   C89   S    
C55   H7    S    
Cr3   O19   S    
C1    O25   A    
C50   C54   A    
C61   H41   S    
C22   H22   S    
C37   C41   A    
C73   O37   A    
C107  O59   D    
C64   C68   A    
C29   C73   S    
C39   C84   S    
C38   C42   A    
Cr1   O41   S    
C78   O46   A    
C5    C6    S    
C82   O10   A    
C53   H5    S    
C98   H2    S    
C83   O7    A    
C76   O4    A    
C85   O41   A    
Cr12  O20   S    
C92   C96   A    
C81   O5    A    
Cr8   O32   S    
C3    C18   S    
C9    H49   S    
C101  H37   S    
Cr1   O1    S    
C30   C74   S    
C46   O30   A    
C9    C13   A    
C28   H28   S    
C3    O23   A    
C11   C15   A    
C5    C105  S    
C35   C36   A    
C75   O3    A    
Cr6   O6    S    
C48   C91   S    
C100  H4    S    
C47   O31   A    
C66   H10   S    
C12   H52   S    
C86   O14   A    
C65   H9    S    
C91   C100  A    
Cr12  O12   S    
C90   C97   A    
C51   C55   A    
C76   O40   A    
C9    C29   A    
Cr6   O30   S    
Cr6   O50   S    
C108  O60   D    
Cr7   O31   S    
C24   H24   S    
Cr5   O49   S    
Cr8   O20   S    
C51   C103  S    
C11   C31   A    
Cr2   O18   S    
Cr5   O25   S    
Cr7   O7    S    
C12   C32   A    
Cr3   O23   S    
C41   H33   S    
C62   H42   S    
C57   C80   S    
C40   C83   S    
C102  O54   D    
Cr3   O47   S    
C101  O53   D    
C47   C92   S    
C80   O48   A    
Cr2   O46   S    
C59   C78   S    
C21   H21   S    
C106  H46   S    
C72   C88   S    
Cr1   O45   S    
C90   C94   A    
C49   C101  S    
C25   C29   A    
Cr12  O16   S    
Cr7   O19   S    
C60   C77   S    
C86   O42   A    
C79   O51   A    
C62   C66   A    
C52   C104  S    
C45   O33   A    
C103  H39   S    
C12   C16   A    
C28   C32   A    
C81   O9    A    
C107  H47   S    
C47   O35   A    
C10   C14   A    
C48   O36   A    
C8    C108  S    
C19   C23   A    
C39   C43   A    
C6    C94   S    
C105  H45   S    
C88   O16   A    
C27   C31   A    
C27   H27   S    
C25   H25   S    
C56   C60   A    
C67   H11   S    
C68   C72   A    
Cr8   O52   S    
C15   C19   A    
C43   C44   A    
C63   C67   A    
Cr12  O40   S    
C52   C72   A    
Cr4   O20   S    
C7    C107  S    
C10   C30   A    
C31   C75   S    
C99   C100  A    
Cr8   O8    S    
C16   C20   A    
C77   O45   A    
C5    H15   S    
Cr11  O35   S    
C33   C34   A    
Cr4   O48   S    
C83   O11   A    
C23   H23   S    
C108  H48   S    
C7    H13   S    
Cr1   O21   S    
C45   C90   S    
Cr10  O38   S    
Cr9   O17   S    
C58   C79   S    
Cr2   O2    S    
C70   C86   S    
C71   C87   S    
C4    C17   S    
C8    H14   S    
C2    O22   A    
C26   C30   A    
C23   C27   A    
C54   H6    S    
C38   C81   S    
C4    O28   A    
C54   C58   A    
C6    C106  S    
C37   C82   S    
Cr3   O43   S    
C97   H1    S    
C42   H34   S    
Cr6   O18   S    
C48   O32   A    
C69   C85   S    
Cr9   O33   S    
C87   O43   A    
C14   H18   S    
C3    O27   A    
C59   C63   A    
C88   O44   A    
C21   C25   A    
C34   H30   S    
C1    C20   S    
C11   H51   S    
C4    O24   A    
C80   O52   A    
C73   O1    A    
C2    C19   S    
C18   C22   A    
Cr11  O39   S    
C64   H44   S    
C36   C39   A    
C75   O39   A    
C24   C28   A    
Cr5   O29   S    
C26   H26   S    
Cr10  O10   S    
C32   C76   S    
C5    C93   S    
C33   H29   S    
C51   C71   A    
C57   C61   A    
C56   H8    S    
C13   H17   S    
Cr3   O3    S    
C50   C102  S    
C105  O57   D    
C7    C95   S    
C104  O56   D    
C33   C38   A    
Cr4   O24   S    
C89   C98   A    
C60   C64   A    
Cr9   O37   S    
Cr10  O14   S    
Cr4   O4    S    
C35   C40   A    
C50   C70   A    
C6    H16   S    
Cr11  O15   S    
Cr9   O13   S    
Cr1   O17   S    
Cr7   O51   S    
C45   O29   A    
C84   O8    A    
C46   O34   A    
C66   C70   A    
Cr7   O27   S    
C65   C69   A    
Cr8   O28   S    
C99   H3    S    
C1    O21   A    
Cr2   O42   S    
C53   C57   A    
C67   C71   A    
C89   C93   A    
C16   H20   S    
C17   C21   A    
C43   H35   S    
Cr11  O19   S    
C91   C95   A    
C13   C17   A    
C82   O6    A    
C61   C65   A    
C40   C44   A    
C15   H19   S    
C102  H38   S    
Cr10  O34   S    
C104  H40   S    
C22   C26   A    
C103  O55   D    
Cr5   O17   S    
C74   O2    A    
C49   C69   A    
C78   O50   A    
C63   H43   S    
C44   H36   S    
C36   H32   S    
C77   O49   A    
C20   C24   A    
C2    O26   A    
C52   C56   A    
C92   C99   A    
C35   H31   S    
C74   O38   A    
Cr11  O11   S    
Cr4   O44   S    
