data_mof_unit_12795.cif
_audit_creation_date              2012-12-10T17:36:47-0500
_audit_creation_method            fapswitch 2.2
_symmetry_space_group_name_H-M    P1
_symmetry_Int_Tables_number       1
_space_group_crystal_system       triclinic
_cell_length_a                    10.595261
_cell_length_b                    12.368621
_cell_length_c                    13.218894
_cell_angle_alpha                 117.362679
_cell_angle_beta                  76.608758
_cell_angle_gamma                 100.761255
_cell_volume                      1490.1958283

loop_
_atom_site_label
_atom_site_type_symbol
_atom_type_description
_atom_site_fract_x
_atom_site_fract_y
_atom_site_fract_z
_atom_type_partial_charge
C1    C     C_R   0.505208 0.854499 0.287051 0.776127
C2    C     C_3   0.022803 0.050593 0.612379 -0.135722
C3    C     C_3   0.930309 0.935047 0.556428 -0.163515
C4    C     C_3   0.876370 0.002749 0.505428 -0.107879
C5    C     C_R   0.408930 0.275786 0.043868 0.710383
C6    C     C_R   0.449444 0.229505 0.839197 -0.214958
C7    C     C_R   0.548866 0.809089 0.078885 -0.215373
C8    C     C_R   0.558079 0.727431 0.961850 0.051428
C9    C     C_R   0.514038 0.603966 0.930203 -0.180408
C10   C     C_R   0.451443 0.562388 0.014202 0.076733
C11   C     C_R   0.434592 0.647263 0.132135 0.128472
C12   C     C_R   0.739749 0.001349 0.502649 0.818117
C13   C     C_R   0.416730 0.436077 0.984940 -0.090925
C14   C     C_R   0.385983 0.396184 0.072692 0.027612
C15   C     C_R   0.339006 0.480824 0.185888 -0.014837
C16   C     C_R   0.359656 0.605462 0.212881 -0.277321
C17   C     C_R   0.413104 0.346850 0.871427 -0.105948
C18   C     C_R   0.452913 0.195647 0.927864 -0.175740
C19   C     C_R   0.492627 0.769988 0.165060 -0.100283
C20   C     C_R   0.638870 0.307482 0.285228 -0.070385
C21   C     C_R   0.335088 0.771102 0.657227 0.017344
C22   C     C_R   0.290388 0.676514 0.689468 -0.272588
C23   C     C_R   0.478835 0.145680 0.714435 0.853966
C24   C     C_R   0.340389 0.563336 0.624800 0.616948
C25   C     C_R   0.439497 0.544629 0.528117 -0.109634
C26   C     C_R   0.478798 0.642533 0.494430 0.106797
C27   C     C_R   0.501563 0.432946 0.462196 -0.066921
C28   C     C_R   0.569973 0.409925 0.350213 0.017671
C29   C     C_R   0.582929 0.496498 0.308439 0.478578
C30   C     C_R   0.565140 0.616601 0.387385 -0.131299
C31   C     C_R   0.503918 0.345208 0.502939 0.134453
C32   C     C_R   0.646253 0.228916 0.331733 0.118517
C33   C     C_R   0.259939 0.000900 0.500429 0.862172
C34   C     C_3   0.977977 0.956222 0.396345 0.634119
C35   C     C_3   0.033257 0.887092 0.445206 -0.181569
C36   C     C_3   0.123284 0.002836 0.501351 -0.101571
C37   C     C_3   0.070107 0.071313 0.450618 -0.155359
C38   C     C_3   0.966717 0.118525 0.561597 -0.196746
Cu1   Cu    Cu3+1 0.529830 0.098270 0.475420 0.988671
Cu2   Cu    Cu3+1 0.470170 0.901730 0.524580 0.946353
H1    H     H_    0.063338 0.792657 0.396483 0.171674
H2    H     H_    0.589660 0.902902 0.102666 0.195985
H3    H     H_    0.533177 0.540155 0.839893 0.163333
H4    H     H_    0.315838 0.668625 0.297433 0.162906
H5    H     H_    0.693870 0.292555 0.200512 0.234087
H6    H     H_    0.452027 0.355179 0.586284 0.202350
H7    H     H_    0.293591 0.857734 0.707364 0.165770
H8    H     H_    0.213790 0.690081 0.763263 0.185502
H9    H     H_    0.129666 0.126062 0.406351 0.202698
H10   H     H_    0.936388 0.212868 0.609614 0.188741
H11   H     H_    0.044884 0.089557 0.701278 0.182798
H12   H     H_    0.871382 0.881579 0.602203 0.211880
N1    N     N_R   0.575030 0.246270 0.438190 -0.254002
N2    N     N_R   0.425760 0.754330 0.561190 -0.196882
O1    O     O_R   0.537510 0.972500 0.318130 -0.592522
O2    O     O_R   0.487140 0.806530 0.359650 -0.622913
O3    O     O_R   0.708330 0.082950 0.479220 -0.611274
O4    O     O_R   0.657960 0.916980 0.520740 -0.573420
O5    O     O_R   0.512860 0.193470 0.640350 -0.558159
O6    O     O_R   0.462490 0.027500 0.681870 -0.610602
O7    O     O_R   0.342040 0.083020 0.479260 -0.538220
O8    O     O_R   0.291670 0.917050 0.520780 -0.602890
C39   C     C_2   0.333993 0.367845 0.803541 0.421154
H13   H     H_    0.315025 0.459853 0.825627 0.130197
O9    O     O_2   0.278665 0.282769 0.729886 -0.517944
C40   C     C_2   0.619952 0.771612 0.873485 0.413923
H14   H     H_    0.659977 0.866201 0.899841 0.107322
O10   O     O_2   0.626475 0.703529 0.770482 -0.554504
C41   C     C_2   0.732828 0.128726 0.262867 0.412992
H15   H     H_    0.761356 0.078076 0.300150 0.156339
O11   O     O_2   0.776358 0.101904 0.161063 -0.552798
F1    F     F_    0.649130 0.473138 0.199943 -0.675260
F2    F     F_    0.951268 0.907526 0.285349 -0.658484
F3    F     F_    0.280445 0.470054 0.650114 -0.685850
C42   C     C_2   0.683960 0.694210 0.374909 0.601198
H16   H     H_    0.702699 0.728355 0.309996 0.100578
O12   O     O_2   0.770110 0.708100 0.428246 -0.569253
C43   C     C_2   0.503410 0.079602 0.901806 0.463125
H17   H     H_    0.575968 0.038392 0.825963 0.063298
O13   O     O_2   0.465625 0.029064 0.965388 -0.490413
C44   C     C_2   0.261530 0.444811 0.276412 0.462662
H18   H     H_    0.255132 0.509933 0.366743 0.037903
O14   O     O_2   0.198192 0.345500 0.251440 -0.464376
F4    F     F_    0.407918 0.242743 0.128913 -0.604125

loop_
_geom_bond_atom_site_label_1
_geom_bond_atom_site_label_2
_ccdc_geom_bond_type
C40   O10   D    
C39   O9    D    
C8    C40   S    
Cu2   O6    S    
C34   C37   S    
C22   H8    S    
C35   C36   S    
C44   H18   S    
C7    C8    A    
C15   C44   S    
C23   O5    A    
C11   C19   A    
C29   C30   A    
C28   C29   A    
C1    O2    A    
C21   N2    A    
C43   O13   D    
C15   C16   A    
Cu1   O3    S    
C33   C36   S    
Cu2   O8    S    
C34   C35   S    
C7    H2    S    
C41   O11   D    
Cu1   O1    S    
C33   O8    A    
Cu2   O2    S    
C31   H6    S    
C4    C12   S    
C9    C10   A    
C16   H4    S    
C20   H5    S    
C29   F1    S    
C12   O4    A    
C40   H14   S    
C13   C14   A    
C6    C18   A    
C26   N2    A    
C44   O14   D    
C23   O6    A    
Cu1   O7    S    
C4    C34   S    
C9    H3    S    
Cu2   O4    S    
C27   C31   A    
C24   C25   A    
C10   C11   A    
Cu1   Cu2   S    
C5    F4    S    
C43   H17   S    
C8    C9    A    
C5    C18   A    
C20   C28   A    
C25   C26   A    
C1    C19   S    
C42   H16   S    
C37   C38   S    
C37   H9    S    
C11   C16   A    
C2    C38   S    
C3    C35   S    
C18   C43   S    
Cu1   O5    S    
C31   N1    A    
C42   O12   D    
C5    C14   A    
C12   O3    A    
C4    C38   S    
C26   C30   A    
C7    C19   A    
C22   C24   A    
C3    C4    S    
C32   N1    A    
C20   C32   A    
C2    C36   S    
C6    C17   A    
C36   C37   S    
C10   C13   A    
C3    H12   S    
C32   C41   S    
C38   H10   S    
C25   C27   A    
Cu2   N2    S    
C13   C17   A    
C2    C3    S    
C1    O1    A    
C17   C39   S    
C30   C42   S    
C24   F3    S    
Cu1   N1    S    
C6    C23   S    
C41   H15   S    
C35   H1    S    
C2    H11   S    
C34   F2    S    
C39   H13   S    
C33   O7    A    
C27   C28   A    
C14   C15   A    
C21   C22   A    
C21   H7    S    
