data_mof_unit_55395.cif
_audit_creation_date              2012-12-10T17:58:22-0500
_audit_creation_method            fapswitch 2.2
_symmetry_space_group_name_H-M    P1
_symmetry_Int_Tables_number       1
_space_group_crystal_system       triclinic
_cell_length_a                    9.662551
_cell_length_b                    10.825986
_cell_length_c                    15.87266
_cell_angle_alpha                 89.800297
_cell_angle_beta                  71.242655
_cell_angle_gamma                 89.853802
_cell_volume                      1572.18943089

loop_
_atom_site_label
_atom_site_type_symbol
_atom_type_description
_atom_site_fract_x
_atom_site_fract_y
_atom_site_fract_z
_atom_type_partial_charge
C1    C     C_R   0.999982 0.262550 0.500595 0.855995
C2    C     C_R   0.108343 0.062397 0.524066 0.621743
C3    C     C_R   0.999587 0.871491 0.498990 -0.236702
C4    C     C_R   0.000600 0.128455 0.500723 -0.241496
C5    C     C_R   0.543200 0.429650 0.560048 0.593084
C6    C     C_R   0.455393 0.574304 0.442463 0.583498
C7    C     C_R   0.395308 0.427943 0.557965 -0.187850
C8    C     C_R   0.604931 0.571300 0.441518 -0.192197
C9    C     C_R   0.914719 0.502336 0.671165 0.788676
C10   C     C_R   0.085286 0.502435 0.328824 0.786061
C11   C     C_R   0.861922 0.514909 0.767786 -0.060398
C12   C     C_R   0.000076 0.737434 0.499306 0.851116
C13   C     C_R   0.138136 0.514988 0.232139 -0.066149
C14   C     C_R   0.903498 0.501434 0.908391 -0.087338
C15   C     C_R   0.096753 0.501591 0.091556 -0.087353
C16   C     C_R   0.950917 0.481328 0.817573 -0.188897
C17   C     C_R   0.049125 0.481851 0.182484 -0.192175
C18   C     C_R   0.721069 0.560551 0.810708 -0.228983
C19   C     C_R   0.279198 0.559874 0.188993 -0.212197
C20   C     C_R   0.670859 0.578819 0.903622 0.037878
C21   C     C_R   0.329325 0.578447 0.096035 0.031531
C22   C     C_R   0.770234 0.559939 0.950923 0.029747
C23   C     C_R   0.585049 0.613376 0.088641 -0.292818
C24   C     C_R   0.230007 0.559734 0.048791 0.032376
C25   C     C_R   0.522422 0.602311 0.952472 0.002529
C26   C     C_R   0.477665 0.602145 0.047130 -0.003031
C27   C     C_3   0.846424 0.732657 0.104448 -0.290278
C28   C     C_3   0.150931 0.732784 0.896696 -0.291886
C29   C     C_3   0.491049 0.366018 0.705905 -0.319779
C30   C     C_3   0.463490 0.767409 0.378725 -0.309901
C31   C     C_R   0.414996 0.613440 0.910932 -0.301450
C32   C     C_R   0.731693 0.596400 0.040263 0.458807
C33   C     C_R   0.268520 0.596041 0.959288 0.455278
C34   C     C_R   0.892669 0.065304 0.476714 -0.312892
C35   C     C_R   0.107487 0.934633 0.523009 -0.346935
C36   C     C_R   0.891926 0.937521 0.475550 0.617171
Cu1   Cu    Cu3+1 0.140660 0.500020 0.500000 1.013142
Cu2   Cu    Cu3+1 0.859340 0.499980 0.500000 1.014380
F1    F     F_    0.787531 0.879422 0.450032 -0.675172
F2    F     F_    0.212800 0.120455 0.549531 -0.660751
H1    H     H_    0.347325 0.578672 0.229300 0.190989
H2    H     H_    0.190433 0.885250 0.542142 0.201078
H3    H     H_    0.315223 0.367986 0.602534 0.192431
H4    H     H_    0.686878 0.625773 0.393441 0.190930
H5    H     H_    0.945971 0.744004 0.124045 0.196653
H6    H     H_    0.751458 0.759946 0.162465 0.158798
H7    H     H_    0.857141 0.795887 0.047153 0.147726
H8    H     H_    0.246063 0.763004 0.839716 0.162154
H9    H     H_    0.137175 0.794007 0.955129 0.150664
H10   H     H_    0.051982 0.743652 0.876334 0.195037
H11   H     H_    0.395508 0.303837 0.717333 0.169498
H12   H     H_    0.653280 0.580414 0.770222 0.153734
H13   H     H_    0.454419 0.463082 0.723202 0.138327
H14   H     H_    0.550161 0.336630 0.752064 0.198608
H15   H     H_    0.577746 0.775072 0.333372 0.171117
H16   H     H_    0.453712 0.803952 0.445974 0.189730
H17   H     H_    0.394852 0.826903 0.351054 0.190098
H18   H     H_    0.943211 0.439856 0.213698 0.171224
H19   H     H_    0.056747 0.438895 0.786529 0.163030
H20   H     H_    0.969176 0.465276 0.944906 0.182283
H21   H     H_    0.031204 0.465506 0.055168 0.183144
H22   H     H_    0.558849 0.629963 0.158905 0.168391
H23   H     H_    0.441064 0.630531 0.840686 0.148355
H24   H     H_    0.809517 0.114699 0.457769 0.212189
N1    N     N_R   0.352080 0.500030 0.499980 -0.218118
N2    N     N_R   0.647920 0.499970 0.500020 -0.223050
O1    O     O_R   0.118740 0.319660 0.500000 -0.526420
O2    O     O_3   0.164134 0.607339 0.917617 -0.601348
O3    O     O_3   0.586679 0.354234 0.617795 -0.536597
O4    O     O_3   0.413316 0.644619 0.381610 -0.575253
O5    O     O_R   0.881260 0.680340 0.500000 -0.529607
O6    O     O_R   0.881170 0.319630 0.500010 -0.553129
O7    O     O_R   0.118830 0.680370 0.499990 -0.566008
O8    O     O_R   0.055570 0.500030 0.629830 -0.595468
O9    O     O_R   0.944430 0.499970 0.370170 -0.593241
O10   O     O_R   0.818000 0.500000 0.629840 -0.553412
O11   O     O_R   0.182000 0.500000 0.370160 -0.544576
O12   O     O_3   0.836234 0.607754 0.081765 -0.596343

loop_
_geom_bond_atom_site_label_1
_geom_bond_atom_site_label_2
_ccdc_geom_bond_type
C2    C35   A    
C25   C31   A    
Cu1   O8    S    
C11   C18   A    
C8    N2    A    
C21   C26   A    
C27   O12   S    
C18   H12   S    
Cu2   O6    S    
Cu2   O10   S    
C22   C32   A    
C28   O2    S    
C29   H14   S    
C30   H17   S    
C15   C17   A    
C10   O9    A    
C23   C26   A    
C35   H2    S    
C5    O3    S    
C3    C12   S    
C28   H10   S    
C6    N1    A    
Cu2   N2    S    
Cu1   N1    S    
C31   C33   A    
C9    O10   A    
C7    H3    S    
C18   C20   A    
C17   H18   S    
C27   H5    S    
C12   O7    A    
C30   O4    S    
C10   O11   A    
C29   O3    S    
Cu2   O9    S    
C23   H22   S    
C4    C34   A    
C1    O6    A    
C13   C19   A    
C31   H23   S    
C5    C7    A    
C6    C8    A    
C25   C26   A    
C30   H16   S    
C29   H13   S    
C16   H19   S    
C2    C4    A    
Cu1   Cu2   S    
C7    N1    A    
C28   H9    S    
C3    C35   A    
C34   H24   S    
C15   H21   S    
C9    C11   S    
C27   H6    S    
C15   C24   A    
C12   O5    A    
C20   C22   A    
C14   C16   A    
C9    O8    A    
C29   H11   S    
C27   H7    S    
C6    O4    S    
Cu1   O7    S    
Cu2   O5    S    
C28   H8    S    
C19   C21   A    
C36   F1    S    
C8    H4    S    
C5    N2    A    
C10   C13   S    
C14   H20   S    
C30   H15   S    
C24   C33   A    
C13   C17   A    
C1    C4    S    
C23   C32   A    
C14   C22   A    
Cu1   O11   S    
C3    C36   A    
Cu1   O1    S    
C1    O1    A    
C34   C36   A    
C11   C16   A    
C32   O12   S    
C2    F2    S    
C20   C25   A    
C21   C24   A    
C19   H1    S    
C33   O2    S    
