data_mof_unit_66179.cif
_audit_creation_date              2012-12-10T19:18:14-0500
_audit_creation_method            fapswitch 2.2
_symmetry_space_group_name_H-M    P1
_symmetry_Int_Tables_number       1
_space_group_crystal_system       triclinic
_cell_length_a                    15.885974
_cell_length_b                    16.000752
_cell_length_c                    14.772958
_cell_angle_alpha                 90.014392
_cell_angle_beta                  90.098702
_cell_angle_gamma                 89.779337
_cell_volume                      3755.06817576

loop_
_atom_site_label
_atom_site_type_symbol
_atom_type_description
_atom_site_fract_x
_atom_site_fract_y
_atom_site_fract_z
_atom_type_partial_charge
C1    C     C_R   0.500039 0.340874 0.499970 0.822050
C2    C     C_R   0.499961 0.659126 0.500030 0.822050
C3    C     C_R   0.501058 0.912696 0.500051 0.025460
C4    C     C_R   0.498942 0.087304 0.499949 0.025459
C5    C     C_R   0.424241 0.955806 0.498164 -0.239874
C6    C     C_R   0.575759 0.044193 0.501836 -0.239874
C7    C     C_1   0.500590 0.823186 0.500055 0.047711
C8    C     C_1   0.499410 0.176814 0.499945 0.047711
C9    C     C_1   0.499781 0.251821 0.499951 -0.116815
C10   C     C_1   0.500219 0.748179 0.500049 -0.116816
C11   C     C_R   0.575417 0.497418 0.951568 -0.219289
C12   C     C_R   0.424583 0.502582 0.048432 -0.219289
C13   C     C_R   0.499202 0.500036 0.902826 -0.078228
C14   C     C_R   0.500798 0.499964 0.097174 -0.078228
C15   C     C_R   0.423385 0.502630 0.952659 0.298533
C16   C     C_R   0.576615 0.497369 0.047341 0.298533
C17   C     C_1   0.499725 0.500025 0.802659 0.250637
C18   C     C_1   0.500275 0.499975 0.197341 0.250637
C19   C     C_R   0.339450 0.500157 0.499937 0.815616
C20   C     C_R   0.660550 0.499843 0.500063 0.815614
C21   C     C_3   0.973141 0.449041 0.565416 0.307465
C22   C     C_3   0.026859 0.550959 0.434584 0.307469
C23   C     C_3   0.028459 0.422624 0.484709 0.313404
C24   C     C_3   0.971541 0.577376 0.515291 0.313407
C25   C     C_1   0.249937 0.500591 0.499907 -0.117514
C26   C     C_1   0.750062 0.499409 0.500093 -0.117515
C27   C     C_3   0.027183 0.527618 0.582339 0.055101
C28   C     C_3   0.972817 0.472382 0.417661 0.055100
C29   C     C_3   0.083022 0.500975 0.500910 -0.131949
C30   C     C_3   0.916978 0.499025 0.499090 -0.131949
C31   C     C_1   0.174545 0.500912 0.500196 0.174214
C32   C     C_1   0.825454 0.499088 0.499804 0.174214
C33   C     C_R   0.577245 0.956949 0.501896 0.297576
C34   C     C_R   0.422755 0.043051 0.498104 0.297576
Cu1   Cu    Cu3+1 0.500020 0.500000 0.589220 1.037939
Cu2   Cu    Cu3+1 0.499980 0.500000 0.410780 1.037939
H1    H     H_    0.634532 0.078354 0.503262 0.183112
H2    H     H_    0.365468 0.921646 0.496738 0.183112
H3    H     H_    0.634487 0.495395 0.915088 0.184999
H4    H     H_    0.365513 0.504605 0.084912 0.185000
N1    N     N_1   0.500030 0.499980 0.276710 -0.140500
N2    N     N_1   0.499970 0.500020 0.723290 -0.140500
O1    O     O_R   0.500040 0.380310 0.575320 -0.568439
O2    O     O_R   0.499960 0.619690 0.424680 -0.568439
O3    O     O_R   0.500000 0.380310 0.424640 -0.564555
O4    O     O_R   0.500000 0.619690 0.575360 -0.564555
O5    O     O_R   0.379100 0.499990 0.575330 -0.550303
O6    O     O_R   0.620900 0.500010 0.424670 -0.550303
O7    O     O_R   0.379060 0.499990 0.424640 -0.571722
O8    O     O_R   0.620940 0.500010 0.575360 -0.571721
O9    O     O_3   0.067244 0.343985 0.471714 -0.556062
C35   C     C_3   0.006142 0.282064 0.455117 0.101514
H5    H     H_    0.988810 0.282220 0.382333 0.208290
H6    H     H_    0.948134 0.290450 0.496398 0.169704
C36   C     C_3   0.043488 0.196903 0.477686 -0.720338
H7    H     H_    0.062052 0.194677 0.550159 0.250367
H8    H     H_    0.996247 0.147371 0.464527 0.205494
H9    H     H_    0.099871 0.184876 0.435195 0.282574
O10   O     O_3   0.932755 0.656015 0.528286 -0.556060
C37   C     C_3   0.993856 0.717936 0.544882 0.101499
H10   H     H_    0.051860 0.709556 0.503593 0.169705
H11   H     H_    0.011196 0.717776 0.617664 0.208291
C38   C     C_3   0.956505 0.803097 0.522325 -0.720333
H12   H     H_    0.900126 0.815118 0.564824 0.282574
H13   H     H_    0.003746 0.852630 0.535484 0.205493
H14   H     H_    0.937934 0.805328 0.449854 0.250374
O11   O     O_3   0.936372 0.395472 0.630045 -0.567099
C39   C     C_3   0.999038 0.358965 0.685295 0.122892
H15   H     H_    0.014844 0.402069 0.741605 0.215591
H16   H     H_    0.057645 0.343085 0.647651 0.177521
C40   C     C_3   0.964875 0.278735 0.726073 -0.751721
H17   H     H_    0.947879 0.234172 0.671435 0.241863
H18   H     H_    0.013401 0.249478 0.770155 0.220598
H19   H     H_    0.908062 0.292535 0.767253 0.267543
O12   O     O_3   0.063627 0.604529 0.369955 -0.567101
C41   C     C_3   0.000960 0.641034 0.314704 0.122895
H20   H     H_    0.942349 0.656905 0.352345 0.177521
H21   H     H_    0.985162 0.597933 0.258389 0.215591
C42   C     C_3   0.035118 0.721270 0.273938 -0.751731
H22   H     H_    0.091934 0.707479 0.232760 0.267544
H23   H     H_    0.986592 0.750526 0.229855 0.220601
H24   H     H_    0.052107 0.765829 0.328581 0.241862
Br1   Br    Br    0.928039 0.433736 0.302714 -0.463439
Br2   Br    Br    0.071962 0.566264 0.697286 -0.463438
Br3   Br    Br    0.684193 0.900731 0.504517 -0.492993
Br4   Br    Br    0.315807 0.099269 0.495483 -0.492992
Br5   Br    Br    0.683539 0.493701 0.107700 -0.426928
Br6   Br    Br    0.316461 0.506299 0.892300 -0.426927

loop_
_geom_bond_atom_site_label_1
_geom_bond_atom_site_label_2
_ccdc_geom_bond_type
C25   C31   T    
C7    C10   T    
C36   H7    S    
C38   H13   S    
C26   C32   T    
C22   C29   S    
C27   C29   S    
C14   C18   S    
Cu1   Cu2   S    
C41   C42   S    
C4    C8    S    
Cu1   O5    S    
C2    O4    A    
C37   C38   S    
C23   C29   S    
C27   Br2   S    
C41   H21   S    
C3    C7    S    
C24   O10   S    
C19   O5    A    
C3    C33   A    
C37   H11   S    
C34   Br4   S    
Cu1   N2    S    
C33   Br3   S    
C17   N2    T    
C20   O8    A    
C1    O1    A    
C2    O2    A    
C8    C9    T    
C16   Br5   S    
C24   C27   S    
Cu1   O1    S    
C35   C36   S    
C21   C27   S    
C38   H14   S    
O10   C37   S    
C22   C28   S    
C5    H2    S    
C21   O11   S    
C28   Br1   S    
Cu2   N1    S    
C22   O12   S    
C35   H6    S    
C4    C34   A    
O9    C35   S    
C1    C9    S    
C41   H20   S    
C4    C6    A    
C18   N1    T    
C42   H23   S    
C39   H15   S    
O11   C39   S    
C37   H10   S    
C12   H4    S    
O12   C41   S    
C40   H19   S    
C11   C16   A    
C19   O7    A    
C23   O9    S    
C13   C15   A    
C5    C34   A    
Cu1   O8    S    
C6    H1    S    
Cu2   O3    S    
C23   C28   S    
C11   H3    S    
C20   O6    A    
C12   C14   A    
C12   C15   A    
C21   C23   S    
C14   C16   A    
Cu2   O2    S    
C2    C10   S    
C35   H5    S    
C40   H18   S    
C38   H12   S    
C3    C5    A    
C42   H24   S    
C21   C30   S    
C6    C33   A    
C13   C17   S    
C36   H8    S    
C40   H17   S    
C29   C31   S    
C30   C32   S    
C11   C13   A    
C1    O3    A    
C20   C26   S    
C39   C40   S    
C28   C30   S    
Cu2   O6    S    
C22   C24   S    
C19   C25   S    
C24   C30   S    
C42   H22   S    
C39   H16   S    
C36   H9    S    
Cu1   O4    S    
Cu2   O7    S    
C15   Br6   S    
