data_mof_unit_42704.cif
_audit_creation_date              2012-12-10T20:02:20-0500
_audit_creation_method            fapswitch 2.2
_symmetry_space_group_name_H-M    P1
_symmetry_Int_Tables_number       1
_space_group_crystal_system       triclinic
_cell_length_a                    10.709599
_cell_length_b                    14.934279
_cell_length_c                    14.246817
_cell_angle_alpha                 91.163084
_cell_angle_beta                  90.960288
_cell_angle_gamma                 90.664321
_cell_volume                      2277.68612426

loop_
_atom_site_label
_atom_site_type_symbol
_atom_type_description
_atom_site_fract_x
_atom_site_fract_y
_atom_site_fract_z
_atom_type_partial_charge
C1    C     C_R   0.498600 0.327490 0.499384 0.877211
C2    C     C_R   0.500628 0.671678 0.500957 0.862702
C3    C     C_R   0.872237 0.500331 0.502386 -0.079587
C4    C     C_R   0.127792 0.505988 0.498100 -0.083556
C5    C     C_R   0.940430 0.456168 0.572200 0.000553
C6    C     C_R   0.059600 0.548509 0.426421 0.007752
C7    C     C_R   0.491402 0.093642 0.586529 0.214684
C8    C     C_R   0.591594 0.907761 0.464711 0.231681
C9    C     C_R   0.499714 0.186333 0.584788 -0.187626
C10   C     C_R   0.596490 0.814933 0.466424 -0.217522
C11   C     C_R   0.490967 0.230891 0.499209 -0.074438
C12   C     C_R   0.497106 0.766735 0.503090 -0.058301
C13   C     C_R   0.470927 0.182996 0.414876 -0.209305
C14   C     C_R   0.391570 0.808889 0.537667 -0.215130
C15   C     C_R   0.462887 0.090691 0.415784 -0.222787
C16   C     C_R   0.383433 0.900777 0.533135 -0.217980
C17   C     C_R   0.475756 0.046281 0.500680 0.108935
C18   C     C_R   0.483078 0.950043 0.497602 0.103285
C19   C     C_R   0.409329 0.456068 0.101602 -0.284158
C20   C     C_R   0.546063 0.570953 0.898468 -0.289927
C21   C     C_R   0.411629 0.452285 0.199937 0.321292
C22   C     C_R   0.549866 0.570646 0.799961 0.282061
C23   C     C_R   0.260297 0.503298 0.499157 0.863244
C24   C     C_R   0.739775 0.498687 0.500809 0.879545
C25   C     C_R   0.593132 0.544110 0.207733 -0.133629
C26   C     C_R   0.455753 0.426634 0.792265 -0.137946
C27   C     C_R   0.601359 0.540975 0.108725 0.378457
C28   C     C_R   0.461193 0.421270 0.891408 0.376005
C29   C     C_R   0.505592 0.497901 0.053322 -0.001009
C30   C     C_R   0.504172 0.496082 0.946706 0.003023
C31   C     C_R   0.244838 0.709295 0.276184 0.265753
C32   C     C_R   0.836314 0.245222 0.691683 0.284030
C33   C     C_R   0.195777 0.667432 0.355354 -0.107822
C34   C     C_R   0.880946 0.303742 0.623844 -0.173055
C35   C     C_R   0.116379 0.592218 0.344341 0.101051
C36   C     C_R   0.883325 0.396485 0.641407 0.076937
C37   C     C_R   0.085904 0.559889 0.253485 -0.168397
C38   C     C_R   0.840495 0.430769 0.727256 -0.072264
C39   C     C_R   0.137305 0.599781 0.175073 -0.195329
C40   C     C_R   0.793134 0.372767 0.794009 -0.207888
C41   C     C_R   0.216104 0.674350 0.186146 -0.108055
C42   C     C_R   0.791785 0.280279 0.776659 -0.154742
C43   C     C_R   0.931168 0.546178 0.430774 -0.259105
C44   C     C_R   0.068394 0.460760 0.569979 -0.240257
H1    H     H_    0.254514 0.704788 0.124435 0.130800
H2    H     H_    0.757556 0.235796 0.829749 0.122676
H3    H     H_    0.449890 0.053473 0.350166 0.148235
H4    H     H_    0.300589 0.933812 0.558461 0.147956
H5    H     H_    0.332390 0.424068 0.063269 0.215138
H6    H     H_    0.576098 0.630661 0.937176 0.216038
H7    H     H_    0.664471 0.579443 0.248989 0.156058
H8    H     H_    0.418504 0.370557 0.751081 0.155456
H9    H     H_    0.217576 0.693956 0.425029 0.105576
H10   H     H_    0.916363 0.277326 0.558186 0.132425
H11   H     H_    0.024099 0.502432 0.243556 0.127048
H12   H     H_    0.843749 0.502151 0.742205 0.129326
H13   H     H_    0.116273 0.572719 0.105567 0.147001
H14   H     H_    0.758882 0.399438 0.859684 0.132924
H15   H     H_    0.876754 0.579951 0.377437 0.156643
H16   H     H_    0.121925 0.425237 0.622534 0.167400
H17   H     H_    0.514031 0.223549 0.650275 0.156586
H18   H     H_    0.677477 0.780004 0.440279 0.134749
H19   H     H_    0.462141 0.216615 0.348467 0.164384
H20   H     H_    0.314805 0.770513 0.565797 0.139303
N1    N     N_R   0.500000 0.499980 0.252470 -0.111727
N2    N     N_R   0.500000 0.500020 0.747530 -0.105977
O1    O     O_R   0.500010 0.369070 0.579480 -0.626564
O2    O     O_R   0.499990 0.630930 0.420520 -0.615279
O3    O     O_R   0.500010 0.369060 0.420520 -0.631560
O4    O     O_R   0.499990 0.630940 0.579480 -0.620136
O5    O     O_R   0.316760 0.500010 0.579480 -0.616128
O6    O     O_R   0.683240 0.499990 0.420520 -0.629379
O7    O     O_R   0.316760 0.500000 0.420520 -0.616185
O8    O     O_R   0.683240 0.500000 0.579480 -0.621597
Zn1   Zn    Zn3+2 0.500000 0.500010 0.606140 0.942251
Zn2   Zn    Zn3+2 0.500000 0.499990 0.393860 0.943947
C45   C     C_3   0.318789 0.389159 0.241974 -0.845582
H21   H     H_    0.331602 0.380035 0.317281 0.283865
H22   H     H_    0.222547 0.412119 0.227990 0.222732
H23   H     H_    0.328475 0.321717 0.208713 0.204253
C46   C     C_3   0.612378 0.649082 0.755399 -0.826044
H24   H     H_    0.671955 0.626541 0.697015 0.261115
H25   H     H_    0.541091 0.697442 0.732027 0.250886
H26   H     H_    0.675511 0.685384 0.806251 0.201167
O9    O     O_3   0.702211 0.581799 0.067461 -0.621782
C47   C     C_3   0.796093 0.517558 0.053451 0.109916
H27   H     H_    0.758031 0.452629 0.024517 0.119395
H28   H     H_    0.845886 0.505303 0.121039 0.138157
C48   C     C_3   0.889067 0.553348 0.983518 -0.843646
H29   H     H_    0.930383 0.617699 0.010138 0.261145
H30   H     H_    0.964766 0.504184 0.972772 0.206189
H31   H     H_    0.841181 0.564766 0.915130 0.253158
O10   O     O_3   0.420523 0.343866 0.933319 -0.622144
C49   C     C_3   0.515472 0.279454 0.927373 0.096449
H32   H     H_    0.605240 0.306063 0.958123 0.125996
H33   H     H_    0.529240 0.257864 0.853034 0.133718
C50   C     C_3   0.477322 0.197752 0.982494 -0.823198
H34   H     H_    0.388889 0.168618 0.952899 0.259045
H35   H     H_    0.551426 0.146494 0.978283 0.203127
H36   H     H_    0.463656 0.217019 0.057320 0.253071
C51   C     C_3   0.326831 0.790994 0.287738 -0.930801
H37   H     H_    0.344957 0.822375 0.219198 0.233048
H38   H     H_    0.281452 0.841304 0.333931 0.244318
H39   H     H_    0.417781 0.772066 0.318938 0.269661
C52   C     C_3   0.838797 0.145815 0.675080 -0.960311
H40   H     H_    0.899354 0.114722 0.729064 0.246889
H41   H     H_    0.743146 0.117833 0.680008 0.256614
H42   H     H_    0.875198 0.128219 0.604605 0.241416
C53   C     C_3   0.501902 0.046679 0.679146 -0.958597
H43   H     H_    0.413073 0.011059 0.693674 0.250455
H44   H     H_    0.579027 0.997663 0.676988 0.252688
H45   H     H_    0.521138 0.094595 0.738461 0.234859
C54   C     C_3   0.702396 0.960248 0.430403 -0.929139
H46   H     H_    0.676097 0.996949 0.366249 0.244791
H47   H     H_    0.735165 0.008788 0.485816 0.248886
H48   H     H_    0.781540 0.915863 0.412807 0.238463

loop_
_geom_bond_atom_site_label_1
_geom_bond_atom_site_label_2
_ccdc_geom_bond_type
C38   C40   A    
C51   H37   S    
C46   H26   S    
C27   C29   A    
C1    C11   S    
C15   H3    S    
O6    Zn2   S    
C2    C12   S    
C16   H4    S    
C50   H34   S    
C39   C41   A    
C20   C30   A    
O9    C47   S    
C52   H41   S    
C3    C43   A    
O10   C49   S    
N1    Zn2   S    
C9    H17   S    
C31   C51   S    
C19   C21   A    
C2    O2    A    
C53   H44   S    
C47   H28   S    
C39   H13   S    
C5    C36   S    
C6    C35   S    
O3    Zn2   S    
C15   C17   A    
C42   H2    S    
C27   O9    S    
C22   N2    A    
C20   H6    S    
C46   H25   S    
C7    C17   A    
C31   C33   A    
C48   H30   S    
C43   H15   S    
C54   H48   S    
C21   N1    A    
C40   C42   A    
C51   H38   S    
C3    C24   S    
C10   H18   S    
C23   O7    A    
C50   H35   S    
C46   H24   S    
C45   H22   S    
C33   H9    S    
C52   H42   S    
C40   H14   S    
O8    Zn1   S    
C26   N2    A    
C22   C46   S    
C23   O5    A    
C25   N1    A    
C4    C6    A    
C53   H45   S    
C4    C23   S    
C47   H27   S    
C4    C44   A    
C49   C50   S    
C45   H21   S    
C8    C18   A    
C7    C53   S    
C28   O10   S    
C32   C34   A    
C25   H7    S    
C29   C30   S    
C26   H8    S    
C19   H5    S    
C13   H19   S    
C14   H20   S    
C17   C18   S    
O2    Zn2   S    
C48   H31   S    
C49   H33   S    
C9    C11   A    
C10   C12   A    
C8    C54   S    
C16   C18   A    
C5    C44   A    
C12   C14   A    
C34   H10   S    
C51   H39   S    
C6    C43   A    
C13   C15   A    
O7    Zn2   S    
C14   C16   A    
O1    Zn1   S    
C19   C29   A    
C50   H36   S    
C24   O6    A    
C54   H46   S    
C45   H23   S    
C7    C9    A    
C32   C42   A    
C31   C41   A    
C35   C37   A    
C20   C22   A    
C3    C5    A    
C47   C48   S    
C1    O1    A    
C25   C27   A    
C52   H40   S    
C26   C28   A    
C32   C52   S    
C28   C30   A    
C37   C39   A    
C53   H43   S    
O5    Zn1   S    
C11   C13   A    
C24   O8    A    
C44   H16   S    
N2    Zn1   S    
C36   C38   A    
C33   C35   A    
C34   C36   A    
C49   H32   S    
C1    O3    A    
C37   H11   S    
C38   H12   S    
C8    C10   A    
C21   C45   S    
O4    Zn1   S    
C41   H1    S    
C48   H29   S    
C2    O4    A    
C54   H47   S    
